# generated using pymatgen
data_Al3H18C37O14
_symmetry_space_group_name_H-M   'P 1'
_cell_length_a   12.11807379
_cell_length_b   12.20076602
_cell_length_c   27.00190007
_cell_angle_alpha   82.46772859
_cell_angle_beta   82.89111674
_cell_angle_gamma   64.02474220
_symmetry_Int_Tables_number   1
_chemical_formula_structural   Al3H18C37O14
_chemical_formula_sum   'Al6 H36 C74 O28'
_cell_volume   3548.10368673
_cell_formula_units_Z   2
loop_
 _symmetry_equiv_pos_site_id
 _symmetry_equiv_pos_as_xyz
  1  'x, y, z'
loop_
 _atom_site_type_symbol
 _atom_site_label
 _atom_site_symmetry_multiplicity
 _atom_site_fract_x
 _atom_site_fract_y
 _atom_site_fract_z
 _atom_site_occupancy
 _atom_site_pbe_bader_charge
 _atom_site_pbe_bader_spin_density
 _atom_site_pbe_cm5_charge
 _atom_site_pbe_ddec_charge
 _atom_site_pbe_ddec_spin_density
 _atom_site_pbe_ddec_sum_bond_order
 _atom_site_pbe_magmom
Al  Al0  1  0.39996208  0.40511739  0.51099542  1  2.495885  0  0.400787  1.683414  0  2.552964  0
Al  Al1  1  0.65821531  0.42407697  0.49527485  1  2.481878  0  0.508891  1.660535  0  2.512074  0
Al  Al2  1  0.42522036  0.65810909  0.49625755  1  2.484536  0  0.507992  1.661592  0  2.510825  0
Al  Al3  1  0.93552345  0.93338363  0.97702691  1  2.494244  0  0.400113  1.681601  0  2.55817  0
Al  Al4  1  0.91737886  0.67634703  0.99456534  1  2.481943  0  0.510154  1.661707  0  2.505977  0
Al  Al5  1  0.68116307  0.90737856  0.99324449  1  2.478114  0  0.508475  1.660268  0  2.510631  0
H  H6  1  0.60351190  0.34691453  0.19350055  1  0.058238  0  0.101327  0.087934  0  1.00264  0
H  H7  1  0.72032339  0.86827460  0.66022490  1  0.047997  0  0.095359  0.131793  0  0.992365  0
H  H8  1  0.55768992  0.92563642  0.66991311  1  0.046742  0  0.101148  0.141889  0  0.98139  0
H  H9  1  0.69114687  0.46809380  0.79400768  1  0.083997  0  0.109055  0.099941  0  0.9823  0
H  H10  1  0.85876622  0.49099016  0.71482688  1  0.083737  0  0.110449  0.107927  0  0.972698  0
H  H11  1  0.92819722  0.70629708  0.71978106  1  0.029256  0  0.094613  0.132769  0  0.998991  0
H  H12  1  0.85094937  0.79050259  0.77258410  1  0.035533  0  0.093551  0.129998  0  0.997163  0
H  H13  1  0.94210713  0.62962295  0.78097048  1  0.060923  0  0.094789  0.133449  0  1.000863  0
H  H14  1  0.07971027  0.89873006  0.26944500  1  0.075339  0  0.100232  0.093947  0  0.993598  0
H  H15  1  0.47286661  0.52791532  0.23115895  1  0.043483  0  0.090015  0.12083  0  1.017414  0
H  H16  1  0.44280981  0.62430363  0.27990295  1  0.033961  0  0.08918  0.122489  0  1.019682  0
H  H17  1  0.80516942  0.25482405  0.25482010  1  0.083166  0  0.103441  0.093235  0  0.986294  0
H  H18  1  0.42987289  0.48410918  0.29344628  1  0.040364  0  0.094669  0.132439  0  1.001296  0
H  H19  1  0.27515557  0.37514657  0.24897769  1  0.016784  0  0.09052  0.120854  0  1.016382  0
H  H20  1  0.17765914  0.43552361  0.19855788  1  0.043107  0  0.0969  0.132538  0  0.990197  0
H  H21  1  0.32993266  0.42290146  0.18962906  1  0.045797  0  0.095088  0.130927  0  0.992981  0
H  H22  1  0.97780816  0.53714916  0.28122041  1  0.022527  0  0.090237  0.123919  0  1.005279  0
H  H23  1  0.08652960  0.48830393  0.32759529  1  0.044532  0  0.098141  0.137662  0  0.984827  0
H  H24  1  0.95479640  0.63049282  0.33050413  1  0.044797  0  0.093178  0.129247  0  1.003604  0
H  H25  1  0.94195003  0.79798640  0.22892080  1  0.036071  0  0.099197  0.092921  0  1.009232  0
H  H26  1  0.47141210  0.02287226  0.27345308  1  0.038978  0  0.094512  0.130658  0  0.991913  0
H  H27  1  0.44651055  0.09385494  0.21122094  1  0.069923  0  0.096141  0.133846  0  0.98945  0
H  H28  1  0.48095070  0.82924722  0.77637619  1  0.098026  0  0.109868  0.107462  0  0.97471  0
H  H29  1  0.57116755  0.94793626  0.22196210  1  0.043177  0  0.087902  0.120359  0  1.02684  0
H  H30  1  0.77274684  0.85040784  0.28841213  1  0.017688  0  0.087247  0.11727  0  1.033526  0
H  H31  1  0.83472522  0.91180700  0.32809634  1  0.027405  0  0.096802  0.137462  0  0.986855  0
H  H32  1  0.67928908  0.93334995  0.33917258  1  0.025351  0  0.095996  0.133671  0  0.992625  0
H  H33  1  0.46046154  0.28610904  0.27455385  1  0.073623  0  0.099536  0.091246  0  1.023412  0
H  H34  1  0.49175220  0.62207706  0.73537427  1  0.080813  0  0.10432  0.093297  0  0.994456  0
H  H35  1  0.34023404  0.84031009  0.21084598  1  0.043033  0  0.091711  0.126477  0  0.998234  0
H  H36  1  0.36351799  0.74832203  0.16096838  1  0.014696  0  0.093375  0.128458  0  0.998027  0
H  H37  1  0.23143187  0.89026048  0.16456516  1  0.058511  0  0.098047  0.136278  0  0.984936  0
H  H38  1  0.88555105  0.02092855  0.21923800  1  0.107301  0  0.10089  0.095901  0  1.006433  0
H  H39  1  0.64150868  0.95092344  0.71328503  1  0.032208  0  0.090713  0.12692  0  1.019209  0
H  H40  1  0.30930021  0.28164474  0.49359236  1  0.575912  0  0.295488  0.384809  0  0.919926  0
H  H41  1  0.06394551  0.02103307  0.99207065  1  0.570801  0  0.296055  0.385889  0  0.918189  0
C  C42  1  0.61762861  0.27981742  0.43620891  1  1.646941  0  0.27494  0.715784  0  4.162112  0
C  C43  1  0.14660332  0.69046186  0.19575486  1  0.09714  0  0.001873  0.043003  0  3.811415  0
C  C44  1  0.09462550  0.63053388  0.27323212  1  0.025333  0  0.004409  0.111904  0  3.659052  0
C  C45  1  0.61347389  0.61946628  0.41664379  1  1.699839  0  0.284446  0.696146  0  4.180783  0
C  C46  1  0.17164329  0.68700769  0.29564660  1  0.110509  0  0.002011  0.044535  0  3.809692  0
C  C47  1  0.20378057  0.57077310  0.23278092  1  0.02843  0  0.00189  0.070574  0  3.640961  0
C  C48  1  0.28107967  0.62669495  0.25411947  1  0.002224  0  0.006332  0.078471  0  3.624373  0
C  C49  1  0.12837663  0.69424234  0.14488779  1  -0.452895  0  -0.01713  -0.001552  0  4.077982  0
C  C50  1  0.19363513  0.67656673  0.34651048  1  -0.217371  0  -0.019364  -0.005745  0  4.079151  0
C  C51  1  0.71181146  0.04528482  0.27607091  1  0.030618  0  0.007822  0.126971  0  3.604957  0
C  C52  1  0.59844597  0.09799362  0.24280078  1  0.019506  0  0.002971  0.103906  0  3.642876  0
C  C53  1  0.66802594  0.66736604  0.26814749  1  0.207824  0  0.004532  -0.007583  0  4.19418  0
C  C54  1  0.69642941  0.09024746  0.10325286  1  0.332239  0  -0.048521  -0.216539  0  3.976503  0
C  C55  1  0.64578819  0.22678676  0.38927789  1  0.150658  0  -0.04961  -0.220112  0  3.979215  0
C  C56  1  0.79110825  0.08024414  0.23207766  1  -0.084209  0  -0.071454  -0.120969  0  3.624486  0
C  C57  1  0.27675471  0.62133713  0.43669371  1  1.639919  0  0.274131  0.714499  0  4.165315  0
C  C58  1  0.67933686  0.13144477  0.19778659  1  0.121014  0  0.004832  0.08277  0  3.801791  0
C  C59  1  0.74663337  0.20971444  0.25079078  1  -0.029765  0  -0.068427  -0.071717  0  3.6456  0
C  C60  1  0.66656254  0.17712872  0.29576906  1  0.116387  0  0.003613  0.076113  0  3.807193  0
C  C61  1  0.63415570  0.26169693  0.21788272  1  -0.018287  0  -0.066495  -0.07028  0  3.642186  0
C  C62  1  0.55483519  0.22743593  0.26158708  1  -0.040594  0  -0.072273  -0.120617  0  3.643448  0
C  C63  1  0.68686973  0.11003863  0.14707267  1  -0.590839  0  -0.021001  -0.017235  0  4.076775  0
C  C64  1  0.65544838  0.65704764  0.31838381  1  -0.346085  0  -0.001666  0.026191  0  4.247648  0
C  C65  1  0.65739184  0.20173023  0.34610237  1  -0.456536  0  -0.018864  -0.013059  0  4.078916  0
C  C66  1  0.65713598  0.76765587  0.71907583  1  0.03045  0  0.010214  0.112995  0  3.636403  0
C  C67  1  0.56466641  0.75376694  0.76247747  1  -0.047186  0  -0.06697  -0.114299  0  3.627266  0
C  C68  1  0.69984418  0.68448914  0.88952996  1  -0.275141  0  -0.048714  -0.234367  0  3.96462  0
C  C69  1  0.61198173  0.28256945  0.57697009  1  1.718366  0  0.279368  0.687676  0  4.189455  0
C  C70  1  0.64767517  0.63731509  0.60060032  1  0.193546  0  -0.049844  -0.237749  0  3.969713  0
C  C71  1  0.76926395  0.68077364  0.75052875  1  0.035146  0  0.011411  0.134448  0  3.606511  0
C  C72  1  0.67461876  0.66859376  0.79564729  1  0.103927  0  0.007143  0.067817  0  3.789133  0
C  C73  1  0.77454104  0.56587967  0.72876832  1  -0.03108  0  -0.067202  -0.115712  0  3.622871  0
C  C74  1  0.66457280  0.65069793  0.69563230  1  0.095025  0  0.005801  0.067821  0  3.798684  0
C  C75  1  0.64155092  0.64604148  0.36428590  1  0.167385  0  0.012654  -0.118767  0  3.793291  0
C  C76  1  0.68168727  0.55312850  0.77197112  1  -0.025499  0  -0.061128  -0.064114  0  3.629856  0
C  C77  1  0.57084078  0.63903162  0.74049522  1  -0.006988  0  -0.059537  -0.057616  0  3.621675  0
C  C78  1  0.68600406  0.67650385  0.84626621  1  0.006873  0  0.001351  0.025338  0  4.036081  0
C  C79  1  0.65589546  0.64350271  0.64471863  1  -0.430153  0  0.003242  0.028759  0  4.038317  0
C  C80  1  0.11407306  0.68928376  0.86309620  1  -0.174563  0  0.00904  -0.120572  0  3.810244  0
C  C81  1  0.62430057  0.61340663  0.55370760  1  1.608138  0  0.283662  0.72699  0  4.149243  0
C  C82  1  0.14566521  0.67466054  0.81858866  1  0.180515  0  -0.00341  0.024573  0  4.252173  0
C  C83  1  0.17527760  0.66149291  0.76955471  1  -0.117295  0  0.005032  0.000201  0  4.190313  0
C  C84  1  0.19626103  0.65252356  0.72400448  1  0.001242  0  0.002446  -0.007177  0  4.194745  0
C  C85  1  0.21841966  0.64318286  0.67451518  1  -0.216642  0  -0.004836  0.024642  0  4.25522  0
C  C86  1  0.11493303  0.80531346  0.25855553  1  -0.042582  0  -0.074007  -0.119689  0  3.657842  0
C  C87  1  0.23967346  0.63459053  0.62920996  1  0.136875  0  0.00762  -0.123595  0  3.816392  0
C  C88  1  0.69457142  0.10134735  0.86158617  1  0.189232  0  0.008442  -0.124322  0  3.819436  0
C  C89  1  0.68564860  0.12674336  0.81634511  1  -0.270925  0  -0.004344  0.027732  0  4.256858  0
C  C90  1  0.67645835  0.15276773  0.76685386  1  -0.01126  0  0.001945  -0.005646  0  4.195654  0
C  C91  1  0.66838236  0.17493250  0.72118309  1  -0.017417  0  0.003489  -0.003206  0  4.197822  0
C  C92  1  0.65638632  0.20204943  0.67187778  1  -0.079306  0  -0.003579  0.028203  0  4.252047  0
C  C93  1  0.28558196  0.61284284  0.57801201  1  1.699628  0  0.280899  0.686135  0  4.190515  0
C  C94  1  0.64301434  0.22955666  0.62696980  1  -0.029478  0  0.009516  -0.120743  0  3.812723  0
C  C95  1  0.06163598  0.71915056  0.05316915  1  1.631526  0  0.275584  0.716803  0  4.163931  0
C  C96  1  0.72085964  0.72045859  0.07287479  1  1.68786  0  0.284548  0.695364  0  4.181903  0
C  C97  1  0.22359235  0.74682532  0.21814001  1  0.01692  0  0.004726  0.112054  0  3.658502  0
C  C98  1  0.72593973  0.04666244  0.05426920  1  1.610142  0  0.27413  0.713629  0  4.161456  0
C  C99  1  0.05810752  0.72254790  0.91233389  1  1.672371  0  0.27991  0.688722  0  4.187184  0
C  C100  1  0.72678925  0.70906355  0.93565577  1  1.614345  0  0.283246  0.728549  0  4.143503  0
C  C101  1  0.71976707  0.05149500  0.91233843  1  1.687959  0  0.282983  0.688523  0  4.186239  0
C  C102  1  0.69626614  0.69472475  0.12564349  1  0.323285  0  0.011737  -0.117751  0  3.797366  0
C  C103  1  0.68626597  0.68451492  0.17163103  1  -0.376398  0  -0.003771  0.023066  0  4.247391  0
C  C104  1  0.67638126  0.67497832  0.22188326  1  -0.158825  0  0.004826  -0.005015  0  4.188933  0
C  C105  1  0.29349647  0.80966626  0.18706957  1  -0.046731  0  -0.235011  -0.406791  0  3.991125  0
C  C106  1  0.64360372  0.88418498  0.68905345  1  -0.044012  0  -0.235301  -0.414213  0  3.989005  0
C  C107  1  0.87812919  0.70328974  0.75643000  1  -0.045243  0  -0.237061  -0.419786  0  3.991166  0
C  C108  1  0.10929425  0.69788471  0.10123455  1  0.175068  0  -0.050512  -0.225688  0  3.97645  0
C  C109  1  0.41353563  0.56211783  0.26518349  1  -0.036914  0  -0.23807  -0.399183  0  3.978883  0
C  C110  1  0.24929858  0.44438898  0.21682589  1  -0.060297  0  -0.23542  -0.399775  0  3.99131  0
C  C111  1  0.02476921  0.56821989  0.30469354  1  -0.044148  0  -0.236234  -0.410712  0  3.993489  0
C  C112  1  0.51762785  0.03730612  0.23715934  1  -0.078882  0  -0.237699  -0.408737  0  3.996118  0
C  C113  1  0.75191342  0.92907232  0.30963355  1  -0.015982  0  -0.236509  -0.416292  0  3.983609  0
C  C114  1  0.22151022  0.65798230  0.38975693  1  -0.085305  0  -0.049349  -0.222609  0  3.975401  0
C  C115  1  0.03864284  0.74961109  0.23715369  1  -0.012984  0  -0.070001  -0.11039  0  3.6439  0
O  O116  1  0.30543771  0.51226304  0.45485231  1  -1.225742  0  -0.21182  -0.566415  0  2.295872  0
O  O117  1  0.64412177  0.82178850  0.05276704  1  -1.23318  0  -0.218517  -0.567129  0  2.247433  0
O  O118  1  0.64201045  0.03058365  0.03495987  1  -1.257213  0  -0.247729  -0.6149  0  2.228402  0
O  O119  1  0.51459704  0.29878326  0.45946590  1  -1.228598  0  -0.213154  -0.572443  0  2.291094  0
O  O120  1  0.81979605  0.03850741  0.92711002  1  -1.20025  0  -0.191736  -0.518491  0  2.279751  0
O  O121  1  0.02771455  0.83147762  0.92108906  1  -1.196008  0  -0.196388  -0.528518  0  2.285219  0
O  O122  1  0.04013764  0.63938313  0.94220336  1  -1.250389  0  -0.237198  -0.597662  0  2.238641  0
O  O123  1  0.83020834  0.63526245  0.95329109  1  -1.247332  0  -0.230647  -0.597053  0  2.238106  0
O  O124  1  0.64898709  0.80635580  0.95557793  1  -1.248942  0  -0.2316  -0.600259  0  2.248195  0
O  O125  1  0.63906515  0.01968751  0.93739471  1  -1.245919  0  -0.234368  -0.591292  0  2.234517  0
O  O126  1  0.84358758  0.83767518  0.98864842  1  -1.608697  0  -0.390798  -1.272554  0  2.294735  0
O  O127  1  0.69903394  0.51143575  0.53619577  1  -1.251734  0  -0.229926  -0.59472  0  2.241414  0
O  O128  1  0.69940443  0.30885069  0.44990585  1  -1.249487  0  -0.243681  -0.606193  0  2.229485  0
O  O129  1  0.69078071  0.52073581  0.43796061  1  -1.230683  0  -0.216762  -0.566357  0  2.251275  0
O  O130  1  0.51048063  0.69405694  0.43602102  1  -1.234489  0  -0.21875  -0.568906  0  2.247183  0
O  O131  1  0.29747682  0.70188662  0.45591150  1  -1.261307  0  -0.247487  -0.615376  0  2.229153  0
O  O132  1  0.29646941  0.51531044  0.56246382  1  -1.204168  0  -0.194188  -0.520271  0  2.275768  0
O  O133  1  0.50436327  0.30869726  0.56632752  1  -1.19604  0  -0.196124  -0.528943  0  2.287544  0
O  O134  1  0.69571341  0.30280286  0.54838783  1  -1.253977  0  -0.23657  -0.595968  0  2.24032  0
O  O135  1  0.52716528  0.69180698  0.53295415  1  -1.256282  0  -0.232261  -0.600248  0  2.246833  0
O  O136  1  0.31649537  0.69430931  0.55331652  1  -1.24373  0  -0.23432  -0.591722  0  2.239361  0
O  O137  1  0.49589466  0.49667764  0.50060919  1  -1.613102  0  -0.3901  -1.272732  0  2.293705  0
O  O138  1  0.83314094  0.02291424  0.03449208  1  -1.21441  0  -0.209877  -0.5612  0  2.294031  0
O  O139  1  0.04728765  0.81778016  0.02709759  1  -1.231294  0  -0.213635  -0.574448  0  2.29466  0
O  O140  1  0.03167981  0.63688384  0.04114166  1  -1.251769  0  -0.245545  -0.607992  0  2.22665  0
O  O141  1  0.81970628  0.64383402  0.05186380  1  -1.231513  0  -0.216239  -0.565152  0  2.25073  0
O  O142  1  0.31206209  0.32173681  0.52168314  1  -1.354344  0  -0.571332  -0.984993  0  1.792899  0
O  O143  1  0.01780201  0.02219018  0.96511254  1  -1.346388  0  -0.570806  -0.984877  0  1.791954  0
