# generated using pymatgen
data_CuH18C23(N5O2)2
_symmetry_space_group_name_H-M   'P 1'
_cell_length_a   8.73623875
_cell_length_b   10.26358371
_cell_length_c   13.62291267
_cell_angle_alpha   72.61664539
_cell_angle_beta   78.42599496
_cell_angle_gamma   81.82687284
_symmetry_Int_Tables_number   1
_chemical_formula_structural   CuH18C23(N5O2)2
_chemical_formula_sum   'Cu2 H36 C46 N20 O8'
_cell_volume   1137.58256878
_cell_formula_units_Z   2
loop_
 _symmetry_equiv_pos_site_id
 _symmetry_equiv_pos_as_xyz
  1  'x, y, z'
loop_
 _atom_site_type_symbol
 _atom_site_label
 _atom_site_symmetry_multiplicity
 _atom_site_fract_x
 _atom_site_fract_y
 _atom_site_fract_z
 _atom_site_occupancy
 _atom_site_pbe_cm5_charge
 _atom_site_pbe_ddec_charge
 _atom_site_pbe_ddec_spin_density
 _atom_site_pbe_ddec_sum_bond_order
 _atom_site_pbe_magmom
Cu  Cu0  1  0.82127786  0.36505080  0.55204780  1  0.735968  0.791987  -0.757873  2.188318  -0.571
Cu  Cu1  1  0.17871804  0.63494809  0.44795112  1  0.735983  0.791948  0.757873  2.188338  0.571
H  H2  1  0.71808495  0.41354589  0.76038762  1  0.120717  0.098856  -0.000656  1.014308  -0.001
H  H3  1  0.28191621  0.58645818  0.23960948  1  0.120723  0.098862  0.000656  1.014331  0.001
H  H4  1  0.80809447  0.33405987  0.93427038  1  0.108995  0.115139  -0.000413  1.070646  -0.001
H  H5  1  0.19190553  0.66594418  0.06572686  1  0.109015  0.11512  0.000413  1.070759  0.001
H  H6  1  0.17573302  0.07531444  0.80386371  1  0.111377  0.120506  -0.000514  1.006081  -0.001
H  H7  1  0.82426089  0.92468135  0.19613541  1  0.111392  0.120536  0.000514  1.006125  0.001
H  H8  1  0.06856568  0.16410698  0.63585864  1  0.125191  0.110293  -0.000917  0.998933  -0.002
H  H9  1  0.93143432  0.83589708  0.36413714  1  0.125187  0.110246  0.000917  0.998952  0.002
H  H10  1  0.05402404  0.70878187  0.63995524  1  0.123933  0.105756  0.000923  1.000155  0.002
H  H11  1  0.94597456  0.29122422  0.36004173  1  0.123959  0.105808  -0.000923  1.000113  -0.002
H  H12  1  0.10038539  0.63737034  0.82542538  1  0.109378  0.11956  0.000489  1.046408  0.001
H  H13  1  0.89961577  0.36263373  0.17457098  1  0.109397  0.119579  -0.000489  1.046384  -0.001
H  H14  1  0.44897313  0.32570087  0.74238181  1  0.113104  0.135554  0.000454  1.020536  0.001
H  H15  1  0.55101507  0.67429387  0.25761387  1  0.113109  0.135545  -0.000454  1.020506  -0.001
H  H16  1  0.38923593  0.40883925  0.56483838  1  0.122438  0.107064  0.000811  1.012006  0.001
H  H17  1  0.61074631  0.59115645  0.43516005  1  0.122427  0.10699  -0.000811  1.011973  -0.001
H  H18  1  0.38796463  0.07527867  0.64780353  1  0.101475  0.10179  4e-06  1.020247  0.0
H  H19  1  0.61203592  0.92470994  0.35220661  1  0.101429  0.101716  -4e-06  1.020343  0.0
H  H20  1  0.28004317  0.85187209  0.67085452  1  0.100236  0.101669  -0.000139  1.008089  0.0
H  H21  1  0.71996206  0.14811662  0.32914472  1  0.100256  0.101634  0.000139  1.008098  0.0
H  H22  1  0.46471427  0.65468838  0.63533427  1  0.097836  0.095671  -0.000409  1.069667  0.0
H  H23  1  0.53530018  0.34530143  0.36466501  1  0.097834  0.095652  0.000408  1.069736  0.0
H  H24  1  0.85146838  0.90440063  0.55022243  1  0.108261  0.125403  -0.000357  1.002456  0.0
H  H25  1  0.14853708  0.09559619  0.44978966  1  0.108275  0.125431  0.000357  1.002417  0.0
H  H26  1  0.34053108  0.90470519  0.15242194  1  0.119763  0.112637  -2.7e-05  0.977238  0.0
H  H27  1  0.65946669  0.09529782  0.84757509  1  0.119751  0.112624  2.7e-05  0.977167  0.0
H  H28  1  0.28154474  0.01623467  0.23361183  1  0.122442  0.108884  -4.5e-05  1.013136  0.0
H  H29  1  0.71845222  0.98376525  0.76638672  1  0.122426  0.108868  4.5e-05  1.013129  0.0
H  H30  1  0.56613852  0.00926516  0.15703571  1  0.107976  0.118439  1.2e-05  0.985153  0.0
H  H31  1  0.43385680  0.99073883  0.84296582  1  0.107957  0.118366  -1.2e-05  0.985216  0.0
H  H32  1  0.52339292  0.07224856  0.03028075  1  0.099756  0.095134  -5e-06  1.038215  0.0
H  H33  1  0.47660520  0.92775136  0.96971985  1  0.099759  0.095141  5e-06  1.038166  0.0
H  H34  1  0.60862629  0.24609947  0.10111150  1  0.119359  0.113117  -1.4e-05  0.972671  0.0
H  H35  1  0.39137043  0.75390250  0.89888589  1  0.119356  0.113122  1.4e-05  0.972619  0.0
H  H36  1  0.43108394  0.23573008  0.19264135  1  0.119844  0.107676  -2.1e-05  1.013853  0.0
H  H37  1  0.56891243  0.76427497  0.80735540  1  0.119834  0.10766  2.1e-05  1.013888  0.0
C  C38  1  0.81739902  0.33735637  0.77429680  1  0.049748  0.094884  0.000557  3.923592  0.001
C  C39  1  0.18260202  0.66264871  0.22570081  1  0.049735  0.09487  -0.000557  3.923663  -0.001
C  C40  1  0.86706765  0.29250334  0.87044752  1  -0.080305  -0.158301  -0.003635  3.915312  -0.004
C  C41  1  0.13293118  0.70750070  0.12954988  1  -0.080285  -0.158264  0.003635  3.915457  0.004
C  C42  1  0.99937001  0.19819842  0.88292187  1  0.011723  0.070809  0.002462  3.996969  0.002
C  C43  1  0.00062787  0.80180356  0.11707610  1  0.011654  0.070692  -0.002462  3.997043  -0.002
C  C44  1  0.07370756  0.14987107  0.79773058  1  -0.080037  -0.159869  -0.003941  3.935137  -0.005
C  C45  1  0.92628940  0.85012884  0.20226870  1  -0.080001  -0.159831  0.003941  3.935119  0.005
C  C46  1  0.01528470  0.19808149  0.70445323  1  0.052259  0.102716  -0.000227  3.901031  0.0
C  C47  1  0.98471319  0.80192048  0.29554621  1  0.052266  0.102806  0.000226  3.900928  0.0
C  C48  1  0.05740806  0.15701326  0.98201025  1  0.219317  0.217772  -0.000279  4.051778  0.0
C  C49  1  0.94258878  0.84298768  0.01798955  1  0.219337  0.217842  0.000279  4.051735  0.0
C  C50  1  0.13911699  0.62395720  0.66746572  1  0.053334  0.104647  0.000384  3.901851  0.0
C  C51  1  0.86088067  0.37604683  0.33253183  1  0.053335  0.104698  -0.000384  3.901885  0.0
C  C52  1  0.16554277  0.58382186  0.76988704  1  -0.076554  -0.154943  0.004039  3.906944  0.005
C  C53  1  0.83446072  0.41618223  0.23010901  1  -0.076603  -0.154992  -0.004038  3.906867  -0.005
C  C54  1  0.27947819  0.47542329  0.79970741  1  0.013253  0.067479  -0.002352  3.999199  -0.002
C  C55  1  0.72052204  0.52457873  0.20028659  1  0.013303  0.067613  0.002351  3.998948  0.002
C  C56  1  0.35917141  0.41014868  0.72517804  1  -0.076349  -0.15051  0.003786  3.905334  0.004
C  C57  1  0.64082111  0.58984918  0.27481713  1  -0.076469  -0.150748  -0.003785  3.905262  -0.004
C  C58  1  0.32586428  0.45642774  0.62431170  1  0.054855  0.108852  -0.00023  3.894026  -0.001
C  C59  1  0.67412707  0.54357009  0.37568509  1  0.054939  0.109137  0.00023  3.893715  0.001
C  C60  1  0.67849120  0.13996222  0.58908732  1  0.182829  0.532558  0.000298  4.269742  0.004
C  C61  1  0.32150505  0.86004380  0.41091730  1  0.18261  0.532158  -0.000298  4.270151  -0.004
C  C62  1  0.62480783  0.00231797  0.60023471  1  -0.020404  -0.033562  -0.006567  3.970746  -0.007
C  C63  1  0.37519681  0.99767577  0.39977817  1  -0.0203  -0.033268  0.006565  3.970437  0.007
C  C64  1  0.46411133  0.98662847  0.63384334  1  -0.084377  -0.091283  -0.000173  3.970778  0.0
C  C65  1  0.53589389  0.01336016  0.36616766  1  -0.084332  -0.091393  0.000173  3.970996  0.0
C  C66  1  0.40527823  0.86262275  0.64638515  1  -0.095428  -0.089453  -0.000545  4.018936  -0.001
C  C67  1  0.59472804  0.13736698  0.35361740  1  -0.095461  -0.089381  0.000545  4.019111  0.001
C  C68  1  0.50726263  0.75271572  0.62614670  1  -0.08704  -0.089639  0.000289  3.95594  0.0
C  C69  1  0.49274831  0.24727402  0.37385966  1  -0.087078  -0.089618  -0.000289  3.95611  0.0
C  C70  1  0.66799081  0.76668519  0.59174239  1  -0.023021  -0.039801  -0.006738  3.954401  -0.007
C  C71  1  0.33202118  0.23330554  0.40827022  1  -0.022919  -0.039653  0.006738  3.954201  0.007
C  C72  1  0.72680970  0.89232582  0.57842243  1  -0.077925  -0.114288  -0.000563  3.906239  0.0
C  C73  1  0.27319610  0.10766792  0.42159177  1  -0.078006  -0.114466  0.000563  3.906243  0.0
C  C74  1  0.32520245  0.01243750  0.15329760  1  -0.043453  -0.106809  -4.9e-05  3.838497  0.0
C  C75  1  0.67479672  0.98756345  0.84670191  1  -0.043416  -0.106772  4.9e-05  3.838403  0.0
C  C76  1  0.48116865  0.07598219  0.11071685  1  -0.155868  -0.185297  -1e-06  3.932302  0.0
C  C77  1  0.51882912  0.92402081  0.88928239  1  -0.155863  -0.185198  1e-06  3.932095  0.0
C  C78  1  0.48609764  0.22121572  0.11648074  1  -0.044718  -0.112407  -5e-06  3.846682  0.0
C  C79  1  0.51389780  0.77878727  0.88351585  1  -0.044756  -0.112481  5e-06  3.846574  0.0
C  C80  1  0.77556262  0.64873096  0.56496864  1  0.20712  0.575868  -0.000219  4.207373  0.003
C  C81  1  0.22445230  0.35126495  0.43503877  1  0.207065  0.57567  0.000219  4.207549  -0.003
C  C82  1  0.31498132  0.43259714  0.90553558  1  0.222477  0.226055  0.000301  4.037758  0.0
C  C83  1  0.68502206  0.56740800  0.09445659  1  0.222533  0.226101  -0.000301  4.037773  0.0
N  N84  1  0.89073237  0.29200752  0.69220935  1  -0.338278  -0.21528  -0.05455  3.573525  -0.068
N  N85  1  0.10926751  0.70799755  0.30778768  1  -0.338265  -0.215293  0.054543  3.573451  0.068
N  N86  1  0.21849176  0.56196564  0.59531729  1  -0.343187  -0.228545  0.056461  3.585404  0.07
N  N87  1  0.78150169  0.43803424  0.40468245  1  -0.343188  -0.228768  -0.056453  3.58546  -0.07
N  N88  1  0.19543928  0.08500186  0.99824982  1  -0.187938  -0.275568  0.000435  3.091002  0.001
N  N89  1  0.80455732  0.91500113  0.00174810  1  -0.187957  -0.275582  -0.000435  3.090941  -0.001
N  N90  1  0.19802749  0.08062309  0.09624853  1  -0.008827  0.266086  0.000179  3.79825  0.0
N  N91  1  0.80197028  0.91937992  0.90374849  1  -0.008843  0.266096  -0.000179  3.798285  0.0
N  N92  1  0.06984317  0.14387387  0.14067301  1  -0.071586  -0.107899  -1.6e-05  3.12965  0.0
N  N93  1  0.93015216  0.85613014  0.85932411  1  -0.071638  -0.107977  1.6e-05  3.129698  0.0
N  N94  1  0.97962682  0.19244015  0.06911483  1  -0.188844  -0.232194  0.000231  3.224222  0.0
N  N95  1  0.02036873  0.80756182  0.93088197  1  -0.18877  -0.23214  -0.000231  3.224164  0.0
N  N96  1  0.40290127  0.32350032  0.04046335  1  -0.007631  0.269275  -0.000163  3.799123  0.0
N  N97  1  0.59709639  0.67650372  0.95953200  1  -0.007574  0.269442  0.000163  3.798883  0.0
N  N98  1  0.30578175  0.42583189  0.06590473  1  -0.07512  -0.109182  -9e-06  3.118908  0.0
N  N99  1  0.69422374  0.57417531  0.93408891  1  -0.07512  -0.109196  9e-06  3.11892  0.0
N  N100  1  0.41393668  0.32348794  0.94190816  1  -0.190433  -0.277447  -0.000466  3.074768  -0.001
N  N101  1  0.58606133  0.67651303  0.05808782  1  -0.190441  -0.27753  0.000466  3.074753  0.001
N  N102  1  0.24946625  0.49599958  0.98082451  1  -0.188087  -0.229204  -0.000181  3.222999  0.0
N  N103  1  0.75054156  0.50400764  0.01916810  1  -0.188117  -0.229259  0.000181  3.223059  0.0
O  O104  1  0.82042858  0.16431407  0.54452152  1  -0.321616  -0.535238  -0.073484  2.245344  -0.099
O  O105  1  0.17957221  0.83568272  0.45548971  1  -0.321526  -0.535091  0.073486  2.245446  0.099
O  O106  1  0.58267765  0.22513115  0.62503032  1  -0.327749  -0.577895  -0.000385  2.220726  -0.002
O  O107  1  0.41731021  0.77487694  0.37496024  1  -0.327654  -0.577667  0.000386  2.220703  0.002
O  O108  1  0.91285288  0.66995997  0.51952986  1  -0.317496  -0.59037  0.001353  2.372295  0.001
O  O109  1  0.08716121  0.33003280  0.48048643  1  -0.317503  -0.59028  -0.001351  2.372128  -0.001
O  O110  1  0.71403176  0.53343197  0.59016168  1  -0.322724  -0.557157  -0.071322  2.392112  -0.097
O  O111  1  0.28597196  0.46657007  0.40983406  1  -0.32273  -0.557119  0.071317  2.392245  0.097
