# generated using pymatgen
data_Rb2UH12C14N2O13
_symmetry_space_group_name_H-M   'P 1'
_cell_length_a   7.61402089
_cell_length_b   12.11993320
_cell_length_c   12.11998482
_cell_angle_alpha   74.88967895
_cell_angle_beta   73.51095674
_cell_angle_gamma   73.51070669
_symmetry_Int_Tables_number   1
_chemical_formula_structural   Rb2UH12C14N2O13
_chemical_formula_sum   'Rb4 U2 H24 C28 N4 O26'
_cell_volume   1008.42013262
_cell_formula_units_Z   2
loop_
 _symmetry_equiv_pos_site_id
 _symmetry_equiv_pos_as_xyz
  1  'x, y, z'
loop_
 _atom_site_type_symbol
 _atom_site_label
 _atom_site_symmetry_multiplicity
 _atom_site_fract_x
 _atom_site_fract_y
 _atom_site_fract_z
 _atom_site_occupancy
 _atom_site_hle17_bader_spin_density
 _atom_site_hle17_ddec_charge
 _atom_site_hle17_ddec_spin_density
 _atom_site_hle17_ddec_sum_bond_order
 _atom_site_hle17_magmom
 _atom_site_hse06_10hf_bader_spin_density
 _atom_site_hse06_10hf_ddec_charge
 _atom_site_hse06_10hf_ddec_spin_density
 _atom_site_hse06_10hf_ddec_sum_bond_order
 _atom_site_hse06_10hf_magmom
 _atom_site_hse06_bader_spin_density
 _atom_site_hse06_ddec_charge
 _atom_site_hse06_ddec_spin_density
 _atom_site_hse06_ddec_sum_bond_order
 _atom_site_hse06_magmom
 _atom_site_pbe_bader_spin_density
 _atom_site_pbe_cm5_charge
 _atom_site_pbe_ddec_charge
 _atom_site_pbe_ddec_spin_density
 _atom_site_pbe_ddec_sum_bond_order
 _atom_site_pbe_magmom
Rb  Rb0  1  0.03963376  0.63119464  0.26361928  1  0  0.947514  0  0.52858  0  0  0.907355  0  0.743499  0  0  0.922196  0  0.717886  0  0  0.835371  0.896248  0  0.761853  0
Rb  Rb1  1  0.46036619  0.73638249  0.36880370  1  0  0.947526  0  0.528568  0  0  0.907355  0  0.743505  0  0  0.922193  0  0.717897  0  0  0.835351  0.896257  0  0.761838  0
Rb  Rb2  1  0.96036804  0.36880602  0.73637819  1  0  0.947496  0  0.528571  0  0  0.907337  0  0.743509  0  0  0.922169  0  0.717902  0  0  0.835369  0.896235  0  0.761866  0
Rb  Rb3  1  0.53963230  0.26362342  0.63119714  1  0  0.947496  0  0.528586  0  0  0.907341  0  0.743516  0  0  0.922178  0  0.7179  0  0  0.83535  0.896252  0  0.761846  0
U  U4  1  0.00000204  0.49999817  0.00000247  1  0  2.383529  0  4.163908  0  0  2.417084  0  4.844093  0  0  2.535347  0  4.804132  0  0  2.09683  2.335245  0  4.87116  0
U  U5  1  0.50000686  0.00000083  0.50000137  1  0  2.383805  0  4.163824  0  0  2.417386  0  4.843989  0  0  2.535604  0  4.804104  0  0  2.096902  2.335489  0  4.871153  0
H  H6  1  0.43160686  0.50215540  0.25309502  1  0  0.409453  0  0.896516  0  0  0.381337  0  0.957585  0  0  0.391085  0  0.943181  0  0  0.288415  0.374503  0  0.967662  0
H  H7  1  0.06839185  0.74690279  0.49784664  1  0  0.409412  0  0.896577  0  0  0.381301  0  0.957641  0  0  0.391049  0  0.943237  0  0  0.288401  0.374464  0  0.967719  0
H  H8  1  0.56839260  0.49784788  0.74690549  1  0  0.40942  0  0.89656  0  0  0.381305  0  0.957629  0  0  0.391054  0  0.943223  0  0  0.288387  0.37447  0  0.967706  0
H  H9  1  0.93161196  0.25309611  0.50215175  1  0  0.409417  0  0.896575  0  0  0.381298  0  0.957658  0  0  0.391049  0  0.943248  0  0  0.288397  0.374455  0  0.967738  0
H  H10  1  0.57210804  0.58556419  0.18645965  1  0  0.428311  0  0.872907  0  0  0.400753  0  0.932121  0  0  0.41163  0  0.916029  0  0  0.295208  0.393026  0  0.943546  0
H  H11  1  0.92788383  0.81353550  0.41444070  1  0  0.428277  0  0.872944  0  0  0.400712  0  0.932173  0  0  0.411592  0  0.916076  0  0  0.295197  0.392984  0  0.9436  0
H  H12  1  0.42789408  0.41443559  0.81353964  1  0  0.428365  0  0.87284  0  0  0.400789  0  0.932087  0  0  0.411668  0  0.915992  0  0  0.295207  0.393061  0  0.943514  0
H  H13  1  0.07211314  0.18646339  0.58555974  1  0  0.428293  0  0.872935  0  0  0.40073  0  0.932156  0  0  0.411608  0  0.916063  0  0  0.295195  0.393002  0  0.943584  0
H  H14  1  0.75495623  0.47333570  0.44091812  1  0  0.413699  0  0.891719  0  0  0.383636  0  0.95505  0  0  0.395015  0  0.937983  0  0  0.290841  0.375532  0  0.967199  0
H  H15  1  0.74504615  0.55908142  0.52666614  1  0  0.413699  0  0.891704  0  0  0.383637  0  0.955035  0  0  0.395017  0  0.937967  0  0  0.290839  0.375534  0  0.967181  0
H  H16  1  0.24504661  0.52666584  0.55908060  1  0  0.413719  0  0.89168  0  0  0.383653  0  0.955017  0  0  0.395034  0  0.937947  0  0  0.290843  0.375548  0  0.967165  0
H  H17  1  0.25495565  0.44091925  0.47333051  1  0  0.413665  0  0.891751  0  0  0.383595  0  0.955097  0  0  0.394976  0  0.938027  0  0  0.290808  0.37549  0  0.967245  0
H  H18  1  0.95188022  0.11157264  0.38565591  1  0  0.131801  0  0.938999  0  0  0.142132  0  0.997417  0  0  0.146148  0  0.994258  0  0  0.126153  0.139257  0  0.999905  0
H  H19  1  0.54812225  0.61434368  0.88842700  1  0  0.131814  0  0.938992  0  0  0.142135  0  0.997425  0  0  0.146149  0  0.99427  0  0  0.126163  0.13926  0  0.999909  0
H  H20  1  0.04811200  0.88842801  0.61433914  1  0  0.13174  0  0.939069  0  0  0.142084  0  0.997468  0  0  0.146099  0  0.99431  0  0  0.126117  0.139212  0  0.999951  0
H  H21  1  0.45188366  0.38565700  0.11156891  1  0  0.131725  0  0.939054  0  0  0.142055  0  0.997482  0  0  0.146068  0  0.994327  0  0  0.126124  0.13918  0  0.999964  0
H  H22  1  0.17424841  0.95291366  0.28491041  1  0  0.104975  0  0.949334  0  0  0.116931  0  1.005124  0  0  0.120226  0  1.002568  0  0  0.119589  0.114404  0  1.007232  0
H  H23  1  0.32573028  0.71509245  0.04708386  1  0  0.104977  0  0.949236  0  0  0.116956  0  1.005015  0  0  0.120243  0  1.002467  0  0  0.119588  0.114445  0  1.007103  0
H  H24  1  0.82573077  0.04708521  0.71508824  1  0  0.104989  0  0.949207  0  0  0.116936  0  1.005002  0  0  0.120229  0  1.002443  0  0  0.119561  0.114411  0  1.007114  0
H  H25  1  0.67427660  0.28490558  0.95291504  1  0  0.104978  0  0.949181  0  0  0.116945  0  1.004979  0  0  0.120234  0  1.002432  0  0  0.11958  0.114422  0  1.007084  0
H  H26  1  0.34985534  0.00924555  0.07506461  1  0  0.124684  0  0.954608  0  0  0.130832  0  1.021506  0  0  0.135243  0  1.018362  0  0  0.116141  0.127668  0  1.023744  0
H  H27  1  0.15012956  0.92493935  0.99074251  1  0  0.124716  0  0.954601  0  0  0.130838  0  1.021532  0  0  0.13525  0  1.018388  0  0  0.116133  0.127675  0  1.023765  0
H  H28  1  0.65013568  0.99074720  0.92493269  1  0  0.124733  0  0.95454  0  0  0.130848  0  1.021475  0  0  0.135258  0  1.018337  0  0  0.116132  0.127687  0  1.023707  0
H  H29  1  0.84987184  0.07505867  0.00925902  1  0  0.124744  0  0.954576  0  0  0.130871  0  1.021493  0  0  0.135284  0  1.018343  0  0  0.116138  0.127708  0  1.023727  0
C  C30  1  0.99586320  0.24647034  0.23110961  1  0  0.09209  0  3.769958  0  0  0.100815  0  4.019362  0  0  0.101601  0  4.039274  0  0  0.118994  0.099857  0  4.006216  0
C  C31  1  0.50413604  0.76889185  0.75352945  1  0  0.092089  0  3.769978  0  0  0.100816  0  4.019362  0  0  0.10159  0  4.039291  0  0  0.118965  0.099913  0  4.006128  0
C  C32  1  0.00413482  0.75352943  0.76888959  1  0  0.092096  0  3.770006  0  0  0.100846  0  4.019384  0  0  0.10162  0  4.039314  0  0  0.119022  0.099894  0  4.006231  0
C  C33  1  0.49586165  0.23110879  0.24647123  1  0  0.09213  0  3.769918  0  0  0.100871  0  4.019316  0  0  0.10164  0  4.039249  0  0  0.118992  0.099971  0  4.006085  0
C  C34  1  0.02652125  0.13138332  0.29438970  1  0  -0.081036  0  3.628994  0  0  -0.109006  0  3.87869  0  0  -0.111918  0  3.896281  0  0  -0.055682  -0.106896  0  3.866793  0
C  C35  1  0.47347906  0.70561229  0.86861498  1  0  -0.081033  0  3.628879  0  0  -0.108991  0  3.87857  0  0  -0.1119  0  3.896166  0  0  -0.055663  -0.106897  0  3.866648  0
C  C36  1  0.97347918  0.86861734  0.70560637  1  0  -0.080943  0  3.628953  0  0  -0.108961  0  3.878657  0  0  -0.11187  0  3.896253  0  0  -0.055628  -0.106854  0  3.86676  0
C  C37  1  0.52652378  0.29438925  0.13138373  1  0  -0.080966  0  3.628901  0  0  -0.10893  0  3.878596  0  0  -0.111836  0  3.896198  0  0  -0.055639  -0.106836  0  3.86667  0
C  C38  1  0.15238201  0.04365735  0.23778956  1  0  0.020931  0  3.647981  0  0  0.004526  0  3.897566  0  0  0.006783  0  3.913684  0  0  -0.045434  0.003294  0  3.88651  0
C  C39  1  0.34761050  0.76221147  0.95634057  1  0  0.020917  0  3.647832  0  0  0.004478  0  3.897464  0  0  0.006749  0  3.913572  0  0  -0.045455  0.003233  0  3.886398  0
C  C40  1  0.84761770  0.95634154  0.76220956  1  0  0.020792  0  3.647831  0  0  0.004444  0  3.897373  0  0  0.006712  0  3.91349  0  0  -0.045475  0.003208  0  3.886326  0
C  C41  1  0.65239025  0.23778830  0.04366062  1  0  0.020961  0  3.647832  0  0  0.004543  0  3.897429  0  0  0.006813  0  3.913533  0  0  -0.045438  0.003305  0  3.886374  0
C  C42  1  0.24591953  0.07430190  0.12136740  1  0  -0.084233  0  3.62923  0  0  -0.108316  0  3.875548  0  0  -0.111061  0  3.892554  0  0  -0.057632  -0.10653  0  3.864314  0
C  C43  1  0.25407223  0.87863371  0.92569468  1  0  -0.08423  0  3.629265  0  0  -0.108325  0  3.875601  0  0  -0.111071  0  3.892604  0  0  -0.057639  -0.106534  0  3.864367  0
C  C44  1  0.75407704  0.92569436  0.87863048  1  0  -0.084201  0  3.629173  0  0  -0.108329  0  3.875461  0  0  -0.111075  0  3.892465  0  0  -0.057642  -0.106542  0  3.864226  0
C  C45  1  0.74592820  0.12136693  0.07430717  1  0  -0.084415  0  3.62925  0  0  -0.108492  0  3.875614  0  0  -0.111233  0  3.89262  0  0  -0.057699  -0.106703  0  3.864378  0
C  C46  1  0.20444493  0.19146745  0.06442082  1  0  0.108051  0  3.759395  0  0  0.116318  0  4.004569  0  0  0.11793  0  4.023505  0  0  0.124654  0.114968  0  3.991968  0
C  C47  1  0.29555628  0.93558245  0.80852977  1  0  0.10795  0  3.759393  0  0  0.116264  0  4.004492  0  0  0.117882  0  4.023423  0  0  0.124637  0.114907  0  3.991897  0
C  C48  1  0.79555744  0.80852794  0.93557790  1  0  0.108007  0  3.75938  0  0  0.116357  0  4.004396  0  0  0.117973  0  4.02333  0  0  0.124728  0.11501  0  3.99179  0
C  C49  1  0.70444004  0.06441818  0.19147363  1  0  0.108141  0  3.759151  0  0  0.11638  0  4.004355  0  0  0.117992  0  4.023282  0  0  0.124759  0.115029  0  3.991755  0
C  C50  1  0.87210557  0.34957410  0.28238670  1  0  0.642175  0  3.897888  0  0  0.596357  0  4.195727  0  0  0.632062  0  4.186066  0  0  0.229749  0.572099  0  4.201396  0
C  C51  1  0.62789840  0.71761147  0.65042842  1  0  0.642195  0  3.897933  0  0  0.596402  0  4.195718  0  0  0.632113  0  4.186053  0  0  0.22972  0.572136  0  4.201373  0
C  C52  1  0.12789486  0.65042656  0.71761184  1  0  0.642166  0  3.89794  0  0  0.596354  0  4.19576  0  0  0.632063  0  4.186097  0  0  0.22971  0.57209  0  4.201434  0
C  C53  1  0.37209897  0.28239005  0.34957292  1  0  0.642204  0  3.897971  0  0  0.596367  0  4.195839  0  0  0.632079  0  4.186178  0  0  0.229706  0.572092  0  4.201506  0
C  C54  1  0.29524293  0.23527505  0.93975593  1  0  0.630084  0  3.925779  0  0  0.58766  0  4.22529  0  0  0.622853  0  4.215283  0  0  0.217359  0.563631  0  4.231242  0
C  C55  1  0.20476354  0.06025274  0.76472492  1  0  0.630096  0  3.926171  0  0  0.587708  0  4.225604  0  0  0.622896  0  4.215593  0  0  0.217334  0.56368  0  4.231559  0
C  C56  1  0.70475879  0.76472208  0.06024907  1  0  0.630292  0  3.92622  0  0  0.587932  0  4.225582  0  0  0.623121  0  4.215562  0  0  0.217486  0.5639  0  4.231535  0
C  C57  1  0.79523520  0.93974877  0.23527948  1  0  0.630395  0  3.925915  0  0  0.588022  0  4.225359  0  0  0.623219  0  4.215321  0  0  0.217448  0.563989  0  4.231314  0
N  N58  1  0.08045659  0.27576580  0.11758576  1  0  -0.389476  0  3.289553  0  0  -0.36851  0  3.562085  0  0  -0.388984  0  3.591369  0  0  -0.332787  -0.354288  0  3.542083  0
N  N59  1  0.41954565  0.88241442  0.72423225  1  0  -0.389482  0  3.289546  0  0  -0.368534  0  3.562062  0  0  -0.388999  0  3.591349  0  0  -0.332764  -0.354325  0  3.542043  0
N  N60  1  0.91954135  0.72423047  0.88241188  1  0  -0.389482  0  3.289656  0  0  -0.368563  0  3.562164  0  0  -0.389028  0  3.591448  0  0  -0.332817  -0.354342  0  3.542158  0
N  N61  1  0.58045340  0.11758623  0.27576819  1  0  -0.389549  0  3.28954  0  0  -0.368581  0  3.562085  0  0  -0.389042  0  3.591369  0  0  -0.332793  -0.354372  0  3.542063  0
O  O62  1  0.85619759  0.44736056  0.20883826  1  0  -0.663706  0  2.105067  0  0  -0.640899  0  2.377612  0  0  -0.675273  0  2.373889  0  0  -0.370275  -0.616426  0  2.378981  0
O  O63  1  0.64380711  0.79115963  0.55263896  1  0  -0.663728  0  2.104966  0  0  -0.640924  0  2.377476  0  0  -0.675295  0  2.373757  0  0  -0.370244  -0.616438  0  2.378822  0
O  O64  1  0.14380929  0.55263748  0.79115899  1  0  -0.663672  0  2.10499  0  0  -0.640863  0  2.377512  0  0  -0.675247  0  2.373807  0  0  -0.370226  -0.616392  0  2.378889  0
O  O65  1  0.35618518  0.20884451  0.44736426  1  0  -0.663713  0  2.104972  0  0  -0.640915  0  2.377546  0  0  -0.675271  0  2.373793  0  0  -0.370232  -0.616434  0  2.378915  0
O  O66  1  0.20361279  0.66275552  0.60953320  1  0  -0.618289  0  1.978263  0  0  -0.563135  0  2.195467  0  0  -0.588443  0  2.184512  0  0  -0.317978  -0.545275  0  2.202436  0
O  O67  1  0.29638511  0.39046867  0.33724139  1  0  -0.618343  0  1.978352  0  0  -0.56317  0  2.195568  0  0  -0.588481  0  2.184612  0  0  -0.317984  -0.545311  0  2.20254  0
O  O68  1  0.79639005  0.33724602  0.39046304  1  0  -0.618265  0  1.978238  0  0  -0.563098  0  2.195447  0  0  -0.588408  0  2.184492  0  0  -0.317965  -0.545243  0  2.202407  0
O  O69  1  0.70361539  0.60953550  0.66275541  1  0  -0.618262  0  1.978374  0  0  -0.563116  0  2.19557  0  0  -0.588422  0  2.184613  0  0  -0.31794  -0.545262  0  2.202537  0
O  O70  1  0.22749001  0.34599715  0.90168969  1  0  -0.715561  0  2.125021  0  0  -0.689808  0  2.396921  0  0  -0.725178  0  2.392347  0  0  -0.392411  -0.664355  0  2.398723  0
O  O71  1  0.27251893  0.09831703  0.65400045  1  0  -0.715604  0  2.125057  0  0  -0.689866  0  2.396911  0  0  -0.725235  0  2.392347  0  0  -0.39244  -0.664407  0  2.398715  0
O  O72  1  0.77251646  0.65399824  0.09831326  1  0  -0.715694  0  2.125124  0  0  -0.689974  0  2.396958  0  0  -0.725357  0  2.39242  0  0  -0.392512  -0.664518  0  2.398758  0
O  O73  1  0.72748013  0.90168361  0.34600329  1  0  -0.715774  0  2.125176  0  0  -0.690027  0  2.397007  0  0  -0.725407  0  2.392462  0  0  -0.392494  -0.664568  0  2.39881  0
O  O74  1  0.57584252  0.83012716  0.11837342  1  0  -0.588402  0  1.917847  0  0  -0.55098  0  2.140472  0  0  -0.575155  0  2.133941  0  0  -0.347943  -0.533742  0  2.144304  0
O  O75  1  0.92415878  0.88162175  0.16987716  1  0  -0.588444  0  1.917539  0  0  -0.551008  0  2.140187  0  0  -0.575181  0  2.13364  0  0  -0.347924  -0.533768  0  2.144015  0
O  O76  1  0.42417789  0.16986385  0.88162983  1  0  -0.588346  0  1.917239  0  0  -0.550891  0  2.139921  0  0  -0.57505  0  2.133351  0  0  -0.347886  -0.533649  0  2.143747  0
O  O77  1  0.07584204  0.11838151  0.83013054  1  0  -0.588292  0  1.91764  0  0  -0.550875  0  2.140321  0  0  -0.575047  0  2.133777  0  0  -0.347877  -0.533633  0  2.144151  0
O  O78  1  0.18880466  0.53123759  0.04209366  1  0  -0.73697  0  1.620279  0  0  -0.743624  0  1.937524  0  0  -0.765345  0  1.923917  0  0  -0.794373  -0.730478  0  1.947185  0
O  O79  1  0.31118721  0.95790753  0.46877294  1  0  -0.737105  0  1.620148  0  0  -0.743783  0  1.937407  0  0  -0.765497  0  1.92382  0  0  -0.794377  -0.730614  0  1.947071  0
O  O80  1  0.81119303  0.46876305  0.95790702  1  0  -0.736968  0  1.620211  0  0  -0.743619  0  1.937435  0  0  -0.765338  0  1.923838  0  0  -0.79433  -0.730464  0  1.947091  0
O  O81  1  0.68881402  0.04209839  0.53122493  1  0  -0.737031  0  1.62048  0  0  -0.743695  0  1.937741  0  0  -0.765428  0  1.924192  0  0  -0.794379  -0.730519  0  1.947379  0
O  O82  1  0.43918516  0.58465872  0.22326846  1  0  -0.906324  0  1.801857  0  0  -0.863773  0  1.966897  0  0  -0.881419  0  1.935501  0  0  -0.72228  -0.85108  0  1.988808  0
O  O83  1  0.06081094  0.77673213  0.41534572  1  0  -0.906265  0  1.801923  0  0  -0.863711  0  1.966947  0  0  -0.881357  0  1.935553  0  0  -0.722251  -0.85101  0  1.988864  0
O  O84  1  0.56081841  0.41534458  0.77672885  1  0  -0.906344  0  1.801814  0  0  -0.863782  0  1.96686  0  0  -0.881432  0  1.935463  0  0  -0.722257  -0.851084  0  1.988787  0
O  O85  1  0.93918812  0.22326852  0.58465307  1  0  -0.906269  0  1.801905  0  0  -0.863715  0  1.966925  0  0  -0.881364  0  1.935527  0  0  -0.722236  -0.851001  0  1.98888  0
O  O86  1  0.74999968  0.55419207  0.44580988  1  0  -0.92316  0  1.815613  0  0  -0.878424  0  1.985864  0  0  -0.895476  0  1.950633  0  0  -0.748302  -0.866275  0  2.010745  0
O  O87  1  0.25000075  0.44580858  0.55418949  1  0  -0.923155  0  1.815608  0  0  -0.878414  0  1.985868  0  0  -0.895467  0  1.950636  0  0  -0.748293  -0.866265  0  2.010758  0
