# generated using pymatgen
data_Al3H4C42I5N5O14
_symmetry_space_group_name_H-M   'P 1'
_cell_length_a   13.01017120
_cell_length_b   13.41244555
_cell_length_c   28.44492984
_cell_angle_alpha   90.38512952
_cell_angle_beta   90.35188161
_cell_angle_gamma   60.78551921
_symmetry_Int_Tables_number   1
_chemical_formula_structural   Al3H4C42I5N5O14
_chemical_formula_sum   'Al6 H8 C84 I10 N10 O28'
_cell_volume   4332.09349748
_cell_formula_units_Z   2
loop_
 _symmetry_equiv_pos_site_id
 _symmetry_equiv_pos_as_xyz
  1  'x, y, z'
loop_
 _atom_site_type_symbol
 _atom_site_label
 _atom_site_symmetry_multiplicity
 _atom_site_fract_x
 _atom_site_fract_y
 _atom_site_fract_z
 _atom_site_occupancy
 _atom_site_pbe_bader_charge
 _atom_site_pbe_bader_spin_density
 _atom_site_pbe_cm5_charge
 _atom_site_pbe_ddec_charge
 _atom_site_pbe_ddec_spin_density
 _atom_site_pbe_ddec_sum_bond_order
 _atom_site_pbe_magmom
Al  Al0  1  0.58190577  0.58653102  0.50025476  1  2.492847  0  0.406228  1.680819  0  2.557789  0
Al  Al1  1  0.33695143  0.58325233  0.50140083  1  2.481125  0  0.51438  1.659366  0  2.505453  0
Al  Al2  1  0.56009915  0.35709564  0.50069591  1  2.477602  0  0.509839  1.658371  0  2.51453  0
Al  Al3  1  0.09204472  0.07516071  0.99914382  1  2.494501  0  0.401702  1.679745  0  2.560682  0
Al  Al4  1  0.08967963  0.31654646  0.00016210  1  2.477757  0  0.507997  1.658329  0  2.517668  0
Al  Al5  1  0.32377279  0.10194644  0.99946578  1  2.479845  0  0.514606  1.659423  0  2.505846  0
H  H6  1  0.19932216  0.54918736  0.21264026  1  0.156268  0  0.102858  0.112011  0  1.03009  0
H  H7  1  0.13315498  0.41527115  0.78717242  1  0.094174  0  0.11867  0.129078  0  0.965412  0
H  H8  1  0.14912846  0.42467641  0.70002738  1  0.094057  0  0.118742  0.130063  0  0.961778  0
H  H9  1  0.01312329  0.15848052  0.78521599  1  0.120969  0  0.121698  0.143758  0  0.961236  0
H  H10  1  0.26870291  0.75684522  0.80539739  1  0.07424  0  0.117439  0.137648  0  0.969611  0
H  H11  1  0.81777041  0.48962959  0.21115779  1  0.134369  0  0.129442  0.146264  0  0.954277  0
H  H12  1  0.68206006  0.67752147  0.46982364  1  0.588737  0  0.302818  0.400012  0  0.897707  0
H  H13  1  0.97807579  0.99593673  0.02646827  1  0.58119  0  0.298733  0.392317  0  0.909324  0
C  C14  1  0.38038271  0.70504345  0.43252601  1  1.696864  0  0.284734  0.701665  0  4.161825  0
C  C15  1  0.34831889  0.39376530  0.38685813  1  0.280401  0  -0.013192  -0.151561  0  3.892141  0
C  C16  1  0.27163634  0.29302075  0.23971601  1  -0.13412  0  -0.036444  0.002469  0  3.559424  0
C  C17  1  0.31214605  0.34923138  0.19976925  1  0.13912  0  0.020725  0.105877  0  3.778043  0
C  C18  1  0.38976413  0.25590916  0.26760659  1  -0.133651  0  -0.038838  -0.028581  0  3.610433  0
C  C19  1  0.32909502  0.37296914  0.29583180  1  0.137561  0  0.016643  0.083321  0  3.795183  0
C  C20  1  0.43084032  0.31052920  0.22826988  1  0.115747  0  0.03212  0.027549  0  3.754314  0
C  C21  1  0.37076194  0.42826530  0.25592062  1  0.125481  0  0.037981  0.047463  0  3.727666  0
C  C22  1  0.30460779  0.33288455  0.15104495  1  -0.125211  0  -0.014555  -0.00904  0  4.037692  0
C  C23  1  0.33895353  0.38510319  0.34463942  1  -0.466758  0  -0.017077  -0.01016  0  4.063626  0
C  C24  1  0.75092642  0.34506041  0.38843260  1  0.057354  0  0.00264  -0.113913  0  3.859607  0
C  C25  1  0.37192534  0.41287304  0.43455392  1  1.66207  0  0.290816  0.719127  0  4.145196  0
C  C26  1  0.83281622  0.22254893  0.27209209  1  0.164634  0  0.035211  0.012023  0  3.995913  0
C  C27  1  0.85969265  0.21854861  0.22397465  1  0.084991  0  0.038431  0.015386  0  3.990607  0
C  C28  1  0.82110844  0.41551676  0.22804264  1  0.099533  0  -0.046139  -0.127811  0  3.877444  0
C  C29  1  0.79698042  0.41881205  0.27586752  1  0.048139  0  0.026899  0.040831  0  4.06171  0
C  C30  1  0.80211220  0.32267380  0.29875046  1  0.148588  0  0.035618  0.082756  0  4.031897  0
C  C31  1  0.85273582  0.31608795  0.20164266  1  0.138422  0  0.024509  0.109705  0  4.087543  0
C  C32  1  0.88101096  0.31076575  0.15366719  1  -0.15344  0  -0.015535  -0.029166  0  4.07841  0
C  C33  1  0.77629991  0.32946929  0.34694322  1  -0.18262  0  -0.015726  -0.034808  0  4.082069  0
C  C34  1  0.90937362  0.30116517  0.11254568  1  -0.085957  0  -0.009326  -0.138008  0  3.888717  0
C  C35  1  0.35224181  0.75112203  0.38556081  1  -0.127206  0  0.006209  -0.106403  0  3.831422  0
C  C36  1  0.70110912  0.37699217  0.43477407  1  1.648115  0  0.282221  0.697988  0  4.17117  0
C  C37  1  0.42695451  0.82750955  0.27804824  1  0.159539  0  0.032885  0.003956  0  4.002495  0
C  C38  1  0.42997813  0.84704824  0.22955347  1  0.140981  0  0.035437  0.020393  0  3.993665  0
C  C39  1  0.27468981  0.79770450  0.21497729  1  -0.182708  0  -0.022819  -0.017295  0  3.846085  0
C  C40  1  0.27160568  0.77840977  0.26337137  1  0.168106  0  0.01587  0.000564  0  4.044924  0
C  C41  1  0.34590438  0.79508117  0.29555010  1  0.108128  0  0.038327  0.100303  0  4.021989  0
C  C42  1  0.35113228  0.83639439  0.19775376  1  0.13514  0  0.013001  0.074906  0  4.068561  0
C  C43  1  0.34634513  0.86882115  0.15043133  1  -0.114492  0  -0.029422  -0.043692  0  4.113366  0
C  C44  1  0.34501207  0.77340751  0.34384807  1  -0.063093  0  -0.012832  -0.030247  0  4.061837  0
C  C45  1  0.33391206  0.90573696  0.11057493  1  -0.100276  0  -0.005167  -0.123474  0  3.861685  0
C  C46  1  0.35051301  0.37218202  0.60958712  1  0.334249  0  -0.028034  -0.179376  0  3.890572  0
C  C47  1  0.37366992  0.71666589  0.56551475  1  1.629322  0  0.283918  0.712132  0  4.14505  0
C  C48  1  0.44210642  0.29741629  0.72896963  1  -0.151557  0  -0.046721  -0.022208  0  3.865275  0
C  C49  1  0.43278797  0.29455949  0.77794584  1  -0.252222  0  -0.049018  -0.024649  0  3.870598  0
C  C50  1  0.21871071  0.38319212  0.77046558  1  0.03878  0  -0.071698  -0.102193  0  3.944494  0
C  C51  1  0.22758871  0.38790053  0.72218793  1  -0.021666  0  -0.075795  -0.105847  0  3.951678  0
C  C52  1  0.33857040  0.34559989  0.70062305  1  0.088995  0  -0.002925  0.093551  0  4.101479  0
C  C53  1  0.32039834  0.33638460  0.79914183  1  0.18501  0  -0.001877  0.094989  0  4.09896  0
C  C54  1  0.30751850  0.32584712  0.84789028  1  -0.276129  0  -0.014371  -0.003889  0  4.08079  0
C  C55  1  0.34542653  0.35655393  0.65150800  1  -0.52716  0  -0.015827  -0.003334  0  4.079641  0
C  C56  1  0.29072643  0.31364132  0.88907626  1  0.025364  0  -0.026535  -0.176012  0  3.901445  0
C  C57  1  0.76584615  0.35449391  0.61007946  1  -0.0235  0  -0.003344  -0.119436  0  3.860609  0
C  C58  1  0.37771809  0.39954727  0.56431030  1  1.650048  0  0.288367  0.724933  0  4.135985  0
C  C59  1  0.75006394  0.42265667  0.72761289  1  0.162377  0  0.029802  0.009455  0  4.008897  0
C  C60  1  0.76591572  0.42015883  0.77670475  1  0.101282  0  0.025851  -0.006425  0  4.016638  0
C  C61  1  0.94022949  0.23222410  0.76862927  1  -0.021814  0  -0.069396  -0.13585  0  3.908884  0
C  C62  1  0.92454983  0.23519659  0.72014510  1  -0.179822  0  -0.036222  0.016575  0  3.908326  0
C  C63  1  0.82879792  0.33022954  0.69863027  1  0.166123  0  0.008569  0.066846  0  4.084804  0
C  C64  1  0.86209232  0.32361617  0.79740985  1  0.134398  0  0.02134  0.114937  0  4.086656  0
C  C65  1  0.88256502  0.31659594  0.84627754  1  -0.139589  0  -0.014908  -0.030045  0  4.072711  0
C  C66  1  0.80335716  0.33652914  0.65021490  1  -0.241479  0  -0.029519  -0.043677  0  4.120759  0
C  C67  1  0.90812951  0.30310849  0.88782925  1  -0.086609  0  -0.007219  -0.13567  0  3.884249  0
C  C68  1  0.34584381  0.77489582  0.61001582  1  0.172413  0  -0.026442  -0.168142  0  3.885441  0
C  C69  1  0.70295887  0.38877268  0.56604610  1  1.716763  0  0.284465  0.700829  0  4.164863  0
C  C70  1  0.29974261  0.77558006  0.73238495  1  -0.183467  0  -0.039853  0.025934  0  3.894389  0
C  C71  1  0.30068175  0.79592479  0.78017409  1  0.073823  0  -0.081001  -0.14494  0  3.930925  0
C  C72  1  0.38939762  0.91675723  0.76490129  1  -0.210548  0  -0.051168  -0.024897  0  3.855777  0
C  C73  1  0.38401128  0.89964858  0.71653318  1  -0.15234  0  -0.048025  -0.011978  0  3.863857  0
C  C74  1  0.33945152  0.82807816  0.69938818  1  0.145717  0  -0.010634  0.061099  0  4.094585  0
C  C75  1  0.34471320  0.86677153  0.79709241  1  0.171285  0  0.002714  0.118489  0  4.07992  0
C  C76  1  0.33960667  0.88958964  0.84581516  1  -0.331465  0  -0.013451  0.001771  0  4.066432  0
C  C77  1  0.34042992  0.80412553  0.65101394  1  -0.361064  0  -0.028776  -0.006854  0  4.126331  0
C  C78  1  0.32782043  0.91304170  0.88760605  1  0.099979  0  -0.025712  -0.174041  0  3.899082  0
C  C79  1  0.96099103  0.27731538  0.06645769  1  1.70141  0  0.281157  0.706905  0  4.161722  0
C  C80  1  0.21129961  0.41061697  0.26686105  1  -0.145676  0  -0.039699  0.010394  0  3.583557  0
C  C81  1  0.27606306  0.28195215  0.06367244  1  1.697251  0  0.289855  0.720118  0  4.146607  0
C  C82  1  0.29752483  0.96419792  0.06608771  1  1.708405  0  0.282056  0.702641  0  4.15936  0
C  C83  1  0.96000739  0.27286600  0.93396946  1  1.707844  0  0.282842  0.70108  0  4.171037  0
C  C84  1  0.26530040  0.28654479  0.93466202  1  1.658656  0  0.284949  0.720796  0  4.141394  0
C  C85  1  0.29924774  0.96327198  0.93363281  1  1.63382  0  0.283053  0.708353  0  4.156512  0
C  C86  1  0.25292411  0.46504614  0.22816352  1  -0.01508  0  -0.057159  -0.09579  0  3.590081  0
C  C87  1  0.29749321  0.31340621  0.10963683  1  -0.094052  0  -0.018226  -0.162406  0  3.906998  0
C  C88  1  0.77149316  0.51810733  0.30277523  1  0.842274  0  0.179698  0.222624  0  4.004519  0
C  C89  1  0.50345009  0.84133616  0.31002717  1  0.852583  0  0.182912  0.222818  0  4.014724  0
C  C90  1  0.51251565  0.87750059  0.21133231  1  0.828015  0  0.172358  0.21377  0  4.0452  0
C  C91  1  0.20083356  0.73337714  0.28118652  1  0.834143  0  0.175947  0.223602  0  4.04859  0
C  C92  1  0.65174684  0.51784804  0.70680155  1  0.831685  0  0.182406  0.229809  0  4.022385  0
C  C93  1  0.68464044  0.51323310  0.80486173  1  0.868138  0  0.17597  0.224779  0  4.040503  0
C  C94  1  0.43316405  0.48933682  0.26351805  1  0.869599  0  0.182683  0.239737  0  3.983672  0
C  C95  1  0.54339702  0.26452867  0.20710785  1  0.848302  0  0.180181  0.23226  0  3.999296  0
C  C96  1  0.83517010  0.12630093  0.29399169  1  0.819412  0  0.176595  0.220512  0  4.025901  0
C  C97  1  0.89570276  0.11649448  0.19756116  1  0.867058  0  0.181301  0.23847  0  4.026261  0
I  I98  1  0.16991184  0.76812813  0.16783217  1  0.281331  0  0.206085  0.131535  0  1.545971  0
I  I99  1  0.60416962  0.23191623  0.69468402  1  0.19128  0  0.121562  0.0346  0  1.629247  0
I  I100  1  0.58051409  0.22711515  0.82229032  1  0.189161  0  0.122891  0.052821  0  1.538604  0
I  I101  1  0.04329149  0.48771094  0.29678871  1  0.203719  0  0.115222  0.025156  0  1.537531  0
I  I102  1  0.04200335  0.09706644  0.67905570  1  0.205469  0  0.134927  0.048546  0  1.445456  0
I  I103  1  0.24356528  0.66078517  0.70997642  1  0.149727  0  0.093149  -0.003279  0  1.474685  0
I  I104  1  0.46334049  0.01257696  0.79262440  1  0.178399  0  0.090173  -0.007127  0  1.699973  0
I  I105  1  0.43985887  0.97756653  0.66685558  1  0.180954  0  0.103104  0.026048  0  1.521262  0
I  I106  1  0.49733476  0.09993918  0.29988105  1  0.25139  0  0.145821  0.06955  0  1.611837  0
I  I107  1  0.19770880  0.18753673  0.22549122  1  0.134564  0  0.086554  -0.007883  0  1.4708  0
N  N108  1  0.75632029  0.59806373  0.32473327  1  -1.059773  0  -0.267176  -0.281081  0  2.704631  0
N  N109  1  0.56331536  0.85694905  0.33641732  1  -1.04761  0  -0.263995  -0.271553  0  2.727922  0
N  N110  1  0.58096348  0.90057919  0.19562697  1  -1.032119  0  -0.275992  -0.297482  0  2.665187  0
N  N111  1  0.14966271  0.68989315  0.29672139  1  -1.06482  0  -0.272465  -0.303497  0  2.74318  0
N  N112  1  0.57006564  0.59619152  0.69039416  1  -1.066049  0  -0.261954  -0.289584  0  2.753074  0
N  N113  1  0.61663782  0.59029800  0.82733825  1  -1.080165  0  -0.279683  -0.309917  0  2.674495  0
N  N114  1  0.49191542  0.53225360  0.26886215  1  -1.126501  0  -0.288804  -0.33831  0  2.749968  0
N  N115  1  0.63389124  0.23290712  0.18856022  1  -1.080179  0  -0.269305  -0.307748  0  2.757702  0
N  N116  1  0.83551886  0.04780719  0.31167963  1  -1.038408  0  -0.271195  -0.295361  0  2.663949  0
N  N117  1  0.92789622  0.03262643  0.17567675  1  -1.076821  0  -0.274904  -0.308671  0  2.729747  0
O  O118  1  0.68276950  0.47207299  0.45060001  1  -1.197644  0  -0.199269  -0.543351  0  2.284889  0
O  O119  1  0.30637269  0.49664597  0.54676839  1  -1.241351  0  -0.219432  -0.578636  0  2.244038  0
O  O120  1  0.47604453  0.32593324  0.54618053  1  -1.244423  0  -0.223876  -0.585644  0  2.243062  0
O  O121  1  0.67593779  0.31725186  0.54706700  1  -1.243943  0  -0.23379  -0.594951  0  2.245961  0
O  O122  1  0.49248980  0.50754952  0.50051756  1  -1.607924  0  -0.390481  -1.276673  0  2.292656  0
O  O123  1  0.19455305  0.99038868  0.05302088  1  -1.203199  0  -0.202526  -0.550733  0  2.299843  0
O  O124  1  0.98222933  0.18407367  0.04744454  1  -1.210152  0  -0.203344  -0.55291  0  2.283057  0
O  O125  1  0.98523323  0.35266767  0.04979342  1  -1.245061  0  -0.236332  -0.5947  0  2.229807  0
O  O126  1  0.17937091  0.35165676  0.04364307  1  -1.240712  0  -0.220981  -0.581349  0  2.250586  0
O  O127  1  0.35217268  0.18442156  0.04766414  1  -1.246848  0  -0.217437  -0.570936  0  2.2366  0
O  O128  1  0.37024176  0.98753826  0.04489329  1  -1.242226  0  -0.233185  -0.588205  0  2.228401  0
O  O129  1  0.48371173  0.67489450  0.44635120  1  -1.201113  0  -0.197962  -0.545079  0  2.296649  0
O  O130  1  0.20548964  0.97658370  0.95233424  1  -1.217898  0  -0.200089  -0.536392  0  2.276321  0
O  O131  1  0.99722726  0.17089059  0.94626243  1  -1.204136  0  -0.195248  -0.531425  0  2.288248  0
O  O132  1  0.96840350  0.35124554  0.95731839  1  -1.249495  0  -0.235308  -0.594273  0  2.232933  0
O  O133  1  0.16215681  0.35288213  0.95101912  1  -1.245998  0  -0.22645  -0.588563  0  2.243441  0
O  O134  1  0.34427532  0.19622387  0.95468399  1  -1.243175  0  -0.222156  -0.583116  0  2.242784  0
O  O135  1  0.37012608  0.99551574  0.95141457  1  -1.250128  0  -0.238658  -0.602697  0  2.229492  0
O  O136  1  0.16883784  0.16599206  0.00008401  1  -1.606644  0  -0.391299  -1.277008  0  2.300037  0
O  O137  1  0.30090195  0.69432533  0.45496021  1  -1.246057  0  -0.233403  -0.590566  0  2.231841  0
O  O138  1  0.29853386  0.50754300  0.45369602  1  -1.241241  0  -0.219664  -0.573324  0  2.237488  0
O  O139  1  0.46754030  0.33655671  0.45300686  1  -1.235181  0  -0.21972  -0.577468  0  2.250149  0
O  O140  1  0.67486398  0.30622565  0.45476088  1  -1.242886  0  -0.234238  -0.589066  0  2.227423  0
O  O141  1  0.67660681  0.48689808  0.55157891  1  -1.202149  0  -0.189258  -0.51634  0  2.278429  0
O  O142  1  0.47205178  0.69098241  0.54756953  1  -1.211486  0  -0.197154  -0.535652  0  2.272918  0
O  O143  1  0.29686522  0.69115498  0.54842460  1  -1.253633  0  -0.241491  -0.607138  0  2.227939  0
O  O144  1  0.66521945  0.65614636  0.50002942  1  -1.351765  0  -0.565573  -0.986437  0  1.776984  0
O  O145  1  0.02043152  0.99390829  0.99833987  1  -1.353424  0  -0.569482  -0.986006  0  1.78397  0
