# generated using pymatgen
data_CdH6C3(NO)4
_symmetry_space_group_name_H-M   'P 1'
_cell_length_a   7.65166177
_cell_length_b   7.65162626
_cell_length_c   13.96380780
_cell_angle_alpha   75.44770154
_cell_angle_beta   75.44778236
_cell_angle_gamma   64.50061995
_symmetry_Int_Tables_number   1
_chemical_formula_structural   CdH6C3(NO)4
_chemical_formula_sum   'Cd4 H24 C12 N16 O16'
_cell_volume   704.59197783
_cell_formula_units_Z   4
loop_
 _symmetry_equiv_pos_site_id
 _symmetry_equiv_pos_as_xyz
  1  'x, y, z'
loop_
 _atom_site_type_symbol
 _atom_site_label
 _atom_site_symmetry_multiplicity
 _atom_site_fract_x
 _atom_site_fract_y
 _atom_site_fract_z
 _atom_site_occupancy
 _atom_site_hle17_bader_spin_density
 _atom_site_hle17_ddec_charge
 _atom_site_hle17_ddec_spin_density
 _atom_site_hle17_ddec_sum_bond_order
 _atom_site_hle17_magmom
 _atom_site_hse06_10hf_bader_spin_density
 _atom_site_hse06_10hf_ddec_charge
 _atom_site_hse06_10hf_ddec_spin_density
 _atom_site_hse06_10hf_ddec_sum_bond_order
 _atom_site_hse06_10hf_magmom
 _atom_site_hse06_bader_spin_density
 _atom_site_hse06_ddec_charge
 _atom_site_hse06_ddec_spin_density
 _atom_site_hse06_ddec_sum_bond_order
 _atom_site_hse06_magmom
 _atom_site_pbe_bader_spin_density
 _atom_site_pbe_cm5_charge
 _atom_site_pbe_ddec_charge
 _atom_site_pbe_ddec_spin_density
 _atom_site_pbe_ddec_sum_bond_order
 _atom_site_pbe_magmom
Cd  Cd0  1  0.94790978  0.58021030  0.27469449  1  0  1.168335  0  1.675813  0  0  0.979237  0  2.127764  0  0  1.034493  0  2.073764  0  0  0.785091  0.939779  0  2.164789  0
Cd  Cd1  1  0.41979623  0.05208789  0.22530169  1  0  1.168324  0  1.675811  0  0  0.979245  0  2.127748  0  0  1.034501  0  2.073753  0  0  0.7851  0.939785  0  2.164771  0
Cd  Cd2  1  0.05208669  0.41979509  0.72530414  1  0  1.168349  0  1.675825  0  0  0.979262  0  2.127752  0  0  1.034521  0  2.073755  0  0  0.785099  0.939806  0  2.164791  0
Cd  Cd3  1  0.58020928  0.94791160  0.77469579  1  0  1.168343  0  1.675826  0  0  0.979253  0  2.127749  0  0  1.034512  0  2.073753  0  0  0.785102  0.939797  0  2.164783  0
H  H4  1  0.98972302  0.20768175  0.38597012  1  0  0.42234  0  0.861186  0  0  0.392591  0  0.935018  0  0  0.402772  0  0.920286  0  0  0.293193  0.385331  0  0.944987  0
H  H5  1  0.79231828  0.01028216  0.11402595  1  0  0.422329  0  0.861228  0  0  0.392586  0  0.935026  0  0  0.402766  0  0.920293  0  0  0.293213  0.385326  0  0.945012  0
H  H6  1  0.01027750  0.79232362  0.61402724  1  0  0.422347  0  0.861134  0  0  0.392594  0  0.935014  0  0  0.402779  0  0.920273  0  0  0.293195  0.385333  0  0.944948  0
H  H7  1  0.20768645  0.98971587  0.88597328  1  0  0.422294  0  0.861256  0  0  0.392543  0  0.935089  0  0  0.402725  0  0.920354  0  0  0.293174  0.385283  0  0.945063  0
H  H8  1  0.97753760  0.31889145  0.46784325  1  0  0.412002  0  0.876811  0  0  0.370793  0  0.969671  0  0  0.381672  0  0.953874  0  0  0.294495  0.363023  0  0.980927  0
H  H9  1  0.68110630  0.02247138  0.03215189  1  0  0.411997  0  0.876805  0  0  0.370779  0  0.969671  0  0  0.381656  0  0.953875  0  0  0.294509  0.363008  0  0.98093  0
H  H10  1  0.02246948  0.68111096  0.53215290  1  0  0.411984  0  0.87684  0  0  0.370774  0  0.969697  0  0  0.381654  0  0.9539  0  0  0.294479  0.363007  0  0.980949  0
H  H11  1  0.31889671  0.97753105  0.96784553  1  0  0.41201  0  0.876803  0  0  0.370771  0  0.969689  0  0  0.38165  0  0.953892  0  0  0.2945  0.363004  0  0.980944  0
H  H12  1  0.16082358  0.80582664  0.14273141  1  0  0.438071  0  0.854426  0  0  0.406298  0  0.91839  0  0  0.417146  0  0.902784  0  0  0.293039  0.398575  0  0.929478  0
H  H13  1  0.19417409  0.83918025  0.35726753  1  0  0.438061  0  0.854432  0  0  0.406309  0  0.918377  0  0  0.417138  0  0.902791  0  0  0.293024  0.398591  0  0.92946  0
H  H14  1  0.83918093  0.19416846  0.85726754  1  0  0.438039  0  0.854464  0  0  0.406286  0  0.918409  0  0  0.417116  0  0.902821  0  0  0.293034  0.398568  0  0.929493  0
H  H15  1  0.80582971  0.16082364  0.64273173  1  0  0.438075  0  0.85442  0  0  0.406304  0  0.918379  0  0  0.417154  0  0.902771  0  0  0.293051  0.398581  0  0.92947  0
H  H16  1  0.04951111  0.75788098  0.07580754  1  0  0.380456  0  0.946997  0  0  0.335822  0  1.033454  0  0  0.347525  0  1.01701  0  0  0.281118  0.327605  0  1.04497  0
H  H17  1  0.24212388  0.95048709  0.42419232  1  0  0.380452  0  0.947011  0  0  0.335823  0  1.033459  0  0  0.347526  0  1.017015  0  0  0.281127  0.327604  0  1.044977  0
H  H18  1  0.95049169  0.24211852  0.92419033  1  0  0.380482  0  0.946959  0  0  0.335853  0  1.033405  0  0  0.347558  0  1.01696  0  0  0.281148  0.32764  0  1.044916  0
H  H19  1  0.75788106  0.04951387  0.57580790  1  0  0.380444  0  0.947019  0  0  0.335811  0  1.033471  0  0  0.347514  0  1.017027  0  0  0.281128  0.327596  0  1.044983  0
H  H20  1  0.59804787  0.42417618  0.34861244  1  0  0.14894  0  0.923872  0  0  0.162381  0  0.982495  0  0  0.164912  0  0.981159  0  0  0.116139  0.160593  0  0.983519  0
H  H21  1  0.57583172  0.40194255  0.15138884  1  0  0.148939  0  0.923859  0  0  0.162339  0  0.982519  0  0  0.164878  0  0.981175  0  0  0.116096  0.160554  0  0.983537  0
H  H22  1  0.40194455  0.57582924  0.65139176  1  0  0.148901  0  0.923888  0  0  0.162324  0  0.982519  0  0  0.164841  0  0.981197  0  0  0.116109  0.160543  0  0.983536  0
H  H23  1  0.42417123  0.59804962  0.84861001  1  0  0.148889  0  0.923857  0  0  0.162289  0  0.982538  0  0  0.164805  0  0.981218  0  0  0.116105  0.160505  0  0.983556  0
H  H24  1  0.45813352  0.38589771  0.46550869  1  0  0.146298  0  0.905841  0  0  0.159573  0  0.961047  0  0  0.162365  0  0.959585  0  0  0.119737  0.157579  0  0.962209  0
H  H25  1  0.61410033  0.54186032  0.03449205  1  0  0.14632  0  0.905868  0  0  0.159563  0  0.961069  0  0  0.162357  0  0.959604  0  0  0.11976  0.157571  0  0.962233  0
H  H26  1  0.54186038  0.61410036  0.53449275  1  0  0.146288  0  0.905893  0  0  0.159537  0  0.961101  0  0  0.162331  0  0.959636  0  0  0.119734  0.157547  0  0.962264  0
H  H27  1  0.38589414  0.45813629  0.96550808  1  0  0.14629  0  0.905849  0  0  0.159546  0  0.961058  0  0  0.162347  0  0.959577  0  0  0.119734  0.15755  0  0.962226  0
C  C28  1  0.61137451  0.13307372  0.39632752  1  0  0.373144  0  3.720467  0  0  0.344662  0  3.999754  0  0  0.356767  0  4.016114  0  0  0.223422  0.336522  0  3.988686  0
C  C29  1  0.86693098  0.38862319  0.10367179  1  0  0.373119  0  3.720538  0  0  0.344581  0  3.999855  0  0  0.356686  0  4.016217  0  0  0.22338  0.336442  0  3.98879  0
C  C30  1  0.38862752  0.86692432  0.60367351  1  0  0.373186  0  3.720372  0  0  0.344628  0  3.999724  0  0  0.356735  0  4.01608  0  0  0.223407  0.336492  0  3.988651  0
C  C31  1  0.13307431  0.61137337  0.89632613  1  0  0.373166  0  3.720403  0  0  0.344649  0  3.999697  0  0  0.356756  0  4.016052  0  0  0.223436  0.336515  0  3.988621  0
C  C32  1  0.49985285  0.34892916  0.38978827  1  0  -0.360542  0  3.676866  0  0  -0.398216  0  3.920615  0  0  -0.405279  0  3.92508  0  0  -0.152207  -0.393405  0  3.91761  0
C  C33  1  0.65107240  0.50014436  0.11021152  1  0  -0.36059  0  3.676809  0  0  -0.398123  0  3.920414  0  0  -0.405193  0  3.924877  0  0  -0.152204  -0.393333  0  3.91745  0
C  C34  1  0.50014647  0.65106890  0.61021385  1  0  -0.360485  0  3.676874  0  0  -0.398062  0  3.920531  0  0  -0.405114  0  3.925001  0  0  -0.152177  -0.393279  0  3.917565  0
C  C35  1  0.34892477  0.49985224  0.88978752  1  0  -0.360515  0  3.676894  0  0  -0.398074  0  3.920539  0  0  -0.405125  0  3.925013  0  0  -0.152189  -0.393279  0  3.917546  0
C  C36  1  0.31752851  0.44371649  0.34091830  1  0  0.727543  0  3.841153  0  0  0.672143  0  4.145952  0  0  0.706498  0  4.138716  0  0  0.208384  0.648745  0  4.150041  0
C  C37  1  0.55627643  0.68247184  0.15908510  1  0  0.727625  0  3.841409  0  0  0.67217  0  4.146225  0  0  0.706523  0  4.13899  0  0  0.208417  0.64877  0  4.150321  0
C  C38  1  0.68247173  0.55627570  0.65908594  1  0  0.727604  0  3.841302  0  0  0.67217  0  4.146085  0  0  0.706527  0  4.138841  0  0  0.208452  0.648781  0  4.150163  0
C  C39  1  0.44371784  0.31752184  0.84091904  1  0  0.727643  0  3.841203  0  0  0.672177  0  4.146056  0  0  0.706532  0  4.13881  0  0  0.208419  0.648784  0  4.150145  0
N  N40  1  0.63651541  0.01772320  0.33125680  1  0  -0.352863  0  3.089035  0  0  -0.300443  0  3.367719  0  0  -0.317762  0  3.384857  0  0  -0.239547  -0.288643  0  3.355925  0
N  N41  1  0.98227834  0.36348819  0.16874214  1  0  -0.352842  0  3.08901  0  0  -0.300396  0  3.367701  0  0  -0.317716  0  3.38484  0  0  -0.239544  -0.288593  0  3.355899  0
N  N42  1  0.36348433  0.98228071  0.66874374  1  0  -0.352918  0  3.089078  0  0  -0.300482  0  3.367791  0  0  -0.317802  0  3.38493  0  0  -0.239587  -0.288684  0  3.355998  0
N  N43  1  0.01771948  0.63651719  0.83125488  1  0  -0.352884  0  3.08907  0  0  -0.30047  0  3.367782  0  0  -0.317789  0  3.384922  0  0  -0.239592  -0.288671  0  3.355989  0
N  N44  1  0.75585219  0.83612161  0.36892373  1  0  -0.116738  0  3.169265  0  0  -0.072333  0  3.463693  0  0  -0.080715  0  3.479843  0  0  -0.114505  -0.066348  0  3.452465  0
N  N45  1  0.16388127  0.24415119  0.13107501  1  0  -0.116776  0  3.16921  0  0  -0.072386  0  3.463639  0  0  -0.080767  0  3.479789  0  0  -0.114503  -0.066394  0  3.452406  0
N  N46  1  0.24414890  0.16388230  0.63107591  1  0  -0.116741  0  3.169275  0  0  -0.072333  0  3.463685  0  0  -0.080711  0  3.479832  0  0  -0.114493  -0.066354  0  3.452466  0
N  N47  1  0.83611925  0.75585418  0.86892235  1  0  -0.116655  0  3.169245  0  0  -0.072241  0  3.463657  0  0  -0.080622  0  3.479808  0  0  -0.114433  -0.066257  0  3.452437  0
N  N48  1  0.80106936  0.84047919  0.45265697  1  0  -0.071315  0  3.029131  0  0  -0.054159  0  3.310997  0  0  -0.05303  0  3.323419  0  0  -0.08624  -0.054652  0  3.302566  0
N  N49  1  0.15952429  0.19892951  0.04734303  1  0  -0.071243  0  3.029029  0  0  -0.05407  0  3.310875  0  0  -0.052943  0  3.323296  0  0  -0.086215  -0.054568  0  3.302454  0
N  N50  1  0.19893095  0.15952326  0.54734298  1  0  -0.071248  0  3.029063  0  0  -0.054087  0  3.31092  0  0  -0.052959  0  3.323342  0  0  -0.086217  -0.054571  0  3.302482  0
N  N51  1  0.84047737  0.80107292  0.95265530  1  0  -0.071329  0  3.029193  0  0  -0.054183  0  3.311042  0  0  -0.053056  0  3.323466  0  0  -0.086268  -0.054677  0  3.302619  0
N  N52  1  0.71191347  0.02463366  0.47177777  1  0  -0.316394  0  3.051574  0  0  -0.270823  0  3.319651  0  0  -0.284614  0  3.332606  0  0  -0.210612  -0.26158  0  3.311018  0
N  N53  1  0.97536971  0.28808428  0.02822244  1  0  -0.316419  0  3.051679  0  0  -0.270864  0  3.319799  0  0  -0.284654  0  3.332752  0  0  -0.210609  -0.261618  0  3.311168  0
N  N54  1  0.28808798  0.97536585  0.52822313  1  0  -0.316458  0  3.05155  0  0  -0.270883  0  3.319674  0  0  -0.284674  0  3.332628  0  0  -0.210619  -0.261637  0  3.311036  0
N  N55  1  0.02463117  0.71191670  0.97177620  1  0  -0.316471  0  3.05157  0  0  -0.270898  0  3.319677  0  0  -0.28469  0  3.332633  0  0  -0.210625  -0.261652  0  3.311042  0
O  O56  1  0.19220239  0.60868957  0.36169817  1  0  -0.653918  0  2.002564  0  0  -0.590151  0  2.23825  0  0  -0.617918  0  2.229284  0  0  -0.316477  -0.570653  0  2.243806  0
O  O57  1  0.39130783  0.80777921  0.13831004  1  0  -0.65374  0  2.002818  0  0  -0.590021  0  2.23858  0  0  -0.617793  0  2.229626  0  0  -0.31638  -0.570522  0  2.244133  0
O  O58  1  0.80778398  0.39130708  0.63831023  1  0  -0.653752  0  2.002764  0  0  -0.590045  0  2.238518  0  0  -0.617815  0  2.229562  0  0  -0.31641  -0.570549  0  2.244068  0
O  O59  1  0.60867982  0.19220718  0.86169817  1  0  -0.653821  0  2.002767  0  0  -0.59007  0  2.238504  0  0  -0.617836  0  2.229539  0  0  -0.316417  -0.570577  0  2.244061  0
O  O60  1  0.91451633  0.33456006  0.41070043  1  0  -0.815271  0  1.88724  0  0  -0.756051  0  2.108203  0  0  -0.777719  0  2.075652  0  0  -0.58249  -0.740654  0  2.130364  0
O  O61  1  0.66544158  0.08548726  0.08929706  1  0  -0.815243  0  1.887304  0  0  -0.75599  0  2.108313  0  0  -0.777658  0  2.075774  0  0  -0.582512  -0.740583  0  2.130463  0
O  O62  1  0.08548555  0.66544531  0.58929818  1  0  -0.815248  0  1.887223  0  0  -0.75603  0  2.108198  0  0  -0.7777  0  2.075645  0  0  -0.582476  -0.740636  0  2.130325  0
O  O63  1  0.33456371  0.91450930  0.91070157  1  0  -0.815237  0  1.887259  0  0  -0.755976  0  2.108317  0  0  -0.777641  0  2.075773  0  0  -0.582463  -0.740571  0  2.130457  0
O  O64  1  0.29259173  0.36102960  0.27916930  1  0  -0.693009  0  2.08356  0  0  -0.614689  0  2.351447  0  0  -0.646728  0  2.339964  0  0  -0.333986  -0.592037  0  2.358343  0
O  O65  1  0.63897604  0.70741108  0.22082699  1  0  -0.693265  0  2.083674  0  0  -0.614866  0  2.351546  0  0  -0.646904  0  2.340051  0  0  -0.334079  -0.59221  0  2.358446  0
O  O66  1  0.70741285  0.63897575  0.72082894  1  0  -0.693264  0  2.083645  0  0  -0.614844  0  2.351473  0  0  -0.646889  0  2.339998  0  0  -0.334074  -0.59219  0  2.358367  0
O  O67  1  0.36102291  0.29259137  0.77916956  1  0  -0.693155  0  2.083492  0  0  -0.614791  0  2.351391  0  0  -0.646848  0  2.339945  0  0  -0.334047  -0.59214  0  2.358295  0
O  O68  1  0.03299922  0.80194558  0.14187389  1  0  -0.837065  0  1.916117  0  0  -0.766636  0  2.123484  0  0  -0.790389  0  2.088529  0  0  -0.578585  -0.749788  0  2.147729  0
O  O69  1  0.19805858  0.96700187  0.35812566  1  0  -0.837051  0  1.916147  0  0  -0.76665  0  2.123463  0  0  -0.790379  0  2.088558  0  0  -0.578562  -0.749805  0  2.147698  0
O  O70  1  0.96700359  0.19805392  0.85812397  1  0  -0.837082  0  1.916177  0  0  -0.766676  0  2.123492  0  0  -0.790405  0  2.088583  0  0  -0.578603  -0.749824  0  2.147709  0
O  O71  1  0.80194693  0.03299762  0.64187398  1  0  -0.837086  0  1.916129  0  0  -0.766649  0  2.123507  0  0  -0.790402  0  2.088549  0  0  -0.578604  -0.749801  0  2.147746  0
