# generated using pymatgen
data_CuH7C9SIN3
_symmetry_space_group_name_H-M   'P 1'
_cell_length_a   4.07522950
_cell_length_b   9.85539102
_cell_length_c   26.11366046
_cell_angle_alpha   89.99742011
_cell_angle_beta   90.00096613
_cell_angle_gamma   92.12297122
_symmetry_Int_Tables_number   1
_chemical_formula_structural   CuH7C9SIN3
_chemical_formula_sum   'Cu4 H28 C36 S4 I4 N12'
_cell_volume   1048.08255232
_cell_formula_units_Z   4
loop_
 _symmetry_equiv_pos_site_id
 _symmetry_equiv_pos_as_xyz
  1  'x, y, z'
loop_
 _atom_site_type_symbol
 _atom_site_label
 _atom_site_symmetry_multiplicity
 _atom_site_fract_x
 _atom_site_fract_y
 _atom_site_fract_z
 _atom_site_occupancy
 _atom_site_hle17_bader_spin_density
 _atom_site_hle17_ddec_charge
 _atom_site_hle17_ddec_spin_density
 _atom_site_hle17_ddec_sum_bond_order
 _atom_site_hle17_magmom
 _atom_site_hse06_10hf_bader_spin_density
 _atom_site_hse06_10hf_ddec_charge
 _atom_site_hse06_10hf_ddec_spin_density
 _atom_site_hse06_10hf_ddec_sum_bond_order
 _atom_site_hse06_10hf_magmom
 _atom_site_hse06_bader_spin_density
 _atom_site_hse06_ddec_charge
 _atom_site_hse06_ddec_spin_density
 _atom_site_hse06_ddec_sum_bond_order
 _atom_site_hse06_magmom
 _atom_site_pbe_bader_spin_density
 _atom_site_pbe_cm5_charge
 _atom_site_pbe_ddec_charge
 _atom_site_pbe_ddec_spin_density
 _atom_site_pbe_ddec_sum_bond_order
 _atom_site_pbe_magmom
Cu  Cu0  1  0.72418673  0.90112946  0.50628938  1  0  0.259404  0  2.143014  0  0  0.179687  0  2.623985  0  0  0.19172  0  2.568046  0  0  0.247637  0.173705  0  2.661387  0
Cu  Cu1  1  0.27576790  0.59889590  0.00628787  1  0  0.259398  0  2.142989  0  0  0.179611  0  2.624083  0  0  0.191726  0  2.568063  0  0  0.247613  0.17363  0  2.661503  0
Cu  Cu2  1  0.27575013  0.09886956  0.49371011  1  0  0.259408  0  2.142938  0  0  0.179649  0  2.623926  0  0  0.191742  0  2.567919  0  0  0.247605  0.173662  0  2.661334  0
Cu  Cu3  1  0.72418636  0.40112020  0.99370932  1  0  0.259333  0  2.142975  0  0  0.179581  0  2.624009  0  0  0.191595  0  2.568098  0  0  0.247627  0.173607  0  2.661418  0
H  H4  1  0.94616244  0.85349205  0.61173067  1  0  0.071175  0  0.975211  0  0  0.077449  0  1.047461  0  0  0.080341  0  1.044758  0  0  0.097134  0.075404  0  1.049194  0
H  H5  1  0.05384765  0.64649675  0.11173007  1  0  0.071336  0  0.975132  0  0  0.077548  0  1.04741  0  0  0.08044  0  1.04471  0  0  0.097144  0.075505  0  1.049142  0
H  H6  1  0.05384469  0.14650108  0.38826575  1  0  0.071271  0  0.975252  0  0  0.077529  0  1.047505  0  0  0.080422  0  1.044803  0  0  0.097171  0.075483  0  1.04924  0
H  H7  1  0.94617237  0.35350030  0.88827172  1  0  0.071213  0  0.975522  0  0  0.077512  0  1.04772  0  0  0.080405  0  1.045018  0  0  0.097182  0.075468  0  1.049454  0
H  H8  1  0.79758954  0.70014281  0.68341875  1  0  0.116596  0  0.987903  0  0  0.113207  0  1.070554  0  0  0.118073  0  1.066764  0  0  0.10368  0.11007  0  1.07285  0
H  H9  1  0.20241106  0.79984265  0.18341484  1  0  0.116646  0  0.988064  0  0  0.113304  0  1.07066  0  0  0.118175  0  1.066858  0  0  0.103733  0.11017  0  1.072961  0
H  H10  1  0.20242446  0.29984719  0.31657805  1  0  0.116669  0  0.987762  0  0  0.113299  0  1.070428  0  0  0.118182  0  1.066589  0  0  0.103725  0.110166  0  1.07272  0
H  H11  1  0.79763133  0.20015618  0.81658503  1  0  0.116549  0  0.988001  0  0  0.113133  0  1.0707  0  0  0.11802  0  1.066856  0  0  0.103658  0.109999  0  1.073004  0
H  H12  1  0.22152477  0.45646860  0.57532027  1  0  0.103136  0  0.956951  0  0  0.112887  0  1.020426  0  0  0.116275  0  1.019454  0  0  0.100794  0.110297  0  1.021201  0
H  H13  1  0.77846606  0.04353167  0.07531796  1  0  0.103133  0  0.956991  0  0  0.112918  0  1.020435  0  0  0.116306  0  1.019458  0  0  0.10077  0.11028  0  1.021264  0
H  H14  1  0.77844560  0.54352495  0.42468036  1  0  0.103173  0  0.95697  0  0  0.112934  0  1.020459  0  0  0.116322  0  1.019485  0  0  0.100791  0.110339  0  1.021241  0
H  H15  1  0.22157040  0.95647638  0.92468306  1  0  0.103183  0  0.957211  0  0  0.113006  0  1.020607  0  0  0.116394  0  1.019631  0  0  0.100776  0.11037  0  1.02144  0
H  H16  1  0.38421552  0.62492945  0.50892740  1  0  0.068707  0  0.966407  0  0  0.07568  0  1.036228  0  0  0.07839  0  1.034189  0  0  0.099034  0.073577  0  1.037713  0
H  H17  1  0.61576931  0.87508305  0.00892678  1  0  0.068658  0  0.966477  0  0  0.07564  0  1.036289  0  0  0.078349  0  1.034253  0  0  0.098966  0.073541  0  1.037768  0
H  H18  1  0.61573668  0.37507346  0.49107285  1  0  0.068775  0  0.966338  0  0  0.075721  0  1.036166  0  0  0.078428  0  1.034132  0  0  0.099021  0.073615  0  1.037665  0
H  H19  1  0.38422502  0.12492243  0.99107347  1  0  0.06868  0  0.966403  0  0  0.075637  0  1.03623  0  0  0.078346  0  1.034194  0  0  0.098992  0.073534  0  1.037721  0
H  H20  1  0.12143697  0.31836490  0.63458759  1  0  0.113377  0  0.988027  0  0  0.121103  0  1.055539  0  0  0.125395  0  1.054192  0  0  0.090364  0.117493  0  1.057374  0
H  H21  1  0.87856366  0.18162313  0.13457826  1  0  0.113387  0  0.988114  0  0  0.121117  0  1.055619  0  0  0.1254  0  1.054301  0  0  0.090397  0.117505  0  1.057449  0
H  H22  1  0.87857246  0.68162719  0.36541304  1  0  0.113333  0  0.988003  0  0  0.121085  0  1.055499  0  0  0.125375  0  1.054161  0  0  0.090375  0.117475  0  1.057332  0
H  H23  1  0.12146087  0.81838709  0.86542505  1  0  0.113345  0  0.987862  0  0  0.121066  0  1.055399  0  0  0.125353  0  1.054067  0  0  0.090388  0.117492  0  1.057193  0
H  H24  1  0.92007779  0.19662439  0.71359009  1  0  0.060781  0  0.973581  0  0  0.069098  0  1.042307  0  0  0.072163  0  1.03813  0  0  0.104949  0.066666  0  1.045487  0
H  H25  1  0.07994148  0.30336215  0.21357162  1  0  0.060664  0  0.973547  0  0  0.068902  0  1.042343  0  0  0.071957  0  1.038161  0  0  0.104867  0.066476  0  1.045517  0
H  H26  1  0.07991298  0.80337401  0.28641285  1  0  0.060774  0  0.97359  0  0  0.06909  0  1.042319  0  0  0.072155  0  1.038143  0  0  0.104938  0.066662  0  1.045498  0
H  H27  1  0.92004843  0.69664642  0.78643285  1  0  0.060625  0  0.973665  0  0  0.068993  0  1.042265  0  0  0.072073  0  1.038077  0  0  0.104848  0.066563  0  1.045446  0
H  H28  1  0.55475018  0.61886821  0.81789164  1  0  0.112119  0  0.98041  0  0  0.123938  0  1.06487  0  0  0.127401  0  1.062831  0  0  0.119122  0.121589  0  1.066036  0
H  H29  1  0.44525954  0.88113980  0.31788931  1  0  0.112129  0  0.98041  0  0  0.123904  0  1.064923  0  0  0.127374  0  1.062872  0  0  0.11912  0.121578  0  1.066063  0
H  H30  1  0.44526621  0.38113702  0.18210785  1  0  0.112168  0  0.9804  0  0  0.123962  0  1.064869  0  0  0.127435  0  1.062815  0  0  0.119146  0.121614  0  1.066033  0
H  H31  1  0.55475739  0.11885322  0.68211056  1  0  0.112097  0  0.980449  0  0  0.123851  0  1.064983  0  0  0.127319  0  1.062937  0  0  0.119121  0.121526  0  1.066121  0
C  C32  1  0.78526657  0.76432312  0.60533761  1  0  0.119938  0  3.699028  0  0  0.093733  0  3.944505  0  0  0.10031  0  3.961702  0  0  0.03467  0.088702  0  3.933115  0
C  C33  1  0.21472086  0.73566670  0.10533289  1  0  0.119742  0  3.698962  0  0  0.093603  0  3.944438  0  0  0.100169  0  3.961646  0  0  0.034656  0.088572  0  3.933049  0
C  C34  1  0.21471345  0.23566931  0.39465881  1  0  0.119816  0  3.698998  0  0  0.093618  0  3.944465  0  0  0.100189  0  3.961673  0  0  0.034638  0.088585  0  3.933079  0
C  C35  1  0.78531299  0.26434036  0.89466392  1  0  0.119817  0  3.698628  0  0  0.093572  0  3.94412  0  0  0.100142  0  3.961309  0  0  0.034622  0.088541  0  3.932736  0
C  C36  1  0.48864072  0.56483845  0.63650073  1  0  0.058469  0  3.734512  0  0  0.071321  0  3.962439  0  0  0.074293  0  3.982822  0  0  0.007265  0.068827  0  3.948674  0
C  C37  1  0.51135310  0.93515369  0.13649500  1  0  0.058292  0  3.735247  0  0  0.07109  0  3.963264  0  0  0.074043  0  3.983649  0  0  0.007077  0.068573  0  3.949468  0
C  C38  1  0.51134127  0.43515090  0.36349837  1  0  0.058228  0  3.735173  0  0  0.071238  0  3.962894  0  0  0.074206  0  3.983281  0  0  0.007193  0.068711  0  3.949108  0
C  C39  1  0.48870851  0.06485814  0.86350104  1  0  0.058603  0  3.735386  0  0  0.071171  0  3.963641  0  0  0.074132  0  3.984034  0  0  0.007129  0.068648  0  3.949842  0
C  C40  1  0.70085187  0.67736727  0.64541993  1  0  -0.127676  0  3.686381  0  0  -0.147897  0  3.936867  0  0  -0.154276  0  3.955868  0  0  -0.080453  -0.145006  0  3.925095  0
C  C41  1  0.29915158  0.82263285  0.14542240  1  0  -0.127704  0  3.686321  0  0  -0.147915  0  3.936677  0  0  -0.154285  0  3.955679  0  0  -0.080426  -0.14503  0  3.92492  0
C  C42  1  0.29915637  0.32263297  0.35457841  1  0  -0.127671  0  3.686858  0  0  -0.147952  0  3.937204  0  0  -0.154326  0  3.956218  0  0  -0.080503  -0.145062  0  3.925439  0
C  C43  1  0.70086258  0.17735816  0.85458283  1  0  -0.127627  0  3.68725  0  0  -0.147759  0  3.93778  0  0  -0.154134  0  3.956804  0  0  -0.080394  -0.14488  0  3.926027  0
C  C44  1  0.38415157  0.54248069  0.58573157  1  0  -0.152091  0  3.717186  0  0  -0.170105  0  3.962959  0  0  -0.177114  0  3.984462  0  0  -0.086325  -0.163692  0  3.946541  0
C  C45  1  0.61584466  0.95753271  0.08573455  1  0  -0.151926  0  3.71669  0  0  -0.169972  0  3.962457  0  0  -0.176963  0  3.983943  0  0  -0.086168  -0.16352  0  3.946065  0
C  C46  1  0.61583525  0.45752386  0.41426715  1  0  -0.151857  0  3.716633  0  0  -0.169959  0  3.962341  0  0  -0.176973  0  3.983846  0  0  -0.086212  -0.16354  0  3.945931  0
C  C47  1  0.38416524  0.04246242  0.91427030  1  0  -0.152097  0  3.716378  0  0  -0.170109  0  3.962176  0  0  -0.177106  0  3.983666  0  0  -0.086229  -0.163663  0  3.945788  0
C  C48  1  0.47558945  0.63582905  0.54804987  1  0  0.111287  0  3.700857  0  0  0.084691  0  3.947662  0  0  0.090894  0  3.964806  0  0  0.029282  0.080416  0  3.936378  0
C  C49  1  0.52439281  0.86416968  0.04804421  1  0  0.111223  0  3.699823  0  0  0.08463  0  3.946635  0  0  0.090818  0  3.963795  0  0  0.029328  0.080356  0  3.935334  0
C  C50  1  0.52436623  0.36416467  0.45194962  1  0  0.111123  0  3.700526  0  0  0.084544  0  3.947386  0  0  0.090754  0  3.964529  0  0  0.02929  0.080268  0  3.936083  0
C  C51  1  0.47562911  0.13583955  0.95195490  1  0  0.111157  0  3.700513  0  0  0.084601  0  3.947303  0  0  0.090786  0  3.964457  0  0  0.029362  0.080332  0  3.935994  0
C  C52  1  0.17974605  0.35919570  0.67236717  1  0  -0.234161  0  3.69939  0  0  -0.253183  0  3.949894  0  0  -0.263971  0  3.969139  0  0  -0.100492  -0.248731  0  3.939759  0
C  C53  1  0.82025195  0.14079497  0.17235684  1  0  -0.233979  0  3.699368  0  0  -0.253028  0  3.949809  0  0  -0.263821  0  3.969043  0  0  -0.100442  -0.248586  0  3.939648  0
C  C54  1  0.82025863  0.64079746  0.32763002  1  0  -0.234043  0  3.699885  0  0  -0.253116  0  3.95039  0  0  -0.263904  0  3.96964  0  0  -0.100547  -0.248695  0  3.940234  0
C  C55  1  0.17978349  0.85922224  0.82764112  1  0  -0.234018  0  3.700393  0  0  -0.253097  0  3.950907  0  0  -0.26389  0  3.970162  0  0  -0.100474  -0.248697  0  3.940714  0
C  C56  1  0.36900883  0.47932107  0.67970052  1  0  0.259363  0  3.744595  0  0  0.258072  0  3.986477  0  0  0.269023  0  4.002378  0  0  0.13312  0.250512  0  3.976703  0
C  C57  1  0.63097501  0.02066787  0.17969551  1  0  0.259127  0  3.744904  0  0  0.257874  0  3.98677  0  0  0.268831  0  4.002673  0  0  0.133021  0.250388  0  3.976883  0
C  C58  1  0.63100644  0.52067705  0.32030050  1  0  0.259291  0  3.744594  0  0  0.258  0  3.986392  0  0  0.268949  0  4.002299  0  0  0.133067  0.25054  0  3.976473  0
C  C59  1  0.36902824  0.97931615  0.82030819  1  0  0.258972  0  3.74512  0  0  0.257833  0  3.98691  0  0  0.268785  0  4.002812  0  0  0.133015  0.250375  0  3.977  0
C  C60  1  0.31828011  0.45096382  0.76646485  1  0  0.371473  0  3.802168  0  0  0.359461  0  4.086461  0  0  0.375906  0  4.098277  0  0  0.239209  0.348731  0  4.077748  0
C  C61  1  0.68171751  0.04903397  0.26646104  1  0  0.371828  0  3.801776  0  0  0.359842  0  4.086013  0  0  0.37629  0  4.097825  0  0  0.239321  0.349106  0  4.077308  0
C  C62  1  0.68173137  0.54904146  0.23353349  1  0  0.371629  0  3.802112  0  0  0.359569  0  4.086471  0  0  0.376014  0  4.098286  0  0  0.239211  0.348836  0  4.077763  0
C  C63  1  0.31829255  0.95096218  0.73354228  1  0  0.371828  0  3.802302  0  0  0.359786  0  4.086589  0  0  0.376235  0  4.098398  0  0  0.239302  0.349054  0  4.077885  0
C  C64  1  0.06642202  0.29146928  0.71612399  1  0  0.182373  0  3.732494  0  0  0.151442  0  3.995381  0  0  0.162218  0  4.008467  0  0  0.055617  0.14477  0  3.987128  0
C  C65  1  0.93357820  0.20851922  0.21611245  1  0  0.182264  0  3.732539  0  0  0.151448  0  3.995416  0  0  0.162239  0  4.008496  0  0  0.055512  0.144773  0  3.98716  0
C  C66  1  0.93358148  0.70853203  0.28387932  1  0  0.18221  0  3.732461  0  0  0.151297  0  3.995342  0  0  0.162071  0  4.008428  0  0  0.055534  0.144621  0  3.987094  0
C  C67  1  0.06641534  0.79148118  0.78389393  1  0  0.182429  0  3.732078  0  0  0.151548  0  3.994943  0  0  0.162316  0  4.008035  0  0  0.055578  0.144865  0  3.986712  0
S  S68  1  0.39713351  0.50083451  0.82986852  1  0  -0.090233  0  2.356064  0  0  -0.120126  0  2.683521  0  0  -0.127551  0  2.681664  0  0  -0.031452  -0.11655  0  2.683934  0
S  S69  1  0.60287949  0.99916999  0.32986388  1  0  -0.090307  0  2.356286  0  0  -0.120115  0  2.683698  0  0  -0.127544  0  2.681837  0  0  -0.031441  -0.116561  0  2.684085  0
S  S70  1  0.60287307  0.49917082  0.17013058  1  0  -0.090404  0  2.35616  0  0  -0.120222  0  2.683625  0  0  -0.127649  0  2.681758  0  0  -0.031526  -0.116646  0  2.684041  0
S  S71  1  0.39712796  0.00082517  0.67013561  1  0  -0.090419  0  2.35617  0  0  -0.120221  0  2.683688  0  0  -0.127645  0  2.681829  0  0  -0.031566  -0.11667  0  2.684071  0
I  I72  1  0.78029763  0.13375633  0.55730019  1  0  -0.371894  0  1.815139  0  0  -0.317125  0  2.29825  0  0  -0.333759  0  2.252594  0  0  -0.178341  -0.30265  0  2.328875  0
I  I73  1  0.21967219  0.36624836  0.05729713  1  0  -0.371954  0  1.81525  0  0  -0.317171  0  2.298425  0  0  -0.333786  0  2.252784  0  0  -0.178374  -0.302706  0  2.329052  0
I  I74  1  0.21964223  0.86623046  0.44270389  1  0  -0.371899  0  1.815152  0  0  -0.317155  0  2.298294  0  0  -0.333772  0  2.252641  0  0  -0.178336  -0.30268  0  2.328919  0
I  I75  1  0.78029416  0.63376659  0.94270044  1  0  -0.371922  0  1.815299  0  0  -0.317087  0  2.298397  0  0  -0.333723  0  2.252743  0  0  -0.178315  -0.302627  0  2.329036  0
N  N76  1  0.66806652  0.74794893  0.55733207  1  0  -0.263575  0  3.343347  0  0  -0.190118  0  3.625798  0  0  -0.202898  0  3.635383  0  0  -0.35934  -0.181547  0  3.619224  0
N  N77  1  0.33190484  0.75205187  0.05733121  1  0  -0.263384  0  3.343616  0  0  -0.189954  0  3.626085  0  0  -0.202733  0  3.635674  0  0  -0.35934  -0.181384  0  3.619512  0
N  N78  1  0.33190219  0.25204973  0.44266895  1  0  -0.263568  0  3.343385  0  0  -0.190079  0  3.625758  0  0  -0.202874  0  3.635363  0  0  -0.359335  -0.181506  0  3.619185  0
N  N79  1  0.66808284  0.24794250  0.94267096  1  0  -0.263296  0  3.343229  0  0  -0.189867  0  3.62575  0  0  -0.202623  0  3.635304  0  0  -0.359365  -0.181298  0  3.619175  0
N  N80  1  0.44332656  0.52403448  0.72743311  1  0  -0.4094  0  2.998397  0  0  -0.375683  0  3.25991  0  0  -0.391185  0  3.273544  0  0  -0.311983  -0.364756  0  3.250298  0
N  N81  1  0.55666318  0.97595910  0.22742950  1  0  -0.409458  0  2.998406  0  0  -0.375763  0  3.259908  0  0  -0.391271  0  3.273541  0  0  -0.311966  -0.364868  0  3.250304  0
N  N82  1  0.55667892  0.47596376  0.27256293  1  0  -0.409351  0  2.997918  0  0  -0.375622  0  3.259438  0  0  -0.39113  0  3.273073  0  0  -0.311822  -0.364739  0  3.249822  0
N  N83  1  0.44337368  0.02403573  0.77256615  1  0  -0.409429  0  2.998128  0  0  -0.375674  0  3.259552  0  0  -0.391191  0  3.273205  0  0  -0.311874  -0.364777  0  3.249906  0
N  N84  1  0.12851662  0.33631937  0.76345449  1  0  -0.359091  0  3.010375  0  0  -0.317443  0  3.274553  0  0  -0.331598  0  3.285934  0  0  -0.313459  -0.307733  0  3.266295  0
N  N85  1  0.87149574  0.16368065  0.26344276  1  0  -0.359152  0  3.010297  0  0  -0.317568  0  3.274505  0  0  -0.331725  0  3.28587  0  0  -0.313423  -0.307853  0  3.266247  0
N  N86  1  0.87147921  0.66367999  0.23654500  1  0  -0.359045  0  3.010091  0  0  -0.317431  0  3.274329  0  0  -0.331584  0  3.285709  0  0  -0.313423  -0.307719  0  3.26607  0
N  N87  1  0.12851346  0.83632568  0.73655558  1  0  -0.35909  0  3.009905  0  0  -0.317505  0  3.274147  0  0  -0.331657  0  3.285521  0  0  -0.313365  -0.307791  0  3.26589  0
