# generated using pymatgen
data_Ho2H37C36N7O22
_symmetry_space_group_name_H-M   'P 1'
_cell_length_a   13.63304660
_cell_length_b   13.63300094
_cell_length_c   16.17615648
_cell_angle_alpha   67.19710492
_cell_angle_beta   67.19663251
_cell_angle_gamma   75.93387610
_symmetry_Int_Tables_number   1
_chemical_formula_structural   Ho2H37C36N7O22
_chemical_formula_sum   'Ho4 H74 C72 N14 O44'
_cell_volume   2539.60184986
_cell_formula_units_Z   2
loop_
 _symmetry_equiv_pos_site_id
 _symmetry_equiv_pos_as_xyz
  1  'x, y, z'
loop_
 _atom_site_type_symbol
 _atom_site_label
 _atom_site_symmetry_multiplicity
 _atom_site_fract_x
 _atom_site_fract_y
 _atom_site_fract_z
 _atom_site_occupancy
 _atom_site_pbe_bader_charge
 _atom_site_pbe_bader_spin_density
 _atom_site_pbe_cm5_charge
 _atom_site_pbe_ddec_charge
 _atom_site_pbe_ddec_spin_density
 _atom_site_pbe_ddec_sum_bond_order
 _atom_site_pbe_magmom
Ho  Ho0  1  0.66894120  0.95131845  0.99920812  1  2.193681  0  1.531838  2.08793  0  2.157604  0
Ho  Ho1  1  0.04867843  0.33105749  0.50079504  1  2.193697  0  1.531818  2.088014  0  2.157534  0
Ho  Ho2  1  0.33105678  0.04868034  0.00079581  1  2.193629  0  1.531825  2.087965  0  2.15763  0
Ho  Ho3  1  0.95132037  0.66893965  0.49921349  1  2.193724  0  1.53185  2.087908  0  2.15769  0
H  H4  1  0.82861380  0.72972845  0.25301061  1  0.133781  0  0.119046  0.130786  0  0.991941  0
H  H5  1  0.27027462  0.17138549  0.24699209  1  0.133782  0  0.119043  0.130769  0  0.991987  0
H  H6  1  0.17138897  0.27026899  0.74699095  1  0.133699  0  0.119038  0.130756  0  0.991939  0
H  H7  1  0.72972896  0.82861582  0.75300606  1  0.133731  0  0.119018  0.130761  0  0.99193  0
H  H8  1  0.97163674  0.40450728  0.28099072  1  0.155314  0  0.124408  0.138321  0  1.002711  0
H  H9  1  0.59549564  0.02836213  0.21900794  1  0.15621  0  0.124382  0.138251  0  1.002838  0
H  H10  1  0.02836441  0.59549190  0.71900708  1  0.156203  0  0.124389  0.138297  0  1.002745  0
H  H11  1  0.40450473  0.97163321  0.78099635  1  0.156144  0  0.124404  0.138291  0  1.002796  0
H  H12  1  0.84259848  0.58695203  0.05295515  1  0.160807  0  0.120416  0.133151  0  0.995538  0
H  H13  1  0.41305210  0.15739573  0.44704829  1  0.160801  0  0.12042  0.133193  0  0.995499  0
H  H14  1  0.15739870  0.41304923  0.94704699  1  0.160825  0  0.120419  0.133182  0  0.995468  0
H  H15  1  0.58694587  0.84260147  0.55295556  1  0.160869  0  0.120415  0.133185  0  0.995444  0
H  H16  1  0.25663799  0.74336064  0.25000019  1  0.111538  0  0.114964  0.119918  0  1.025159  0
H  H17  1  0.74336236  0.25663785  0.74999873  1  0.111508  0  0.11496  0.119896  0  1.025183  0
H  H18  1  0.59092614  0.63439768  0.14500440  1  0.157264  0  0.122566  0.141944  0  0.996628  0
H  H19  1  0.36560733  0.40907653  0.35499088  1  0.157281  0  0.122585  0.14198  0  0.996627  0
H  H20  1  0.40907901  0.36560183  0.85499012  1  0.157278  0  0.122592  0.141952  0  0.996701  0
H  H21  1  0.63439944  0.59091728  0.64501302  1  0.157477  0  0.122609  0.141963  0  0.996683  0
H  H22  1  0.94826072  0.85894951  0.82959810  1  0.121991  0  0.126094  0.054573  0  1.004284  0
H  H23  1  0.14105149  0.05173910  0.67040194  1  0.121968  0  0.126116  0.054575  0  1.004311  0
H  H24  1  0.05173887  0.14105227  0.17040369  1  0.121982  0  0.126105  0.054571  0  1.004298  0
H  H25  1  0.85894889  0.94826100  0.32959891  1  0.121986  0  0.126101  0.05457  0  1.004323  0
H  H26  1  0.99256630  0.98419981  0.59577584  1  0.041072  0  0.106344  0.122949  0  1.001106  0
H  H27  1  0.01580023  0.00743754  0.90422163  1  0.041119  0  0.106322  0.122936  0  1.001039  0
H  H28  1  0.00743169  0.01580215  0.40422518  1  0.041078  0  0.106313  0.122907  0  1.000989  0
H  H29  1  0.98420337  0.99256299  0.09577925  1  0.041106  0  0.10631  0.122921  0  1.001077  0
H  H30  1  0.90417963  0.88378161  0.63793460  1  0.096228  0  0.106388  0.136193  0  1.016022  0
H  H31  1  0.11621791  0.09582714  0.86206018  1  0.096048  0  0.106424  0.136231  0  1.015938  0
H  H32  1  0.09581995  0.11622174  0.36206297  1  0.096245  0  0.106387  0.136182  0  1.015975  0
H  H33  1  0.88378167  0.90417463  0.13793914  1  0.09606  0  0.106409  0.136218  0  1.015977  0
H  H34  1  0.00899970  0.85857959  0.68498069  1  0.07578  0  0.109678  0.129643  0  1.014072  0
H  H35  1  0.14142037  0.99100316  0.81501477  1  0.075821  0  0.109651  0.12963  0  1.014098  0
H  H36  1  0.99100148  0.14142279  0.31501729  1  0.075991  0  0.10967  0.129605  0  1.014083  0
H  H37  1  0.85858000  0.00899614  0.18498635  1  0.075843  0  0.109654  0.12966  0  1.014085  0
H  H38  1  0.75433341  0.03808471  0.67800145  1  0.057673  0  0.099591  0.109867  0  1.018264  0
H  H39  1  0.96191368  0.24566924  0.82199371  1  0.057776  0  0.099617  0.109874  0  1.018218  0
H  H40  1  0.24566457  0.96191724  0.32199835  1  0.057707  0  0.09959  0.109864  0  1.018297  0
H  H41  1  0.03808428  0.75433033  0.17800626  1  0.057669  0  0.099607  0.109881  0  1.018258  0
H  H42  1  0.85170349  0.12541426  0.64713083  1  0.126579  0  0.108624  0.132454  0  1.022756  0
H  H43  1  0.87458299  0.14830120  0.85286646  1  0.126764  0  0.108622  0.132461  0  1.022754  0
H  H44  1  0.14829771  0.87458734  0.35287048  1  0.126579  0  0.108609  0.132439  0  1.022809  0
H  H45  1  0.12541575  0.85169510  0.14713495  1  0.126824  0  0.108571  0.132381  0  1.02286  0
H  H46  1  0.75753278  0.08454566  0.76588711  1  0.119843  0  0.113562  0.134903  0  1.050805  0
H  H47  1  0.91545272  0.24246868  0.73411170  1  0.119727  0  0.113535  0.13485  0  1.050831  0
H  H48  1  0.24246838  0.91545274  0.23411281  1  0.119828  0  0.113561  0.134932  0  1.05077  0
H  H49  1  0.08454762  0.75752822  0.26588837  1  0.119783  0  0.113528  0.134863  0  1.050812  0
H  H50  1  0.62271586  0.18779214  0.04289644  1  0.109049  0  0.124832  0.045241  0  1.010376  0
H  H51  1  0.81220364  0.37728776  0.45709856  1  0.109164  0  0.12489  0.045367  0  1.01033  0
H  H52  1  0.37728846  0.81220110  0.95710105  1  0.109075  0  0.124917  0.045395  0  1.01032  0
H  H53  1  0.18779593  0.62271400  0.54289953  1  0.10911  0  0.124855  0.045309  0  1.0103  0
H  H54  1  0.90635200  0.14194689  0.00439928  1  0.098897  0  0.111951  0.126487  0  1.022028  0
H  H55  1  0.85804643  0.09364738  0.49560413  1  0.098611  0  0.111957  0.126517  0  1.022096  0
H  H56  1  0.09364677  0.85805101  0.99560406  1  0.098524  0  0.11194  0.126462  0  1.022111  0
H  H57  1  0.14195237  0.90635608  0.50439613  1  0.09859  0  0.11193  0.126483  0  1.022117  0
H  H58  1  0.88581115  0.20727949  0.08832186  1  0.052295  0  0.104391  0.11689  0  1.003918  0
H  H59  1  0.79272344  0.11417801  0.41168269  1  0.052524  0  0.104435  0.116929  0  1.003955  0
H  H60  1  0.11417566  0.79272696  0.91168385  1  0.052529  0  0.104449  0.116939  0  1.003886  0
H  H61  1  0.20727455  0.88582633  0.58831569  1  0.052468  0  0.104449  0.116945  0  1.003844  0
H  H62  1  0.91301236  0.28345153  0.96661678  1  0.080759  0  0.104943  0.120157  0  0.996199  0
H  H63  1  0.71655232  0.08698637  0.53338684  1  0.080808  0  0.10491  0.120142  0  0.996223  0
H  H64  1  0.08698809  0.71655733  0.03338423  1  0.080898  0  0.104943  0.120163  0  0.996169  0
H  H65  1  0.28344967  0.91301671  0.46661125  1  0.080814  0  0.104933  0.120191  0  0.996219  0
H  H66  1  0.73101041  0.40145458  0.99954596  1  0.070638  0  0.107843  0.126327  0  0.967833  0
H  H67  1  0.59854436  0.26898671  0.50045105  1  0.070651  0  0.107841  0.126324  0  0.9678  0
H  H68  1  0.26898516  0.59855081  0.00044916  1  0.070585  0  0.107845  0.126326  0  0.96789  0
H  H69  1  0.40145280  0.73101690  0.49954352  1  0.070464  0  0.107817  0.126296  0  0.967811  0
H  H70  1  0.71006072  0.32991878  0.12231493  1  0.070804  0  0.100225  0.11639  0  1.033367  0
H  H71  1  0.67008618  0.28993352  0.37768158  1  0.07055  0  0.100186  0.116316  0  1.033343  0
H  H72  1  0.28993485  0.67008661  0.87768081  1  0.07054  0  0.100169  0.116289  0  1.033386  0
H  H73  1  0.32991818  0.71006848  0.62231361  1  0.070625  0  0.100195  0.116315  0  1.033361  0
H  H74  1  0.61524129  0.33061071  0.07061301  1  0.054895  0  0.10872  0.119333  0  0.990563  0
H  H75  1  0.66939260  0.38475624  0.42938145  1  0.054963  0  0.108727  0.119316  0  0.990594  0
H  H76  1  0.38475587  0.66939527  0.92938015  1  0.054969  0  0.108732  0.119289  0  0.990613  0
H  H77  1  0.33060774  0.61524461  0.57061359  1  0.054973  0  0.108711  0.119269  0  0.990566  0
C  C78  1  0.44822851  0.81218127  0.12185280  1  1.627189  0  0.233512  0.64772  0  4.166432  0
C  C79  1  0.18782220  0.55176651  0.37815166  1  1.626311  0  0.233597  0.647834  0  4.166211  0
C  C80  1  0.55176467  0.18782045  0.87814990  1  1.627053  0  0.233573  0.647857  0  4.166078  0
C  C81  1  0.81217818  0.44823597  0.62184716  1  1.626457  0  0.233565  0.647819  0  4.166147  0
C  C82  1  0.83123824  0.66951046  0.14654897  1  0.018495  0  -0.008676  -0.013893  0  3.937366  0
C  C83  1  0.33049038  0.16875492  0.35345565  1  0.018518  0  -0.008731  -0.014092  0  3.937669  0
C  C84  1  0.16876134  0.33048893  0.85345238  1  0.018527  0  -0.008684  -0.013876  0  3.937361  0
C  C85  1  0.66950997  0.83124199  0.64654442  1  0.018393  0  -0.008724  -0.01401  0  3.937477  0
C  C86  1  0.85262181  0.66196496  0.22688465  1  -0.071338  0  -0.05782  -0.081428  0  3.875029  0
C  C87  1  0.33803522  0.14737372  0.27311990  1  -0.070799  0  -0.05778  -0.081352  0  3.875085  0
C  C88  1  0.14737695  0.33803293  0.77311685  1  -0.071202  0  -0.057756  -0.081318  0  3.874935  0
C  C89  1  0.66196515  0.85262399  0.72688236  1  -0.071046  0  -0.057778  -0.081336  0  3.874935  0
C  C90  1  0.90441573  0.56730701  0.27483748  1  0.004231  0  -0.01336  -0.037524  0  3.950745  0
C  C91  1  0.43269418  0.09558252  0.22516468  1  0.0045  0  -0.013337  -0.037477  0  3.950564  0
C  C92  1  0.09558302  0.43269166  0.72516191  1  0.004226  0  -0.013413  -0.037651  0  3.950765  0
C  C93  1  0.56730860  0.90441493  0.77483811  1  0.004611  0  -0.013391  -0.037635  0  3.950725  0
C  C94  1  0.93175017  0.47841377  0.24418373  1  -0.028895  0  -0.061992  -0.125426  0  3.912015  0
C  C95  1  0.52158533  0.06824221  0.25581939  1  -0.029716  0  -0.062012  -0.125351  0  3.911956  0
C  C96  1  0.06825017  0.52158392  0.75581484  1  -0.029777  0  -0.061956  -0.125322  0  3.91196  0
C  C97  1  0.47841343  0.93175172  0.74418651  1  -0.029727  0  -0.061988  -0.125343  0  3.911813  0
C  C98  1  0.90771683  0.48723700  0.16520012  1  0.182883  0  0.07622  0.060763  0  3.959215  0
C  C99  1  0.51276440  0.09228103  0.33480116  1  0.183032  0  0.076199  0.060674  0  3.959277  0
C  C100  1  0.09228593  0.51276200  0.83479783  1  0.182912  0  0.07624  0.060695  0  3.959274  0
C  C101  1  0.48723439  0.90771767  0.66520253  1  0.183079  0  0.076204  0.060791  0  3.959138  0
C  C102  1  0.85992885  0.58153219  0.11483266  1  0.032797  0  -0.058416  -0.101197  0  3.914737  0
C  C103  1  0.41846897  0.14006506  0.38517116  1  0.032067  0  -0.058356  -0.101136  0  3.914693  0
C  C104  1  0.14006832  0.41846748  0.88516939  1  0.032674  0  -0.05842  -0.101257  0  3.914737  0
C  C105  1  0.58152901  0.85993532  0.61483163  1  0.032482  0  -0.058359  -0.101241  0  3.91475  0
C  C106  1  0.77662529  0.76946937  0.09278948  1  1.565759  0  0.184301  0.560636  0  4.261076  0
C  C107  1  0.23053427  0.22337305  0.40721121  1  1.565725  0  0.184447  0.561002  0  4.260811  0
C  C108  1  0.22337431  0.23053163  0.90721380  1  1.565766  0  0.184363  0.560824  0  4.261008  0
C  C109  1  0.76946688  0.77662534  0.59278747  1  1.565697  0  0.184383  0.560875  0  4.26086  0
C  C110  1  0.93036206  0.55985020  0.35972507  1  1.621614  0  0.231734  0.64516  0  4.166111  0
C  C111  1  0.44014608  0.06964364  0.14027551  1  1.62091  0  0.231691  0.645074  0  4.166228  0
C  C112  1  0.06963672  0.44015008  0.64027564  1  1.621599  0  0.231782  0.645225  0  4.166123  0
C  C113  1  0.55985109  0.93035524  0.85972743  1  1.621246  0  0.231696  0.645172  0  4.166159  0
C  C114  1  0.32148342  0.67851567  0.25000042  1  -0.021287  0  -0.058619  -0.075032  0  3.86183  0
C  C115  1  0.67851693  0.32148203  0.74999938  1  -0.021342  0  -0.058659  -0.075014  0  3.861823  0
C  C116  1  0.42541772  0.70042478  0.18921867  1  -0.014682  0  -0.009544  -0.021864  0  3.927942  0
C  C117  1  0.29957543  0.57458021  0.31078310  1  -0.014821  0  -0.00959  -0.021892  0  3.927916  0
C  C118  1  0.57458425  0.29957275  0.81078312  1  -0.015  0  -0.009517  -0.021902  0  3.928029  0
C  C119  1  0.70042572  0.42541660  0.68921735  1  -0.014889  0  -0.009564  -0.021876  0  3.927941  0
C  C120  1  0.50944126  0.61781823  0.19059627  1  -0.005592  0  -0.063929  -0.121698  0  3.902193  0
C  C121  1  0.38218303  0.49055998  0.30939726  1  -0.005398  0  -0.063992  -0.121845  0  3.902232  0
C  C122  1  0.49056066  0.38217846  0.80939963  1  -0.005485  0  -0.064011  -0.121793  0  3.90236  0
C  C123  1  0.61781976  0.50943668  0.69060703  1  -0.005467  0  -0.063985  -0.121802  0  3.902302  0
C  C124  1  0.48563084  0.51437329  0.24999937  1  0.206  0  0.07105  0.048124  0  3.979458  0
C  C125  1  0.51437111  0.48562581  0.74999881  1  0.206084  0  0.071097  0.048243  0  3.979531  0
C  C126  1  0.88892159  0.92961379  0.81787615  1  1.386246  0  0.192584  0.339368  0  4.065549  0
C  C127  1  0.07038679  0.11107689  0.68212248  1  1.385932  0  0.192574  0.339362  0  4.065534  0
C  C128  1  0.11107959  0.07038779  0.18212209  1  1.386239  0  0.192537  0.339309  0  4.065618  0
C  C129  1  0.92961439  0.88892233  0.31787963  1  1.385942  0  0.19255  0.339349  0  4.065625  0
C  C130  1  0.95059497  0.92094466  0.65813294  1  0.273649  0  -0.133561  -0.296076  0  3.889606  0
C  C131  1  0.07905514  0.04940681  0.84186460  1  0.273821  0  -0.133527  -0.296081  0  3.889509  0
C  C132  1  0.04940300  0.07905729  0.34186624  1  0.273401  0  -0.133514  -0.295974  0  3.889416  0
C  C133  1  0.92094682  0.95059230  0.15813481  1  0.273801  0  -0.13353  -0.296097  0  3.889567  0
C  C134  1  0.80659029  0.06021375  0.70383713  1  0.183546  0  -0.138614  -0.282816  0  3.843899  0
C  C135  1  0.93978447  0.19340927  0.79616023  1  0.183453  0  -0.138604  -0.282781  0  3.843785  0
C  C136  1  0.19340929  0.93978722  0.29616246  1  0.183624  0  -0.138612  -0.282861  0  3.844023  0
C  C137  1  0.06021347  0.80658791  0.20383992  1  0.183477  0  -0.13857  -0.282751  0  3.844032  0
C  C138  1  0.70878453  0.16300303  0.03226524  1  1.372675  0  0.183235  0.319348  0  4.108601  0
C  C139  1  0.83699334  0.29121690  0.46773297  1  1.372463  0  0.183181  0.319168  0  4.108511  0
C  C140  1  0.29121903  0.83699509  0.96773274  1  1.372532  0  0.183082  0.319091  0  4.108613  0
C  C141  1  0.16300224  0.70878454  0.53226841  1  1.372558  0  0.183161  0.319101  0  4.108792  0
C  C142  1  0.87296959  0.21489335  0.02303038  1  0.254344  0  -0.129996  -0.268933  0  3.887502  0
C  C143  1  0.78510563  0.12703106  0.47696866  1  0.254322  0  -0.130054  -0.269039  0  3.887682  0
C  C144  1  0.12703400  0.78510955  0.97696785  1  0.254328  0  -0.130065  -0.269009  0  3.887638  0
C  C145  1  0.21489555  0.87297131  0.52302870  1  0.254341  0  -0.130047  -0.269068  0  3.88762  0
C  C146  1  0.70053500  0.32932471  0.05814359  1  0.279907  0  -0.13137  -0.277784  0  3.922397  0
C  C147  1  0.67067623  0.29946196  0.44185276  1  0.280037  0  -0.131384  -0.277749  0  3.922381  0
C  C148  1  0.29946135  0.67067899  0.94185184  1  0.280164  0  -0.131394  -0.277715  0  3.922524  0
C  C149  1  0.32932412  0.70053969  0.55814263  1  0.280196  0  -0.131334  -0.277633  0  3.922317  0
N  N150  1  0.92989397  0.39334835  0.13521051  1  0.371777  0  0.059038  0.522567  0  4.187907  0
N  N151  1  0.60665444  0.07010713  0.36478695  1  0.371876  0  0.058984  0.522534  0  4.187788  0
N  N152  1  0.07010960  0.60665216  0.86478729  1  0.371962  0  0.059048  0.522693  0  4.187787  0
N  N153  1  0.39334355  0.92989325  0.63521645  1  0.371877  0  0.05889  0.522377  0  4.187906  0
N  N154  1  0.88148215  0.96782003  0.73107280  1  -1.216279  0  -0.27404  0.045804  0  3.720997  0
N  N155  1  0.03217962  0.11851965  0.76892397  1  -1.216676  0  -0.274033  0.045855  0  3.720986  0
N  N156  1  0.11852144  0.03218287  0.26892482  1  -1.216364  0  -0.274015  0.045852  0  3.721002  0
N  N157  1  0.96781834  0.88147754  0.23107802  1  -1.21662  0  -0.273968  0.045858  0  3.72108  0
N  N158  1  0.75912399  0.23332677  0.03602222  1  -1.212404  0  -0.28  0.034548  0  3.705155  0
N  N159  1  0.76667069  0.24087562  0.46397630  1  -1.212382  0  -0.279927  0.034673  0  3.7051  0
N  N160  1  0.24087717  0.76667242  0.96397681  1  -1.212412  0  -0.279923  0.034676  0  3.705181  0
N  N161  1  0.23332968  0.75912604  0.53602094  1  -1.212361  0  -0.279957  0.034633  0  3.705113  0
N  N162  1  0.57303798  0.42696783  0.24999664  1  0.321682  0  0.054775  0.51259  0  4.195899  0
N  N163  1  0.42696717  0.57303089  0.74999938  1  0.321688  0  0.054754  0.512554  0  4.19588  0
O  O164  1  0.74232315  0.84902358  0.12398494  1  -1.185887  0  -0.389103  -0.643479  0  2.177628  0
O  O165  1  0.15098145  0.25767416  0.37601605  1  -1.185792  0  -0.389146  -0.643571  0  2.177528  0
O  O166  1  0.25767083  0.15097964  0.87601637  1  -1.185764  0  -0.389099  -0.643534  0  2.177707  0
O  O167  1  0.84902053  0.74232812  0.62398231  1  -1.18576  0  -0.389141  -0.643556  0  2.177628  0
O  O168  1  0.76577039  0.77203347  0.01743845  1  -1.162399  0  -0.370594  -0.606872  0  2.187899  0
O  O169  1  0.22797337  0.23422944  0.48256135  1  -1.162366  0  -0.370664  -0.60708  0  2.187808  0
O  O170  1  0.23422679  0.22796462  0.98256659  1  -1.162541  0  -0.370636  -0.607003  0  2.187867  0
O  O171  1  0.77203181  0.76577248  0.51743607  1  -1.162489  0  -0.370621  -0.606959  0  2.187801  0
O  O172  1  0.54548535  0.82915173  0.08463196  1  -1.191638  0  -0.392631  -0.660456  0  2.361474  0
O  O173  1  0.17084762  0.45450922  0.41536568  1  -1.191226  0  -0.392688  -0.660606  0  2.36138  0
O  O174  1  0.45450859  0.17084986  0.91536558  1  -1.19128  0  -0.392672  -0.660557  0  2.361333  0
O  O175  1  0.82915436  0.54548990  0.58463497  1  -1.191426  0  -0.392668  -0.660521  0  2.361379  0
O  O176  1  0.36837084  0.87865888  0.10755462  1  -1.197905  0  -0.380666  -0.673129  0  2.347069  0
O  O177  1  0.12134809  0.63162544  0.39244943  1  -1.197425  0  -0.380658  -0.673063  0  2.346913  0
O  O178  1  0.63162556  0.12134485  0.89244634  1  -1.197949  0  -0.380669  -0.673133  0  2.346851  0
O  O179  1  0.87865791  0.36837719  0.60754872  1  -1.197447  0  -0.380696  -0.673158  0  2.346907  0
O  O180  1  0.75249459  0.07629599  0.01821641  1  -1.169653  0  -0.34717  -0.530165  0  2.372401  0
O  O181  1  0.92369875  0.24750131  0.48178430  1  -1.169506  0  -0.347153  -0.530118  0  2.372232  0
O  O182  1  0.24750575  0.92370090  0.98178181  1  -1.169517  0  -0.347093  -0.53007  0  2.372355  0
O  O183  1  0.07630002  0.75249737  0.51821693  1  -1.169601  0  -0.347118  -0.530003  0  2.37259  0
O  O184  1  0.83476386  0.96920675  0.88280355  1  -1.191595  0  -0.394229  -0.582059  0  2.424602  0
O  O185  1  0.03079459  0.16523452  0.61719397  1  -1.191269  0  -0.394262  -0.582104  0  2.424584  0
O  O186  1  0.16523652  0.03079413  0.11719642  1  -1.191559  0  -0.394219  -0.582035  0  2.424639  0
O  O187  1  0.96920576  0.83476159  0.38280697  1  -1.191397  0  -0.394228  -0.582079  0  2.424617  0
O  O188  1  0.91080482  0.64394615  0.38152753  1  -1.172888  0  -0.378756  -0.634385  0  2.297806  0
O  O189  1  0.35604781  0.08920523  0.11847275  1  -1.172726  0  -0.378798  -0.634412  0  2.297797  0
O  O190  1  0.08919715  0.35604743  0.61847927  1  -1.172948  0  -0.378817  -0.634442  0  2.29776  0
O  O191  1  0.64395255  0.91079484  0.88152564  1  -1.17304  0  -0.378765  -0.634422  0  2.297722  0
O  O192  1  0.96998310  0.46916666  0.40353917  1  -1.213286  0  -0.403922  -0.707631  0  2.410112  0
O  O193  1  0.53082582  0.03001958  0.09646132  1  -1.213184  0  -0.403851  -0.707523  0  2.410112  0
O  O194  1  0.03001563  0.53083041  0.59645890  1  -1.213331  0  -0.40394  -0.707622  0  2.41018  0
O  O195  1  0.46917378  0.96997825  0.90354486  1  -1.213264  0  -0.40388  -0.707579  0  2.41013  0
O  O196  1  0.95240100  0.30457258  0.19049540  1  -0.493158  0  -0.135686  -0.353273  0  1.942297  0
O  O197  1  0.69543024  0.04760722  0.30949742  1  -0.49328  0  -0.135688  -0.353275  0  1.942109  0
O  O198  1  0.04760735  0.69542576  0.80949783  1  -0.493206  0  -0.135728  -0.353372  0  1.942283  0
O  O199  1  0.30457018  0.95239687  0.69050518  1  -0.493363  0  -0.13567  -0.35328  0  1.942194  0
O  O200  1  0.92338475  0.40670941  0.05709570  1  -0.464557  0  -0.119899  -0.336592  0  1.98184  0
O  O201  1  0.59329271  0.07660899  0.44290449  1  -0.464587  0  -0.11986  -0.336565  0  1.981899  0
O  O202  1  0.07661005  0.59329610  0.94290458  1  -0.464611  0  -0.119903  -0.336623  0  1.981775  0
O  O203  1  0.40670368  0.92339237  0.55709849  1  -0.464388  0  -0.119764  -0.33641  0  1.981912  0
O  O204  1  0.66671841  0.45041839  0.21094056  1  -0.469231  0  -0.129155  -0.345511  0  1.972838  0
O  O205  1  0.54958935  0.33328618  0.28904912  1  -0.469055  0  -0.129159  -0.345533  0  1.972908  0
O  O206  1  0.33328438  0.54958539  0.78905580  1  -0.469185  0  -0.129152  -0.345511  0  1.972834  0
O  O207  1  0.45042139  0.66671188  0.71094279  1  -0.469142  0  -0.12916  -0.345525  0  1.972753  0
