# generated using pymatgen
data_Zn3H28C38S6(N5O6)2
_symmetry_space_group_name_H-M   'P 1'
_cell_length_a   8.84851149
_cell_length_b   11.50176337
_cell_length_c   12.90363174
_cell_angle_alpha   111.54057021
_cell_angle_beta   108.23027143
_cell_angle_gamma   93.26061538
_symmetry_Int_Tables_number   1
_chemical_formula_structural   Zn3H28C38S6(N5O6)2
_chemical_formula_sum   'Zn3 H28 C38 S6 N10 O12'
_cell_volume   1138.08307444
_cell_formula_units_Z   1
loop_
 _symmetry_equiv_pos_site_id
 _symmetry_equiv_pos_as_xyz
  1  'x, y, z'
loop_
 _atom_site_type_symbol
 _atom_site_label
 _atom_site_symmetry_multiplicity
 _atom_site_fract_x
 _atom_site_fract_y
 _atom_site_fract_z
 _atom_site_occupancy
 _atom_site_hle17_bader_spin_density
 _atom_site_hle17_ddec_charge
 _atom_site_hle17_ddec_spin_density
 _atom_site_hle17_ddec_sum_bond_order
 _atom_site_hle17_magmom
 _atom_site_hse06_10hf_bader_spin_density
 _atom_site_hse06_10hf_ddec_charge
 _atom_site_hse06_10hf_ddec_spin_density
 _atom_site_hse06_10hf_ddec_sum_bond_order
 _atom_site_hse06_10hf_magmom
 _atom_site_hse06_bader_spin_density
 _atom_site_hse06_ddec_charge
 _atom_site_hse06_ddec_spin_density
 _atom_site_hse06_ddec_sum_bond_order
 _atom_site_hse06_magmom
 _atom_site_pbe_bader_spin_density
 _atom_site_pbe_cm5_charge
 _atom_site_pbe_ddec_charge
 _atom_site_pbe_ddec_spin_density
 _atom_site_pbe_ddec_sum_bond_order
 _atom_site_pbe_magmom
Zn  Zn0  1  0.49999866  0.00000096  0.99999992  1  0  1.221431  0  1.741095  0  0  1.060965  0  2.197043  0  0  1.110093  0  2.133214  0  0  0.688571  1.026073  0  2.241164  0
Zn  Zn1  1  0.34879876  0.24791636  0.15032564  1  0  1.035641  0  1.821833  0  0  0.843408  0  2.287044  0  0  0.893884  0  2.229389  0  0  0.689087  0.80813  0  2.326688  0
Zn  Zn2  1  0.65120116  0.75208498  0.84967217  1  0  1.035653  0  1.821805  0  0  0.843403  0  2.287022  0  0  0.893874  0  2.229368  0  0  0.689087  0.808125  0  2.326665  0
H  H3  1  0.05685360  0.79646376  0.02408474  1  0  0.126401  0  0.923011  0  0  0.14087  0  0.979505  0  0  0.143082  0  0.978529  0  0  0.106132  0.139359  0  0.980316  0
H  H4  1  0.94314891  0.20353855  0.97591705  1  0  0.126416  0  0.922991  0  0  0.140869  0  0.979502  0  0  0.14308  0  0.978527  0  0  0.106127  0.139358  0  0.980311  0
H  H5  1  0.99190627  0.93112402  0.11181740  1  0  0.142521  0  0.951715  0  0  0.149075  0  1.018746  0  0  0.151847  0  1.017453  0  0  0.110203  0.14715  0  1.019705  0
H  H6  1  0.00809623  0.06887829  0.88818516  1  0  0.14254  0  0.951695  0  0  0.149094  0  1.018711  0  0  0.151866  0  1.017422  0  0  0.110205  0.14717  0  1.01967  0
H  H7  1  0.30644815  0.29292162  0.79682975  1  0  0.132452  0  0.909777  0  0  0.150916  0  0.955976  0  0  0.153437  0  0.954467  0  0  0.111637  0.149148  0  0.957154  0
H  H8  1  0.69355078  0.70708067  0.20317203  1  0  0.132445  0  0.909742  0  0  0.15088  0  0.955976  0  0  0.153402  0  0.954469  0  0  0.111632  0.14911  0  0.957153  0
H  H9  1  0.11908092  0.18730413  0.74535450  1  0  0.124723  0  0.953655  0  0  0.132714  0  1.02537  0  0  0.13459  0  1.025288  0  0  0.104037  0.131438  0  1.025475  0
H  H10  1  0.88091824  0.81269911  0.25464609  1  0  0.124692  0  0.953617  0  0  0.132692  0  1.025324  0  0  0.134567  0  1.025244  0  0  0.104046  0.131416  0  1.025427  0
H  H11  1  0.93411260  0.25780899  0.21255026  1  0  0.131251  0  0.923635  0  0  0.144319  0  0.979277  0  0  0.145956  0  0.979872  0  0  0.104367  0.143255  0  0.97895  0
H  H12  1  0.06588418  0.74219422  0.78744981  1  0  0.131241  0  0.923687  0  0  0.144328  0  0.979314  0  0  0.145955  0  0.979896  0  0  0.104355  0.143264  0  0.978988  0
H  H13  1  0.82673570  0.11041838  0.19491321  1  0  0.149326  0  0.965832  0  0  0.15321  0  1.035895  0  0  0.156766  0  1.033638  0  0  0.108439  0.150703  0  1.037615  0
H  H14  1  0.17326355  0.88958011  0.80508507  1  0  0.149285  0  0.965824  0  0  0.153184  0  1.035896  0  0  0.156725  0  1.033636  0  0  0.108424  0.150677  0  1.037617  0
H  H15  1  0.15126616  0.42685743  0.05958002  1  0  0.084753  0  0.953467  0  0  0.092486  0  1.018334  0  0  0.09559  0  1.015107  0  0  0.116136  0.090124  0  1.020862  0
H  H16  1  0.84874105  0.57314968  0.94042281  1  0  0.084772  0  0.953469  0  0  0.092509  0  1.018333  0  0  0.095606  0  1.015109  0  0  0.116132  0.090148  0  1.020865  0
H  H17  1  0.98194770  0.58536675  0.13336615  1  0  0.100097  0  0.96038  0  0  0.109127  0  1.021835  0  0  0.112099  0  1.02119  0  0  0.104834  0.106956  0  1.022513  0
H  H18  1  0.01805218  0.41463458  0.86663785  1  0  0.100107  0  0.960376  0  0  0.109117  0  1.021847  0  0  0.112088  0  1.021205  0  0  0.104827  0.106947  0  1.022526  0
H  H19  1  0.98085701  0.64037828  0.34087126  1  0  0.103405  0  0.945884  0  0  0.109105  0  1.013668  0  0  0.11261  0  1.01003  0  0  0.106153  0.106369  0  1.016668  0
H  H20  1  0.01913447  0.35961252  0.65912824  1  0  0.103364  0  0.94583  0  0  0.109056  0  1.013645  0  0  0.11256  0  1.010006  0  0  0.106106  0.106318  0  1.016647  0
H  H21  1  0.14606898  0.53697469  0.46360468  1  0  0.100264  0  0.994793  0  0  0.104811  0  1.067862  0  0  0.108443  0  1.065838  0  0  0.100993  0.102085  0  1.069693  0
H  H22  1  0.85392890  0.46301807  0.53639608  1  0  0.100253  0  0.99487  0  0  0.104847  0  1.067875  0  0  0.108486  0  1.065851  0  0  0.101  0.102121  0  1.069707  0
H  H23  1  0.31011284  0.46626236  0.56650813  1  0  0.128224  0  0.969125  0  0  0.136703  0  1.031822  0  0  0.140531  0  1.029429  0  0  0.108373  0.13388  0  1.033815  0
H  H24  1  0.68988909  0.53373235  0.43348950  1  0  0.128221  0  0.969102  0  0  0.136695  0  1.031798  0  0  0.140523  0  1.029409  0  0  0.108356  0.133871  0  1.033792  0
H  H25  1  0.47755156  0.34448105  0.66374763  1  0  0.096187  0  0.921441  0  0  0.110719  0  0.973455  0  0  0.113068  0  0.972366  0  0  0.110428  0.108975  0  0.97428  0
H  H26  1  0.52245203  0.65551558  0.33624866  1  0  0.096144  0  0.921516  0  0  0.110682  0  0.97352  0  0  0.113031  0  0.972431  0  0  0.110385  0.108938  0  0.974347  0
H  H27  1  0.59688001  0.17202804  0.54327451  1  0  0.108564  0  0.985787  0  0  0.10749  0  1.06389  0  0  0.11192  0  1.061036  0  0  0.098182  0.104107  0  1.066528  0
H  H28  1  0.40311933  0.82796570  0.45671991  1  0  0.108565  0  0.985741  0  0  0.107479  0  1.063876  0  0  0.11191  0  1.061022  0  0  0.098186  0.104095  0  1.066515  0
H  H29  1  0.54597842  0.13779909  0.33221538  1  0  0.07476  0  0.969114  0  0  0.077543  0  1.046158  0  0  0.080107  0  1.044338  0  0  0.108326  0.075596  0  1.047486  0
H  H30  1  0.45402347  0.86220038  0.66777760  1  0  0.074766  0  0.969219  0  0  0.07756  0  1.04626  0  0  0.080125  0  1.044437  0  0  0.108344  0.075615  0  1.047586  0
C  C31  1  0.16677375  0.98237747  0.34375770  1  0  0.384743  0  3.83096  0  0  0.364293  0  4.125469  0  0  0.385873  0  4.133471  0  0  0.24709  0.349703  0  4.119705  0
C  C32  1  0.83323234  0.01762489  0.65624411  1  0  0.384892  0  3.830955  0  0  0.364389  0  4.125526  0  0  0.385968  0  4.133524  0  0  0.247102  0.349799  0  4.119764  0
C  C33  1  0.21180690  0.07507857  0.54126816  1  0  0.377679  0  3.83309  0  0  0.356828  0  4.130333  0  0  0.377977  0  4.139335  0  0  0.240366  0.342647  0  4.123834  0
C  C34  1  0.78819300  0.92492277  0.45873352  1  0  0.377649  0  3.83314  0  0  0.356785  0  4.1304  0  0  0.377933  0  4.139401  0  0  0.240334  0.342603  0  4.1239  0
C  C35  1  0.04879731  0.14683984  0.41450217  1  0  0.38139  0  3.840507  0  0  0.358664  0  4.139143  0  0  0.380665  0  4.147208  0  0  0.245738  0.343801  0  4.133409  0
C  C36  1  0.95120335  0.85315961  0.58549673  1  0  0.381331  0  3.840573  0  0  0.358598  0  4.139212  0  0  0.380597  0  4.14728  0  0  0.245692  0.343734  0  4.133478  0
C  C37  1  0.09645030  0.89007156  0.09930692  1  0  -0.293352  0  3.610985  0  0  -0.329381  0  3.866401  0  0  -0.333328  0  3.870331  0  0  -0.151516  -0.326819  0  3.863613  0
C  C38  1  0.90354915  0.10992787  0.90069637  1  0  -0.293332  0  3.61093  0  0  -0.329321  0  3.866374  0  0  -0.333272  0  3.870315  0  0  -0.151481  -0.326761  0  3.863588  0
C  C39  1  0.21024392  0.97765519  0.07970889  1  0  0.735458  0  3.815035  0  0  0.687762  0  4.109603  0  0  0.722362  0  4.101743  0  0  0.217037  0.664284  0  4.114101  0
C  C40  1  0.78974762  0.02234607  0.92029327  1  0  0.735449  0  3.815117  0  0  0.687667  0  4.109821  0  0  0.722272  0  4.101954  0  0  0.216967  0.664187  0  4.114318  0
C  C41  1  0.25156220  0.19748752  0.78188461  1  0  -0.300775  0  3.613536  0  0  -0.33801  0  3.872185  0  0  -0.342107  0  3.876904  0  0  -0.148521  -0.335305  0  3.868878  0
C  C42  1  0.74843533  0.80251380  0.21811423  1  0  -0.300699  0  3.613453  0  0  -0.337936  0  3.872089  0  0  -0.342039  0  3.876817  0  0  -0.148543  -0.335227  0  3.868776  0
C  C43  1  0.30142446  0.18004782  0.89923062  1  0  0.735289  0  3.820355  0  0  0.687686  0  4.113877  0  0  0.722091  0  4.105761  0  0  0.220176  0.664268  0  4.118757  0
C  C44  1  0.69857448  0.81995447  0.10076884  1  0  0.735236  0  3.820388  0  0  0.687685  0  4.113805  0  0  0.722095  0  4.105689  0  0  0.22018  0.664267  0  4.118683  0
C  C45  1  0.84812644  0.21419115  0.23958427  1  0  -0.297272  0  3.579086  0  0  -0.330361  0  3.828143  0  0  -0.334513  0  3.832064  0  0  -0.150725  -0.327828  0  3.825698  0
C  C46  1  0.15187256  0.78580638  0.76041674  1  0  -0.297226  0  3.579115  0  0  -0.330373  0  3.82821  0  0  -0.334444  0  3.832027  0  0  -0.150709  -0.327838  0  3.825763  0
C  C47  1  0.69227869  0.26711001  0.21754347  1  0  0.719008  0  3.823748  0  0  0.673457  0  4.118136  0  0  0.707454  0  4.109591  0  0  0.209197  0.650265  0  4.123262  0
C  C48  1  0.30771912  0.73288751  0.78245729  1  0  0.718961  0  3.823819  0  0  0.67343  0  4.118178  0  0  0.707404  0  4.109636  0  0  0.209182  0.650238  0  4.123303  0
C  C49  1  0.14473389  0.45474738  0.14824736  1  0  0.126474  0  3.712253  0  0  0.09571  0  3.961424  0  0  0.102159  0  3.980233  0  0  0.047407  0.09104  0  3.949099  0
C  C50  1  0.85527286  0.54525783  0.85175553  1  0  0.126369  0  3.712158  0  0  0.095607  0  3.961344  0  0  0.102065  0  3.980147  0  0  0.047415  0.090935  0  3.94902  0
C  C51  1  0.05190883  0.54178690  0.18976642  1  0  -0.125217  0  3.744011  0  0  -0.136818  0  3.992049  0  0  -0.144714  0  4.015317  0  0  -0.082457  -0.131859  0  3.976777  0
C  C52  1  0.94809248  0.45821541  0.81023665  1  0  -0.125205  0  3.743853  0  0  -0.136762  0  3.991874  0  0  -0.144658  0  4.015137  0  0  -0.082444  -0.131804  0  3.976602  0
C  C53  1  0.05161961  0.57230385  0.30484810  1  0  0.023592  0  3.683756  0  0  0.005432  0  3.932168  0  0  0.009824  0  3.94948  0  0  -0.057079  0.002915  0  3.920657  0
C  C54  1  0.94837441  0.42769268  0.69515074  1  0  0.023663  0  3.683558  0  0  0.005478  0  3.931981  0  0  0.00987  0  3.949296  0  0  -0.057049  0.002961  0  3.920471  0
C  C55  1  0.14439559  0.51506583  0.37382496  1  0  -0.141857  0  3.717719  0  0  -0.162902  0  3.969017  0  0  -0.170422  0  3.990873  0  0  -0.077027  -0.157884  0  3.954233  0
C  C56  1  0.85560505  0.48493361  0.62617781  1  0  -0.141932  0  3.717867  0  0  -0.163  0  3.969148  0  0  -0.170532  0  3.991017  0  0  -0.077039  -0.15798  0  3.954364  0
C  C57  1  0.23515773  0.42864050  0.32697575  1  0  0.179323  0  3.756606  0  0  0.173841  0  3.9958  0  0  0.180937  0  4.016264  0  0  0.123198  0.169182  0  3.981939  0
C  C58  1  0.76484292  0.57135895  0.67302470  1  0  0.179398  0  3.756527  0  0  0.17393  0  3.99573  0  0  0.181025  0  4.016193  0  0  0.123248  0.169272  0  3.981867  0
C  C59  1  0.33621480  0.36393885  0.39519685  1  0  0.167074  0  3.771771  0  0  0.164017  0  4.010655  0  0  0.16927  0  4.032082  0  0  0.117196  0.160598  0  3.996109  0
C  C60  1  0.66378541  0.63605869  0.60480211  1  0  0.167124  0  3.771652  0  0  0.164004  0  4.010533  0  0  0.169258  0  4.031954  0  0  0.11717  0.160585  0  3.995987  0
C  C61  1  0.36095058  0.39195691  0.51511975  1  0  -0.137687  0  3.675847  0  0  -0.159691  0  3.928535  0  0  -0.16591  0  3.948867  0  0  -0.07969  -0.155997  0  3.915298  0
C  C62  1  0.63905061  0.60803969  0.48487756  1  0  -0.137725  0  3.675706  0  0  -0.159702  0  3.928384  0  0  -0.165923  0  3.948717  0  0  -0.079681  -0.156005  0  3.915145  0
C  C63  1  0.45639943  0.32380806  0.57027864  1  0  0.006098  0  3.70332  0  0  -0.014369  0  3.956707  0  0  -0.011965  0  3.976379  0  0  -0.06723  -0.015628  0  3.943585  0
C  C64  1  0.54360438  0.67618952  0.42971801  1  0  0.00611  0  3.703289  0  0  -0.014372  0  3.956674  0  0  -0.011968  0  3.976348  0  0  -0.067196  -0.015628  0  3.943543  0
C  C65  1  0.52358384  0.22972204  0.50539604  1  0  -0.109065  0  3.696931  0  0  -0.120704  0  3.951712  0  0  -0.127761  0  3.973681  0  0  -0.084092  -0.116813  0  3.937811  0
C  C66  1  0.47641564  0.77027740  0.49460182  1  0  -0.109063  0  3.696816  0  0  -0.120709  0  3.951609  0  0  -0.127772  0  3.973575  0  0  -0.084105  -0.11682  0  3.93771  0
C  C67  1  0.49540314  0.20927371  0.38699959  1  0  0.141093  0  3.68688  0  0  0.106773  0  3.943683  0  0  0.112502  0  3.963142  0  0  0.047531  0.103309  0  3.930323  0
C  C68  1  0.50459783  0.79072194  0.61299659  1  0  0.141187  0  3.687095  0  0  0.106825  0  3.943846  0  0  0.112558  0  3.963302  0  0  0.047548  0.103361  0  3.930487  0
S  S69  1  0.20338641  0.86118887  0.22963558  1  0  0.029801  0  2.337582  0  0  0.027862  0  2.664883  0  0  0.022486  0  2.662897  0  0  0.05428  0.032176  0  2.666504  0
S  S70  1  0.79661804  0.13881157  0.77036524  1  0  0.029791  0  2.337554  0  0  0.027867  0  2.664854  0  0  0.022493  0  2.662872  0  0  0.054295  0.032182  0  2.666476  0
S  S71  1  0.31568643  0.07400704  0.67929605  1  0  0.069042  0  2.451928  0  0  0.059807  0  2.806289  0  0  0.055275  0  2.804044  0  0  0.065183  0.063222  0  2.807668  0
S  S72  1  0.68431130  0.92599523  0.32070624  1  0  0.069063  0  2.451932  0  0  0.059831  0  2.806281  0  0  0.055303  0  2.804039  0  0  0.065223  0.063246  0  2.807658  0
S  S73  1  0.93053896  0.25952914  0.39963610  1  0  0.041744  0  2.440759  0  0  0.043665  0  2.79284  0  0  0.037023  0  2.791508  0  0  0.069287  0.049068  0  2.794041  0
S  S74  1  0.06945961  0.74046649  0.60036342  1  0  0.04175  0  2.440688  0  0  0.043688  0  2.792781  0  0  0.037021  0  2.791419  0  0  0.069281  0.049091  0  2.793982  0
N  N75  1  0.24174467  0.98432003  0.45214093  1  0  -0.4709  0  3.022952  0  0  -0.433074  0  3.29391  0  0  -0.451348  0  3.301345  0  0  -0.330699  -0.420712  0  3.289143  0
N  N76  1  0.75826089  0.01568517  0.54786247  1  0  -0.470978  0  3.023057  0  0  -0.433133  0  3.294039  0  0  -0.451406  0  3.30147  0  0  -0.330709  -0.420771  0  3.289274  0
N  N77  1  0.11479880  0.15832970  0.52826714  1  0  -0.48013  0  3.009736  0  0  -0.446197  0  3.286182  0  0  -0.465088  0  3.29524  0  0  -0.333974  -0.433398  0  3.280051  0
N  N78  1  0.88519969  0.84167067  0.47173314  1  0  -0.480106  0  3.00971  0  0  -0.446165  0  3.286155  0  0  -0.465055  0  3.295212  0  0  -0.333939  -0.433366  0  3.280024  0
N  N79  1  0.06997843  0.06179042  0.31891412  1  0  -0.448554  0  3.025537  0  0  -0.411912  0  3.295839  0  0  -0.430532  0  3.306015  0  0  -0.324153  -0.399583  0  3.289004  0
N  N80  1  0.93002767  0.93821194  0.68108692  1  0  -0.448573  0  3.025607  0  0  -0.411907  0  3.295914  0  0  -0.43053  0  3.306093  0  0  -0.324125  -0.399578  0  3.289078  0
N  N81  1  0.23353358  0.39909807  0.21491218  1  0  -0.35076  0  3.256558  0  0  -0.275354  0  3.526718  0  0  -0.293727  0  3.540237  0  0  -0.31937  -0.263072  0  3.517873  0
N  N82  1  0.76647222  0.60090808  0.78509003  1  0  -0.350711  0  3.256365  0  0  -0.275353  0  3.52658  0  0  -0.293727  0  3.540096  0  0  -0.319421  -0.26307  0  3.517733  0
N  N83  1  0.40507610  0.27523914  0.33397389  1  0  -0.348386  0  3.27647  0  0  -0.276141  0  3.537833  0  0  -0.294169  0  3.555138  0  0  -0.318318  -0.263897  0  3.525957  0
N  N84  1  0.59492382  0.72476221  0.66602315  1  0  -0.348516  0  3.276782  0  0  -0.276146  0  3.538024  0  0  -0.294174  0  3.55533  0  0  -0.318305  -0.263901  0  3.526147  0
O  O85  1  0.32202746  0.93053715  0.04698023  1  0  -0.652327  0  2.043249  0  0  -0.591657  0  2.303564  0  0  -0.619898  0  2.290964  0  0  -0.321289  -0.571925  0  2.311532  0
O  O86  1  0.67796745  0.06946319  0.95301927  1  0  -0.652374  0  2.043507  0  0  -0.591622  0  2.30381  0  0  -0.619863  0  2.291205  0  0  -0.321254  -0.571891  0  2.31178  0
O  O87  1  0.18375640  0.09010639  0.09998797  1  0  -0.631123  0  2.052074  0  0  -0.558818  0  2.320029  0  0  -0.587364  0  2.30654  0  0  -0.31827  -0.538878  0  2.32855  0
O  O88  1  0.81624142  0.90989112  0.90001278  1  0  -0.631091  0  2.051914  0  0  -0.55882  0  2.319981  0  0  -0.587366  0  2.306489  0  0  -0.318261  -0.538893  0  2.328537  0
O  O89  1  0.33911203  0.07450737  0.89491063  1  0  -0.647973  0  2.117949  0  0  -0.578285  0  2.381785  0  0  -0.604753  0  2.367327  0  0  -0.306965  -0.5599  0  2.391328  0
O  O90  1  0.66088713  0.92549587  0.10508996  1  0  -0.648  0  2.117933  0  0  -0.578308  0  2.381703  0  0  -0.604788  0  2.367249  0  0  -0.307004  -0.559923  0  2.391247  0
O  O91  1  0.29707053  0.27204624  0.99021932  1  0  -0.63819  0  2.0003  0  0  -0.574756  0  2.257627  0  0  -0.602591  0  2.243063  0  0  -0.321533  -0.55519  0  2.266847  0
O  O92  1  0.70293057  0.72795512  0.00978108  1  0  -0.638155  0  2.000323  0  0  -0.574719  0  2.257604  0  0  -0.602545  0  2.243026  0  0  -0.321489  -0.555152  0  2.266824  0
O  O93  1  0.55832196  0.18366354  0.14759582  1  0  -0.691623  0  2.169276  0  0  -0.599939  0  2.454352  0  0  -0.632578  0  2.436135  0  0  -0.319215  -0.576997  0  2.466098  0
O  O94  1  0.44167415  0.81633682  0.85240394  1  0  -0.691615  0  2.169268  0  0  -0.599907  0  2.454287  0  0  -0.632543  0  2.436079  0  0  -0.31922  -0.576962  0  2.46603  0
O  O95  1  0.69640164  0.38286560  0.26905239  1  0  -0.601882  0  1.867061  0  0  -0.560407  0  2.081043  0  0  -0.582103  0  2.071639  0  0  -0.323175  -0.545104  0  2.08711  0
O  O96  1  0.30359879  0.61713289  0.73094770  1  0  -0.601871  0  1.867107  0  0  -0.560406  0  2.081077  0  0  -0.582105  0  2.071684  0  0  -0.323161  -0.545104  0  2.087145  0
