# generated using pymatgen
data_Pr3H21(C7O5)4
_symmetry_space_group_name_H-M   'P 1'
_cell_length_a   11.60180288
_cell_length_b   13.13469218
_cell_length_c   13.42431434
_cell_angle_alpha   115.96850878
_cell_angle_beta   91.50820017
_cell_angle_gamma   114.80252659
_symmetry_Int_Tables_number   1
_chemical_formula_structural   Pr3H21(C7O5)4
_chemical_formula_sum   'Pr6 H42 C56 O40'
_cell_volume   1613.27188929
_cell_formula_units_Z   2
loop_
 _symmetry_equiv_pos_site_id
 _symmetry_equiv_pos_as_xyz
  1  'x, y, z'
loop_
 _atom_site_type_symbol
 _atom_site_label
 _atom_site_symmetry_multiplicity
 _atom_site_fract_x
 _atom_site_fract_y
 _atom_site_fract_z
 _atom_site_occupancy
 _atom_site_hle17_bader_spin_density
 _atom_site_hle17_ddec_charge
 _atom_site_hle17_ddec_spin_density
 _atom_site_hle17_ddec_sum_bond_order
 _atom_site_hle17_magmom
 _atom_site_hse06_10hf_bader_spin_density
 _atom_site_hse06_10hf_ddec_charge
 _atom_site_hse06_10hf_ddec_spin_density
 _atom_site_hse06_10hf_ddec_sum_bond_order
 _atom_site_hse06_10hf_magmom
 _atom_site_hse06_bader_spin_density
 _atom_site_hse06_ddec_charge
 _atom_site_hse06_ddec_spin_density
 _atom_site_hse06_ddec_sum_bond_order
 _atom_site_hse06_magmom
 _atom_site_pbe_bader_spin_density
 _atom_site_pbe_cm5_charge
 _atom_site_pbe_ddec_charge
 _atom_site_pbe_ddec_spin_density
 _atom_site_pbe_ddec_sum_bond_order
 _atom_site_pbe_magmom
Pr  Pr0  1  0.64924533  0.14999088  0.48243762  1  0  2.278726  0  1.699411  0  0  2.115779  0  2.15492  0  0  2.159184  0  2.111281  0  0  1.520116  2.082474  0  2.190589  0
Pr  Pr1  1  0.35075113  0.85000765  0.51755933  1  0  2.27873  0  1.699463  0  0  2.115761  0  2.154994  0  0  2.159154  0  2.111372  0  0  1.520133  2.082465  0  2.190661  0
Pr  Pr2  1  0.99910582  0.14633856  0.39596760  1  0  2.316147  0  1.594608  0  0  2.155269  0  2.050569  0  0  2.242399  0  1.921152  0  0  1.496603  2.121738  0  2.086536  0
Pr  Pr3  1  0.00089559  0.85365603  0.60402406  1  0  2.316115  0  1.594653  0  0  2.155248  0  2.050608  0  0  2.242372  0  1.921211  0  0  1.496597  2.121718  0  2.086578  0
Pr  Pr4  1  0.44777511  0.32490343  0.50972984  1  0  2.336772  0  1.643166  0  0  2.180468  0  2.09008  0  0  2.262566  0  1.96274  0  0  1.494208  2.15134  0  2.122991  0
Pr  Pr5  1  0.55222588  0.67509027  0.49026739  1  0  2.33677  0  1.64316  0  0  2.180513  0  2.089995  0  0  2.262568  0  1.962732  0  0  1.494231  2.151396  0  2.122904  0
H  H6  1  0.25140161  0.35424324  0.66255747  1  0  0.445502  0  0.828343  0  0  0.419208  0  0.890796  0  0  0.428551  0  0.877246  0  0  0.317224  0.412664  0  0.90037  0
H  H7  1  0.74859970  0.64575815  0.33743929  1  0  0.445467  0  0.828414  0  0  0.419161  0  0.890876  0  0  0.428504  0  0.877327  0  0  0.317199  0.412618  0  0.900449  0
H  H8  1  0.47298055  0.92518316  0.07624454  1  0  0.096676  0  0.972926  0  0  0.103588  0  1.039656  0  0  0.105705  0  1.040346  0  0  0.101611  0.102068  0  1.039184  0
H  H9  1  0.52702335  0.07480948  0.92374635  1  0  0.096648  0  0.972928  0  0  0.103555  0  1.039669  0  0  0.105669  0  1.040362  0  0  0.101621  0.102033  0  1.039195  0
H  H10  1  0.31748273  0.80796597  0.88469095  1  0  0.087826  0  0.951761  0  0  0.098347  0  1.011029  0  0  0.10137  0  1.00952  0  0  0.100708  0.096152  0  1.012219  0
H  H11  1  0.68251122  0.19203447  0.11530451  1  0  0.087803  0  0.951793  0  0  0.098326  0  1.011049  0  0  0.101351  0  1.009541  0  0  0.100702  0.096128  0  1.012239  0
H  H12  1  0.12301205  0.84023365  0.86559333  1  0  0.112871  0  0.960958  0  0  0.122054  0  1.02038  0  0  0.125685  0  1.017996  0  0  0.109859  0.119479  0  1.022179  0
H  H13  1  0.87698452  0.15976685  0.13440742  1  0  0.112805  0  0.961066  0  0  0.121974  0  1.02053  0  0  0.125599  0  1.018142  0  0  0.109859  0.1194  0  1.022324  0
H  H14  1  0.08980083  0.99486253  0.03849442  1  0  0.10059  0  0.941968  0  0  0.112642  0  0.998551  0  0  0.115974  0  0.996518  0  0  0.108285  0.110348  0  0.999874  0
H  H15  1  0.91020132  0.00513702  0.96150903  1  0  0.100539  0  0.942002  0  0  0.112618  0  0.998559  0  0  0.115952  0  0.996522  0  0  0.108243  0.110322  0  0.999882  0
H  H16  1  0.82992339  0.34615604  0.91031830  1  0  0.092003  0  0.96523  0  0  0.100593  0  1.031644  0  0  0.102895  0  1.031831  0  0  0.101533  0.098914  0  1.031644  0
H  H17  1  0.17006968  0.65384257  0.08968383  1  0  0.09185  0  0.965246  0  0  0.100456  0  1.031667  0  0  0.102757  0  1.031855  0  0  0.101482  0.098781  0  1.031662  0
H  H18  1  0.97868630  0.39594209  0.08154309  1  0  0.09698  0  0.932302  0  0  0.110478  0  0.984044  0  0  0.113848  0  0.982211  0  0  0.107407  0.108075  0  0.985429  0
H  H19  1  0.02131171  0.60406132  0.91846041  1  0  0.096896  0  0.932379  0  0  0.110456  0  0.984061  0  0  0.11383  0  0.982226  0  0  0.10738  0.108049  0  0.985447  0
H  H20  1  0.15018178  0.32562548  0.05552706  1  0  0.084328  0  0.941196  0  0  0.098598  0  0.993211  0  0  0.101836  0  0.991652  0  0  0.101235  0.096414  0  0.994208  0
H  H21  1  0.84982169  0.67438557  0.94447382  1  0  0.084339  0  0.941201  0  0  0.098587  0  0.993236  0  0  0.101875  0  0.991629  0  0  0.10124  0.096402  0  0.994229  0
H  H22  1  0.17604809  0.21261325  0.86032615  1  0  0.09682  0  0.984959  0  0  0.103501  0  1.053646  0  0  0.106112  0  1.052965  0  0  0.104063  0.10157  0  1.054278  0
H  H23  1  0.82395932  0.78739877  0.13967671  1  0  0.096776  0  0.984873  0  0  0.103476  0  1.053546  0  0  0.106087  0  1.052862  0  0  0.104056  0.101547  0  1.054178  0
H  H24  1  0.68242640  0.83159235  0.02501596  1  0  0.106815  0  0.950119  0  0  0.115702  0  1.010641  0  0  0.118707  0  1.009541  0  0  0.108596  0.113572  0  1.011403  0
H  H25  1  0.31757302  0.16841394  0.97498729  1  0  0.106786  0  0.950069  0  0  0.115678  0  1.010596  0  0  0.118684  0  1.009494  0  0  0.10859  0.113547  0  1.011364  0
H  H26  1  0.49640443  0.62070280  0.88209389  1  0  0.079538  0  0.974063  0  0  0.090727  0  1.035017  0  0  0.094568  0  1.031831  0  0  0.097969  0.087949  0  1.037376  0
H  H27  1  0.50359701  0.37930058  0.11790819  1  0  0.079549  0  0.974104  0  0  0.090739  0  1.035055  0  0  0.094593  0  1.031855  0  0  0.09797  0.087961  0  1.037413  0
H  H28  1  0.31341349  0.49781713  0.94877217  1  0  0.087613  0  0.96177  0  0  0.098106  0  1.022042  0  0  0.100621  0  1.021652  0  0  0.099878  0.096249  0  1.022428  0
H  H29  1  0.68658219  0.50218333  0.05122483  1  0  0.087582  0  0.961801  0  0  0.098081  0  1.022073  0  0  0.100597  0  1.021682  0  0  0.099862  0.096234  0  1.022451  0
H  H30  1  0.32034416  0.59515602  0.15597394  1  0  0.104916  0  0.950134  0  0  0.112632  0  1.015298  0  0  0.116319  0  1.013063  0  0  0.108936  0.109924  0  1.017104  0
H  H31  1  0.67964950  0.40484735  0.84402424  1  0  0.104898  0  0.950134  0  0  0.112609  0  1.01531  0  0  0.116295  0  1.013076  0  0  0.10891  0.109898  0  1.017117  0
H  H32  1  0.74424612  0.32784601  0.31086376  1  0  0.129524  0  0.916588  0  0  0.14556  0  0.971876  0  0  0.148325  0  0.970207  0  0  0.116614  0.143638  0  0.972966  0
H  H33  1  0.25575118  0.67215067  0.68913988  1  0  0.129527  0  0.916634  0  0  0.145555  0  0.971917  0  0  0.148322  0  0.970243  0  0  0.116601  0.143634  0  0.973009  0
H  H34  1  0.89585450  0.47355064  0.38051643  1  0  0.134077  0  0.908578  0  0  0.149532  0  0.962274  0  0  0.152351  0  0.960876  0  0  0.116339  0.147474  0  0.963325  0
H  H35  1  0.10414990  0.52645176  0.61948529  1  0  0.134092  0  0.908616  0  0  0.149559  0  0.962276  0  0  0.152376  0  0.96088  0  0  0.116352  0.147501  0  0.963326  0
H  H36  1  0.84944577  0.50066158  0.57200066  1  0  0.066306  0  0.909994  0  0  0.077624  0  0.967651  0  0  0.078955  0  0.966552  0  0  0.116331  0.076719  0  0.968372  0
H  H37  1  0.15055275  0.49933410  0.42800034  1  0  0.066326  0  0.910021  0  0  0.077623  0  0.967673  0  0  0.078955  0  0.966573  0  0  0.116323  0.076716  0  0.968396  0
H  H38  1  0.22285397  0.03871202  0.42647482  1  0  0.457391  0  0.825412  0  0  0.42835  0  0.887726  0  0  0.439536  0  0.871552  0  0  0.313016  0.420348  0  0.899419  0
H  H39  1  0.77714300  0.96128752  0.57352629  1  0  0.457329  0  0.825474  0  0  0.428291  0  0.887802  0  0  0.439475  0  0.871633  0  0  0.31299  0.42029  0  0.899495  0
H  H40  1  0.18495334  0.11297461  0.53434058  1  0  0.436466  0  0.848445  0  0  0.408056  0  0.917899  0  0  0.418576  0  0.902749  0  0  0.3133  0.40039  0  0.9292  0
H  H41  1  0.81504897  0.88702878  0.46566301  1  0  0.436454  0  0.848467  0  0  0.408045  0  0.917921  0  0  0.418565  0  0.902771  0  0  0.313302  0.40038  0  0.929224  0
H  H42  1  0.39680500  0.44905145  0.74280982  1  0  0.42799  0  0.84129  0  0  0.408193  0  0.895716  0  0  0.416153  0  0.884056  0  0  0.319101  0.402491  0  0.904181  0
H  H43  1  0.60320037  0.55094414  0.25718682  1  0  0.427947  0  0.841361  0  0  0.408159  0  0.895763  0  0  0.416117  0  0.884105  0  0  0.319115  0.402457  0  0.904227  0
H  H44  1  0.63383501  0.61429583  0.70137316  1  0  0.446349  0  0.84847  0  0  0.416428  0  0.909353  0  0  0.426963  0  0.894146  0  0  0.305469  0.409038  0  0.920098  0
H  H45  1  0.36616130  0.38569887  0.29862514  1  0  0.446321  0  0.848517  0  0  0.416406  0  0.90939  0  0  0.426941  0  0.894182  0  0  0.305493  0.409016  0  0.920132  0
H  H46  1  0.67995950  0.52386761  0.71945733  1  0  0.43982  0  0.805639  0  0  0.426233  0  0.853394  0  0  0.433757  0  0.845573  0  0  0.338249  0.420785  0  0.859642  0
H  H47  1  0.32003816  0.47612807  0.28054290  1  0  0.439849  0  0.805596  0  0  0.426265  0  0.853348  0  0  0.433789  0  0.845524  0  0  0.338281  0.420819  0  0.859595  0
C  C48  1  0.46686720  0.08578966  0.27523049  1  0  0.68312  0  3.875585  0  0  0.633659  0  4.172811  0  0  0.669483  0  4.161784  0  0  0.214962  0.609194  0  4.180945  0
C  C49  1  0.53312891  0.91420115  0.72476468  1  0  0.682968  0  3.875617  0  0  0.633474  0  4.172892  0  0  0.669298  0  4.161871  0  0  0.214882  0.609012  0  4.181023  0
C  C50  1  0.37228216  0.02805592  0.16386404  1  0  -0.068497  0  3.697992  0  0  -0.054167  0  3.928524  0  0  -0.061043  0  3.95042  0  0  -0.008388  -0.049647  0  3.91362  0
C  C51  1  0.62771521  0.97193393  0.83613149  1  0  -0.068493  0  3.697828  0  0  -0.054123  0  3.928306  0  0  -0.061004  0  3.950203  0  0  -0.008404  -0.049601  0  3.913407  0
C  C52  1  0.38912988  0.94042146  0.06627059  1  0  -0.068282  0  3.734111  0  0  -0.090563  0  3.981316  0  0  -0.091241  0  4.003566  0  0  -0.080463  -0.089911  0  3.966112  0
C  C53  1  0.61087565  0.05957800  0.93372693  1  0  -0.068192  0  3.733911  0  0  -0.09048  0  3.981084  0  0  -0.091156  0  4.003341  0  0  -0.08047  -0.089823  0  3.965874  0
C  C54  1  0.30075183  0.87383948  0.95959577  1  0  -0.054102  0  3.745774  0  0  -0.069315  0  4.001518  0  0  -0.071721  0  4.021557  0  0  -0.081726  -0.067652  0  3.987817  0
C  C55  1  0.69925246  0.12616093  0.04040138  1  0  -0.054142  0  3.74588  0  0  -0.069325  0  4.001608  0  0  -0.071737  0  4.021647  0  0  -0.081719  -0.06766  0  3.9879  0
C  C56  1  0.19216668  0.89227570  0.94884766  1  0  -0.039492  0  3.722281  0  0  -0.058664  0  3.98036  0  0  -0.058573  0  3.998869  0  0  -0.07688  -0.058529  0  3.967577  0
C  C57  1  0.80783182  0.10771997  0.05115184  1  0  -0.039315  0  3.722317  0  0  -0.058534  0  3.980477  0  0  -0.058431  0  3.998983  0  0  -0.076858  -0.058397  0  3.967689  0
C  C58  1  0.17373093  0.97866367  0.04535698  1  0  -0.070982  0  3.723343  0  0  -0.094411  0  3.974923  0  0  -0.096379  0  3.99521  0  0  -0.078222  -0.093022  0  3.960902  0
C  C59  1  0.82626920  0.02133003  0.95464024  1  0  -0.070997  0  3.723278  0  0  -0.094425  0  3.974856  0  0  -0.096396  0  3.995141  0  0  -0.078224  -0.093028  0  3.960834  0
C  C60  1  0.26318349  0.04828123  0.15275803  1  0  -0.072574  0  3.704294  0  0  -0.058442  0  3.936362  0  0  -0.063705  0  3.958139  0  0  -0.006174  -0.05473  0  3.921238  0
C  C61  1  0.73681539  0.95171344  0.84723882  1  0  -0.072595  0  3.704392  0  0  -0.058461  0  3.936451  0  0  -0.063722  0  3.958226  0  0  -0.006116  -0.054764  0  3.921345  0
C  C62  1  0.23968682  0.14634177  0.24768575  1  0  0.729232  0  3.841274  0  0  0.679341  0  4.135295  0  0  0.71451  0  4.126032  0  0  0.242812  0.655065  0  4.143775  0
C  C63  1  0.76031740  0.85365674  0.75231283  1  0  0.729054  0  3.841401  0  0  0.679128  0  4.135477  0  0  0.714296  0  4.126215  0  0  0.242694  0.654857  0  4.143954  0
C  C64  1  0.04832694  0.16435356  0.66177478  1  0  0.71559  0  3.858774  0  0  0.665535  0  4.152922  0  0  0.701181  0  4.143058  0  0  0.238043  0.6412  0  4.160964  0
C  C65  1  0.95166923  0.83564788  0.33822413  1  0  0.715572  0  3.858406  0  0  0.665405  0  4.15275  0  0  0.701051  0  4.142888  0  0  0.23801  0.641087  0  4.160766  0
C  C66  1  0.02009750  0.21813779  0.77623139  1  0  -0.082984  0  3.72627  0  0  -0.070764  0  3.961266  0  0  -0.076782  0  3.981903  0  0  -0.008558  -0.066692  0  3.94716  0
C  C67  1  0.97990039  0.78186364  0.22376755  1  0  -0.083047  0  3.726099  0  0  -0.070783  0  3.961144  0  0  -0.076802  0  3.98178  0  0  -0.008576  -0.066713  0  3.947033  0
C  C68  1  0.92127281  0.25504394  0.79052669  1  0  -0.048863  0  3.7101  0  0  -0.033586  0  3.937518  0  0  -0.03809  0  3.957998  0  0  -0.003819  -0.030625  0  3.92353  0
C  C69  1  0.07873176  0.74496231  0.20947517  1  0  -0.048893  0  3.709933  0  0  -0.033687  0  3.937453  0  0  -0.038193  0  3.957932  0  0  -0.003886  -0.03073  0  3.923472  0
C  C70  1  0.90727595  0.31885983  0.90049691  1  0  -0.07028  0  3.730014  0  0  -0.092566  0  3.977655  0  0  -0.094453  0  3.999804  0  0  -0.079802  -0.091276  0  3.962713  0
C  C71  1  0.09272119  0.68114357  0.09950508  1  0  -0.070033  0  3.729954  0  0  -0.092309  0  3.977618  0  0  -0.094194  0  3.999768  0  0  -0.079697  -0.091018  0  3.962676  0
C  C72  1  0.99006769  0.34570875  0.99605483  1  0  -0.054419  0  3.767476  0  0  -0.070465  0  4.021046  0  0  -0.071604  0  4.042215  0  0  -0.0804  -0.069532  0  4.006542  0
C  C73  1  0.00993282  0.65429272  0.00394791  1  0  -0.054375  0  3.767437  0  0  -0.070474  0  4.020993  0  0  -0.071624  0  4.042187  0  0  -0.080394  -0.069538  0  4.006481  0
C  C74  1  0.08642720  0.30699048  0.98153611  1  0  -0.066764  0  3.772449  0  0  -0.079972  0  4.026031  0  0  -0.08274  0  4.047188  0  0  -0.086358  -0.078078  0  4.011496  0
C  C75  1  0.91357704  0.69301861  0.01846247  1  0  -0.066693  0  3.772358  0  0  -0.079899  0  4.025947  0  0  -0.08271  0  4.047098  0  0  -0.086307  -0.078  0  4.011403  0
C  C76  1  0.10110275  0.24295631  0.87205413  1  0  -0.072151  0  3.734741  0  0  -0.097447  0  3.988581  0  0  -0.097296  0  4.008105  0  0  -0.080331  -0.097428  0  3.975378  0
C  C77  1  0.89890361  0.75705183  0.12794633  1  0  -0.072115  0  3.734638  0  0  -0.09741  0  3.988419  0  0  -0.097262  0  4.007962  0  0  -0.080317  -0.097391  0  3.975214  0
C  C78  1  0.82677347  0.22035393  0.68868896  1  0  0.665736  0  3.894536  0  0  0.616606  0  4.1918  0  0  0.651083  0  4.181611  0  0  0.204191  0.593342  0  4.197636  0
C  C79  1  0.17322981  0.77965142  0.31131771  1  0  0.665766  0  3.894581  0  0  0.61662  0  4.191884  0  0  0.651099  0  4.181696  0  0  0.204204  0.593358  0  4.19772  0
C  C80  1  0.72866980  0.95402297  0.24988018  1  0  0.680179  0  3.894479  0  0  0.630113  0  4.190831  0  0  0.664512  0  4.184246  0  0  0.211754  0.606429  0  4.197126  0
C  C81  1  0.27132938  0.04597754  0.75012287  1  0  0.680503  0  3.894161  0  0  0.63031  0  4.190679  0  0  0.664706  0  4.184095  0  0  0.211796  0.606616  0  4.196976  0
C  C82  1  0.49408552  0.81729788  0.32767218  1  0  0.747235  0  3.833836  0  0  0.69634  0  4.126069  0  0  0.733097  0  4.111467  0  0  0.244883  0.67151  0  4.135489  0
C  C83  1  0.50591182  0.18270067  0.67232702  1  0  0.747262  0  3.833829  0  0  0.696432  0  4.125969  0  0  0.73319  0  4.111367  0  0  0.244933  0.671585  0  4.135408  0
C  C84  1  0.50349933  0.76688959  0.20611624  1  0  -0.028773  0  3.652408  0  0  -0.01527  0  3.880175  0  0  -0.018155  0  3.89876  0  0  0.01194  -0.013391  0  3.8675  0
C  C85  1  0.49649723  0.23311089  0.79388302  1  0  -0.028836  0  3.65228  0  0  -0.015347  0  3.88002  0  0  -0.018228  0  3.898601  0  0  0.011886  -0.013474  0  3.867334  0
C  C86  1  0.60677298  0.83314625  0.16899186  1  0  -0.066516  0  3.696621  0  0  -0.052223  0  3.928028  0  0  -0.058587  0  3.947886  0  0  -0.001726  -0.048201  0  3.914754  0
C  C87  1  0.39322131  0.16685136  0.83100763  1  0  -0.066727  0  3.696593  0  0  -0.052388  0  3.928028  0  0  -0.05876  0  3.947893  0  0  -0.001714  -0.04833  0  3.914708  0
C  C88  1  0.60133206  0.77846485  0.05170173  1  0  -0.058114  0  3.719161  0  0  -0.079387  0  3.964742  0  0  -0.078994  0  3.984124  0  0  -0.075178  -0.079379  0  3.95142  0
C  C89  1  0.39866420  0.22153853  0.94829875  1  0  -0.057952  0  3.719017  0  0  -0.079223  0  3.964571  0  0  -0.078829  0  3.98396  0  0  -0.07518  -0.079229  0  3.951245  0
C  C90  1  0.49620687  0.65977246  0.97240135  1  0  -0.075964  0  3.784305  0  0  -0.089535  0  4.033409  0  0  -0.092853  0  4.054221  0  0  -0.089515  -0.087229  0  4.019065  0
C  C91  1  0.50379033  0.34023284  0.02759921  1  0  -0.075997  0  3.78429  0  0  -0.08958  0  4.033405  0  0  -0.092909  0  4.054214  0  0  -0.089489  -0.087276  0  4.019071  0
C  C92  1  0.39524159  0.59228708  0.00951982  1  0  -0.055331  0  3.768501  0  0  -0.069052  0  4.016855  0  0  -0.069507  0  4.038038  0  0  -0.084279  -0.068409  0  4.002253  0
C  C93  1  0.60475369  0.40771433  0.99047608  1  0  -0.05529  0  3.768762  0  0  -0.069017  0  4.017115  0  0  -0.069473  0  4.038304  0  0  -0.084247  -0.068385  0  4.002515  0
C  C94  1  0.39944919  0.64573886  0.12595350  1  0  -0.081577  0  3.713402  0  0  -0.104989  0  3.964454  0  0  -0.107618  0  3.984655  0  0  -0.078542  -0.103252  0  3.950795  0
C  C95  1  0.60054928  0.35426549  0.87404817  1  0  -0.081551  0  3.713594  0  0  -0.104958  0  3.964627  0  0  -0.107587  0  3.984828  0  0  -0.078536  -0.10322  0  3.950968  0
C  C96  1  0.89148744  0.31649133  0.39444866  1  0  0.732802  0  3.820842  0  0  0.686892  0  4.124979  0  0  0.720122  0  4.120099  0  0  0.214755  0.663873  0  4.13025  0
C  C97  1  0.10851431  0.68350918  0.60555444  1  0  0.732962  0  3.820854  0  0  0.687017  0  4.124995  0  0  0.720245  0  4.120119  0  0  0.21486  0.663998  0  4.130269  0
C  C98  1  0.82504236  0.39253623  0.38978957  1  0  -0.31707  0  3.603264  0  0  -0.358504  0  3.846835  0  0  -0.364715  0  3.85201  0  0  -0.152258  -0.353853  0  3.842499  0
C  C99  1  0.17496252  0.60746712  0.61021182  1  0  -0.317135  0  3.603369  0  0  -0.358552  0  3.846849  0  0  -0.364761  0  3.852033  0  0  -0.152281  -0.353903  0  3.842512  0
C  C100  1  0.76819022  0.44117665  0.49313163  1  0  0.17441  0  3.730061  0  0  0.151927  0  3.980019  0  0  0.155805  0  3.989367  0  0  -0.002168  0.149337  0  3.973679  0
C  C101  1  0.23181057  0.55882190  0.50686839  1  0  0.17425  0  3.730206  0  0  0.151863  0  3.980002  0  0  0.15573  0  3.989336  0  0  -0.002178  0.149281  0  3.973665  0
C  C102  1  0.72490053  0.53228002  0.48449313  1  0  0.689726  0  3.807855  0  0  0.643553  0  4.104737  0  0  0.677436  0  4.097707  0  0  0.234054  0.620064  0  4.113146  0
C  C103  1  0.27510464  0.46772043  0.51550704  1  0  0.689706  0  3.807861  0  0  0.643456  0  4.104821  0  0  0.677368  0  4.097753  0  0  0.233961  0.619963  0  4.113236  0
O  O104  1  0.42854051  0.11572608  0.36885352  1  0  -0.806499  0  2.107452  0  0  -0.747265  0  2.363393  0  0  -0.776053  0  2.350548  0  0  -0.430702  -0.730194  0  2.371272  0
O  O105  1  0.57145691  0.88426566  0.63113909  1  0  -0.806358  0  2.107432  0  0  -0.747118  0  2.363364  0  0  -0.775903  0  2.350526  0  0  -0.430613  -0.730053  0  2.371255  0
O  O106  1  0.21794787  0.12071141  0.46922190  1  0  -0.94161  0  1.866654  0  0  -0.896406  0  2.074735  0  0  -0.922225  0  2.038491  0  0  -0.60724  -0.883836  0  2.098332  0
O  O107  1  0.78205089  0.87929002  0.53077780  1  0  -0.94156  0  1.866683  0  0  -0.896341  0  2.074744  0  0  -0.922153  0  2.038504  0  0  -0.607204  -0.883769  0  2.098339  0
O  O108  1  0.58092965  0.09751466  0.27519944  1  0  -0.662677  0  1.969435  0  0  -0.616831  0  2.210533  0  0  -0.640491  0  2.20261  0  0  -0.351623  -0.600142  0  2.215515  0
O  O109  1  0.41906993  0.90247616  0.72479804  1  0  -0.662619  0  1.969417  0  0  -0.616759  0  2.210542  0  0  -0.640397  0  2.202572  0  0  -0.351597  -0.600072  0  2.215525  0
O  O110  1  0.33827654  0.36201864  0.68079981  1  0  -0.854586  0  1.84976  0  0  -0.808285  0  2.027112  0  0  -0.829258  0  1.997738  0  0  -0.607111  -0.796329  0  2.045635  0
O  O111  1  0.66172235  0.63797603  0.31919780  1  0  -0.854523  0  1.84988  0  0  -0.808211  0  2.027168  0  0  -0.829179  0  1.997798  0  0  -0.607098  -0.796251  0  2.045691  0
O  O112  1  0.60281941  0.53232180  0.70434003  1  0  -0.877003  0  1.800301  0  0  -0.832111  0  1.976655  0  0  -0.853229  0  1.947246  0  0  -0.601613  -0.819965  0  1.995428  0
O  O113  1  0.39717776  0.46767291  0.29565904  1  0  -0.877001  0  1.800269  0  0  -0.832136  0  1.976633  0  0  -0.85325  0  1.947223  0  0  -0.601681  -0.819991  0  1.995403  0
O  O114  1  0.33850391  0.25856136  0.31536240  1  0  -0.774412  0  2.062681  0  0  -0.713512  0  2.304446  0  0  -0.742338  0  2.289574  0  0  -0.396654  -0.696853  0  2.314013  0
O  O115  1  0.66149810  0.74143618  0.68463424  1  0  -0.774423  0  2.062649  0  0  -0.713524  0  2.30444  0  0  -0.742347  0  2.289575  0  0  -0.396709  -0.696862  0  2.314005  0
O  O116  1  0.12246249  0.11684161  0.25396464  1  0  -0.707185  0  2.001534  0  0  -0.656055  0  2.251589  0  0  -0.686167  0  2.237428  0  0  -0.388839  -0.639022  0  2.259585  0
O  O117  1  0.87754321  0.88315988  0.74604194  1  0  -0.707019  0  2.00152  0  0  -0.655888  0  2.251604  0  0  -0.685998  0  2.237445  0  0  -0.38871  -0.63887  0  2.259627  0
O  O118  1  0.05337655  0.22042397  0.60343023  1  0  -0.731981  0  2.024188  0  0  -0.675474  0  2.270868  0  0  -0.704379  0  2.256376  0  0  -0.3872  -0.658679  0  2.279612  0
O  O119  1  0.94661925  0.77957847  0.39657133  1  0  -0.732001  0  2.023966  0  0  -0.675477  0  2.270734  0  0  -0.704382  0  2.256241  0  0  -0.387265  -0.658685  0  2.279471  0
O  O120  1  0.07458629  0.07148581  0.62930352  1  0  -0.737001  0  2.074517  0  0  -0.678281  0  2.325471  0  0  -0.708602  0  2.312207  0  0  -0.379061  -0.660815  0  2.333764  0
O  O121  1  0.92541650  0.92851854  0.37069974  1  0  -0.736935  0  2.074479  0  0  -0.678169  0  2.325483  0  0  -0.708489  0  2.31222  0  0  -0.378979  -0.66071  0  2.333775  0
O  O122  1  0.78181825  0.10759844  0.60004404  1  0  -0.704373  0  2.009781  0  0  -0.648171  0  2.247457  0  0  -0.673077  0  2.238221  0  0  -0.355814  -0.630761  0  2.254094  0
O  O123  1  0.21817247  0.89240413  0.39996566  1  0  -0.704494  0  2.00983  0  0  -0.648198  0  2.247404  0  0  -0.673101  0  2.238166  0  0  -0.355856  -0.630789  0  2.254041  0
O  O124  1  0.79106961  0.30055930  0.69168596  1  0  -0.671682  0  1.910538  0  0  -0.625875  0  2.139218  0  0  -0.648464  0  2.12928  0  0  -0.365322  -0.609751  0  2.145428  0
O  O125  1  0.20894126  0.69945274  0.30831996  1  0  -0.67167  0  1.910801  0  0  -0.625861  0  2.139482  0  0  -0.648449  0  2.129545  0  0  -0.365308  -0.609739  0  2.145692  0
O  O126  1  0.73880521  0.00749186  0.35864664  1  0  -0.795995  0  2.113598  0  0  -0.736955  0  2.366552  0  0  -0.765138  0  2.357067  0  0  -0.419256  -0.719341  0  2.372897  0
O  O127  1  0.26119493  0.99251060  0.64135874  1  0  -0.796069  0  2.113493  0  0  -0.736986  0  2.366505  0  0  -0.765168  0  2.357022  0  0  -0.419268  -0.719375  0  2.372855  0
O  O128  1  0.82452264  0.99757171  0.21054477  1  0  -0.670379  0  1.985266  0  0  -0.622478  0  2.227428  0  0  -0.650613  0  2.218495  0  0  -0.362756  -0.606041  0  2.232939  0
O  O129  1  0.17547569  0.00242883  0.78945977  1  0  -0.670484  0  1.985064  0  0  -0.622552  0  2.227317  0  0  -0.650688  0  2.218387  0  0  -0.362737  -0.606103  0  2.232808  0
O  O130  1  0.48417352  0.74934029  0.37443484  1  0  -0.773988  0  2.122466  0  0  -0.717511  0  2.38316  0  0  -0.746768  0  2.368188  0  0  -0.414802  -0.700673  0  2.391581  0
O  O131  1  0.51582092  0.25065240  0.62555587  1  0  -0.774048  0  2.122494  0  0  -0.71758  0  2.383169  0  0  -0.746847  0  2.368193  0  0  -0.414875  -0.700735  0  2.391593  0
O  O132  1  0.48022812  0.91772171  0.37861300  1  0  -0.778245  0  2.11698  0  0  -0.722847  0  2.370304  0  0  -0.74719  0  2.359348  0  0  -0.410949  -0.705211  0  2.376877  0
O  O133  1  0.51977204  0.08228078  0.62139463  1  0  -0.778192  0  2.117068  0  0  -0.722827  0  2.37038  0  0  -0.74716  0  2.359404  0  0  -0.410902  -0.705188  0  2.37696  0
O  O134  1  0.87283984  0.27446935  0.46703858  1  0  -0.802958  0  2.048387  0  0  -0.744463  0  2.30593  0  0  -0.773058  0  2.294681  0  0  -0.441016  -0.726996  0  2.313316  0
O  O135  1  0.12716134  0.72552823  0.53296179  1  0  -0.803049  0  2.048431  0  0  -0.744562  0  2.306012  0  0  -0.773158  0  2.294766  0  0  -0.441125  -0.727092  0  2.313391  0
O  O136  1  0.96350326  0.29350337  0.32836005  1  0  -0.665676  0  1.923586  0  0  -0.622555  0  2.154739  0  0  -0.64949  0  2.144228  0  0  -0.345954  -0.606527  0  2.161329  0
O  O137  1  0.03649933  0.70649710  0.67164083  1  0  -0.66567  0  1.92363  0  0  -0.622538  0  2.154799  0  0  -0.649474  0  2.144295  0  0  -0.345921  -0.606509  0  2.161388  0
O  O138  1  0.66266844  0.34302147  0.49966313  1  0  -0.922249  0  2.158964  0  0  -0.856264  0  2.42529  0  0  -0.883204  0  2.417253  0  0  -0.592679  -0.839833  0  2.429414  0
O  O139  1  0.33733557  0.65698189  0.50033824  1  0  -0.922194  0  2.158983  0  0  -0.856241  0  2.425268  0  0  -0.883176  0  2.417239  0  0  -0.59266  -0.83981  0  2.429393  0
O  O140  1  0.60089342  0.49335075  0.46116666  1  0  -0.78492  0  2.127655  0  0  -0.725502  0  2.379593  0  0  -0.757699  0  2.366531  0  0  -0.426849  -0.709023  0  2.387667  0
O  O141  1  0.39911051  0.50665067  0.53883390  1  0  -0.78479  0  2.127568  0  0  -0.725345  0  2.379527  0  0  -0.757556  0  2.366456  0  0  -0.426753  -0.708865  0  2.387603  0
O  O142  1  0.80754356  0.64149601  0.49994480  1  0  -0.763919  0  2.133078  0  0  -0.715505  0  2.401751  0  0  -0.7467  0  2.387582  0  0  -0.393879  -0.699051  0  2.411121  0
O  O143  1  0.19246201  0.35850350  0.50005721  1  0  -0.763966  0  2.133047  0  0  -0.715525  0  2.401722  0  0  -0.74674  0  2.387557  0  0  -0.393838  -0.699064  0  2.411079  0
