# generated using pymatgen
data_SmH9C9NO11
_symmetry_space_group_name_H-M   'P 1'
_cell_length_a   7.72969808
_cell_length_b   8.07309917
_cell_length_c   10.59207976
_cell_angle_alpha   103.74931982
_cell_angle_beta   99.62764889
_cell_angle_gamma   93.21935270
_symmetry_Int_Tables_number   1
_chemical_formula_structural   SmH9C9NO11
_chemical_formula_sum   'Sm2 H18 C18 N2 O22'
_cell_volume   629.80814849
_cell_formula_units_Z   2
loop_
 _symmetry_equiv_pos_site_id
 _symmetry_equiv_pos_as_xyz
  1  'x, y, z'
loop_
 _atom_site_type_symbol
 _atom_site_label
 _atom_site_symmetry_multiplicity
 _atom_site_fract_x
 _atom_site_fract_y
 _atom_site_fract_z
 _atom_site_occupancy
 _atom_site_hle17_bader_spin_density
 _atom_site_hle17_ddec_charge
 _atom_site_hle17_ddec_spin_density
 _atom_site_hle17_ddec_sum_bond_order
 _atom_site_hle17_magmom
 _atom_site_hse06_10hf_bader_spin_density
 _atom_site_hse06_10hf_ddec_charge
 _atom_site_hse06_10hf_ddec_spin_density
 _atom_site_hse06_10hf_ddec_sum_bond_order
 _atom_site_hse06_10hf_magmom
 _atom_site_hse06_bader_spin_density
 _atom_site_hse06_ddec_charge
 _atom_site_hse06_ddec_spin_density
 _atom_site_hse06_ddec_sum_bond_order
 _atom_site_hse06_magmom
 _atom_site_pbe_bader_spin_density
 _atom_site_pbe_cm5_charge
 _atom_site_pbe_ddec_charge
 _atom_site_pbe_ddec_spin_density
 _atom_site_pbe_ddec_sum_bond_order
 _atom_site_pbe_magmom
Sm  Sm0  1  0.69499071  0.68112285  0.87209683  1  0  2.269888  0  1.590368  0  0  2.180789  0  1.920754  0  0  2.222387  0  1.88331  0  0  1.474541  2.071325  0  2.09552  0
Sm  Sm1  1  0.30501794  0.31887295  0.12790178  1  0  2.269996  0  1.590278  0  0  2.180894  0  1.920637  0  0  2.222496  0  1.883199  0  0  1.474597  2.071472  0  2.095323  0
H  H2  1  0.67321152  0.94161231  0.64643481  1  0  0.14606  0  0.936288  0  0  0.151107  0  1.002767  0  0  0.156134  0  0.997259  0  0  0.126305  0.147755  0  1.006002  0
H  H3  1  0.32678327  0.05838977  0.35356144  1  0  0.14608  0  0.936288  0  0  0.15108  0  1.002827  0  0  0.156118  0  0.99729  0  0  0.126292  0.147727  0  1.006064  0
H  H4  1  0.81556695  0.14741336  0.32963799  1  0  0.137654  0  0.917314  0  0  0.144164  0  0.978659  0  0  0.148499  0  0.974654  0  0  0.140001  0.140747  0  0.982128  0
H  H5  1  0.18443148  0.85258493  0.67036272  1  0  0.137628  0  0.91732  0  0  0.144136  0  0.978674  0  0  0.14847  0  0.974669  0  0  0.139986  0.140718  0  0.982143  0
H  H6  1  0.85947236  0.63343496  0.31093703  1  0  0.115773  0  0.94586  0  0  0.119886  0  1.015034  0  0  0.12436  0  1.009674  0  0  0.136133  0.116281  0  1.019635  0
H  H7  1  0.14052644  0.36656718  0.68906536  1  0  0.115807  0  0.945885  0  0  0.119901  0  1.015068  0  0  0.124372  0  1.009718  0  0  0.136157  0.116298  0  1.019668  0
H  H8  1  0.87115895  0.87560505  0.22378047  1  0  0.31679  0  0.917866  0  0  0.292346  0  0.982503  0  0  0.303171  0  0.974103  0  0  0.314611  0.284295  0  0.988919  0
H  H9  1  0.12884114  0.12439709  0.77622017  1  0  0.31675  0  0.917888  0  0  0.292305  0  0.982542  0  0  0.303138  0  0.974128  0  0  0.314613  0.284255  0  0.988956  0
H  H10  1  0.30518057  0.59531169  0.84843928  1  0  0.431327  0  0.861236  0  0  0.40321  0  0.923062  0  0  0.413629  0  0.907653  0  0  0.299935  0.395521  0  0.93417  0
H  H11  1  0.69482132  0.40469558  0.15156250  1  0  0.431282  0  0.861217  0  0  0.403178  0  0.923081  0  0  0.413597  0  0.907672  0  0  0.299923  0.39549  0  0.934187  0
H  H12  1  0.32098714  0.60037665  0.70254651  1  0  0.423613  0  0.880882  0  0  0.393299  0  0.94488  0  0  0.403765  0  0.929474  0  0  0.295858  0.385794  0  0.955645  0
H  H13  1  0.67901208  0.39963059  0.29745212  1  0  0.423638  0  0.88085  0  0  0.393313  0  0.944867  0  0  0.403782  0  0.929458  0  0  0.295877  0.385809  0  0.955632  0
H  H14  1  0.54421487  0.30144344  0.84719754  1  0  0.444655  0  0.849057  0  0  0.414133  0  0.911101  0  0  0.425611  0  0.894213  0  0  0.29839  0.405553  0  0.923494  0
H  H15  1  0.45578176  0.69854971  0.15280204  1  0  0.444659  0  0.849043  0  0  0.414137  0  0.911076  0  0  0.425608  0  0.8942  0  0  0.298392  0.405566  0  0.923457  0
H  H16  1  0.62591970  0.30534960  0.71834881  1  0  0.433688  0  0.861342  0  0  0.402807  0  0.924559  0  0  0.413534  0  0.908756  0  0  0.300358  0.395052  0  0.935729  0
H  H17  1  0.37407096  0.69464990  0.28165028  1  0  0.433609  0  0.861452  0  0  0.402749  0  0.924639  0  0  0.413476  0  0.908835  0  0  0.300298  0.394982  0  0.93582  0
H  H18  1  0.73232246  0.32606910  0.52529818  1  0  0.390758  0  0.909014  0  0  0.356185  0  0.990027  0  0  0.369122  0  0.977249  0  0  0.301093  0.34701  0  0.999065  0
H  H19  1  0.26767488  0.67393174  0.47470192  1  0  0.390703  0  0.909078  0  0  0.356185  0  0.990031  0  0  0.369121  0  0.977253  0  0  0.301106  0.347002  0  0.999078  0
C  C20  1  0.72779485  0.61180874  0.53650886  1  0  0.724513  0  3.825641  0  0  0.671233  0  4.118118  0  0  0.707247  0  4.107051  0  0  0.249434  0.646471  0  4.123269  0
C  C21  1  0.27220380  0.38819211  0.46349045  1  0  0.724514  0  3.825494  0  0  0.671195  0  4.118037  0  0  0.707205  0  4.106973  0  0  0.249454  0.646427  0  4.123194  0
C  C22  1  0.75831147  0.76740022  0.48551044  1  0  -0.095319  0  3.750401  0  0  -0.073367  0  3.997283  0  0  -0.084152  0  4.0178  0  0  -0.00033  -0.067242  0  3.984944  0
C  C23  1  0.24168445  0.23259933  0.51449021  1  0  -0.09527  0  3.750357  0  0  -0.073313  0  3.997254  0  0  -0.084099  0  4.017774  0  0  -0.00033  -0.067181  0  3.984907  0
C  C24  1  0.71989308  0.92725274  0.55313605  1  0  -0.104863  0  3.602012  0  0  -0.147414  0  3.861298  0  0  -0.142901  0  3.874044  0  0  -0.055494  -0.149881  0  3.852868  0
C  C25  1  0.28009935  0.07275189  0.44686227  1  0  -0.104848  0  3.602091  0  0  -0.14733  0  3.861242  0  0  -0.142813  0  3.87399  0  0  -0.055469  -0.149801  0  3.852816  0
C  C26  1  0.74253557  0.07114199  0.50200311  1  0  0.300956  0  3.843925  0  0  0.291357  0  4.113875  0  0  0.297638  0  4.132805  0  0  0.099353  0.286317  0  4.101436  0
C  C27  1  0.25746345  0.92886271  0.49799788  1  0  0.300794  0  3.844021  0  0  0.291289  0  4.113868  0  0  0.29757  0  4.1328  0  0  0.09936  0.286237  0  4.101439  0
C  C28  1  0.79883253  0.04644455  0.38024705  1  0  0.013363  0  3.54268  0  0  -0.033963  0  3.801302  0  0  -0.028998  0  3.815517  0  0  0.057412  -0.036979  0  3.79223  0
C  C29  1  0.20116469  0.95355501  0.61975280  1  0  0.013417  0  3.542588  0  0  -0.033912  0  3.801182  0  0  -0.028946  0  3.815396  0  0  0.05741  -0.036928  0  3.792116  0
C  C30  1  0.82067159  0.75167153  0.36752088  1  0  0.124168  0  3.598076  0  0  0.066916  0  3.859689  0  0  0.077591  0  3.871768  0  0  0.066723  0.05977  0  3.852765  0
C  C31  1  0.17932203  0.24833183  0.63247735  1  0  0.124144  0  3.59801  0  0  0.066877  0  3.85971  0  0  0.07755  0  3.871789  0  0  0.066654  0.059728  0  3.852788  0
C  C32  1  0.52219292  0.04563684  0.94672248  1  0  0.575729  0  3.891921  0  0  0.530067  0  4.19582  0  0  0.560346  0  4.185778  0  0  0.222087  0.509698  0  4.195388  0
C  C33  1  0.47781410  0.95434228  0.05326917  1  0  0.575057  0  3.892678  0  0  0.529656  0  4.196283  0  0  0.559933  0  4.186244  0  0  0.221909  0.509287  0  4.195849  0
C  C34  1  0.04812272  0.50427516  0.94159773  1  0  0.55612  0  3.923601  0  0  0.511167  0  4.230623  0  0  0.541163  0  4.22055  0  0  0.215682  0.49161  0  4.228207  0
C  C35  1  0.95188373  0.49572572  0.05839682  1  0  0.556235  0  3.923596  0  0  0.511238  0  4.230666  0  0  0.541248  0  4.220584  0  0  0.215788  0.491679  0  4.228249  0
C  C36  1  0.99023338  0.99765065  0.07074895  1  0  0.568532  0  3.903815  0  0  0.52455  0  4.207568  0  0  0.554608  0  4.197169  0  0  0.218842  0.50433  0  4.207329  0
C  C37  1  0.00976941  0.00235153  0.92925674  1  0  0.568524  0  3.9042  0  0  0.524588  0  4.207864  0  0  0.554655  0  4.197449  0  0  0.218819  0.504367  0  4.207629  0
N  N38  1  0.83592037  0.88981797  0.31950610  1  0  -0.181251  0  3.494272  0  0  -0.109155  0  3.727548  0  0  -0.123951  0  3.743912  0  0  -0.33296  -0.099718  0  3.717548  0
N  N39  1  0.16407854  0.11018544  0.68049464  1  0  -0.181272  0  3.494152  0  0  -0.109184  0  3.72747  0  0  -0.123982  0  3.743826  0  0  -0.332974  -0.099748  0  3.717476  0
O  O40  1  0.66667781  0.62985658  0.64155595  1  0  -0.703008  0  2.021401  0  0  -0.658135  0  2.274341  0  0  -0.682193  0  2.261586  0  0  -0.397469  -0.629722  0  2.286799  0
O  O41  1  0.33332174  0.37014041  0.35843899  1  0  -0.702972  0  2.021144  0  0  -0.658104  0  2.274127  0  0  -0.682163  0  2.261375  0  0  -0.39749  -0.629696  0  2.286584  0
O  O42  1  0.76264844  0.46873931  0.46782833  1  0  -0.612713  0  2.01398  0  0  -0.549743  0  2.22831  0  0  -0.576145  0  2.217598  0  0  -0.292291  -0.531791  0  2.236003  0
O  O43  1  0.23734730  0.53125893  0.53216734  1  0  -0.612715  0  2.014104  0  0  -0.549733  0  2.228418  0  0  -0.576122  0  2.217698  0  0  -0.292279  -0.531773  0  2.236115  0
O  O44  1  0.70972350  0.22441925  0.56971351  1  0  -0.526037  0  2.189211  0  0  -0.461829  0  2.402683  0  0  -0.485554  0  2.396887  0  0  -0.323937  -0.445107  0  2.406719  0
O  O45  1  0.29027041  0.77558669  0.43028805  1  0  -0.525857  0  2.189233  0  0  -0.461821  0  2.40275  0  0  -0.485549  0  2.396958  0  0  -0.323914  -0.445067  0  2.406759  0
O  O46  1  0.60839815  0.96880209  0.86384544  1  0  -0.652541  0  2.063661  0  0  -0.614314  0  2.30637  0  0  -0.6368  0  2.297122  0  0  -0.361681  -0.590333  0  2.314889  0
O  O47  1  0.39160503  0.03117703  0.13615332  1  0  -0.652369  0  2.063674  0  0  -0.614179  0  2.306196  0  0  -0.63667  0  2.296952  0  0  -0.361571  -0.590206  0  2.314723  0
O  O48  1  0.46753998  0.19259054  0.95107369  1  0  -0.6614  0  2.083536  0  0  -0.60752  0  2.314248  0  0  -0.632257  0  2.305599  0  0  -0.353885  -0.581942  0  2.321735  0
O  O49  1  0.53246240  0.80739494  0.04891857  1  0  -0.661093  0  2.084073  0  0  -0.607329  0  2.314728  0  0  -0.63205  0  2.306065  0  0  -0.353806  -0.581748  0  2.322218  0
O  O50  1  0.96039046  0.53984095  0.84170547  1  0  -0.648989  0  2.050182  0  0  -0.612784  0  2.292864  0  0  -0.633786  0  2.282745  0  0  -0.371645  -0.589218  0  2.301331  0
O  O51  1  0.03962091  0.46015614  0.15829180  1  0  -0.64902  0  2.05005  0  0  -0.612791  0  2.292733  0  0  -0.633802  0  2.282611  0  0  -0.371704  -0.589228  0  2.301201  0
O  O52  1  0.20955048  0.47491237  0.95493465  1  0  -0.662306  0  2.046563  0  0  -0.614449  0  2.28079  0  0  -0.637762  0  2.270769  0  0  -0.355129  -0.58948  0  2.288124  0
O  O53  1  0.79046454  0.52509500  0.04506772  1  0  -0.662289  0  2.046749  0  0  -0.614475  0  2.281095  0  0  -0.637766  0  2.271012  0  0  -0.355145  -0.589509  0  2.288443  0
O  O54  1  0.89651071  0.86564274  0.07810769  1  0  -0.669058  0  2.13747  0  0  -0.621837  0  2.37299  0  0  -0.647805  0  2.366879  0  0  -0.347293  -0.595517  0  2.378176  0
O  O55  1  0.10349290  0.13436716  0.92190704  1  0  -0.669095  0  2.137411  0  0  -0.621894  0  2.372906  0  0  -0.647866  0  2.366787  0  0  -0.347403  -0.595576  0  2.378091  0
O  O56  1  0.06371242  0.11855230  0.16594720  1  0  -0.622767  0  2.043099  0  0  -0.587132  0  2.284997  0  0  -0.609056  0  2.277307  0  0  -0.339134  -0.563902  0  2.291081  0
O  O57  1  0.93630050  0.88145896  0.83406884  1  0  -0.622696  0  2.043564  0  0  -0.587076  0  2.285438  0  0  -0.608999  0  2.277739  0  0  -0.339035  -0.563845  0  2.291527  0
O  O58  1  0.36556662  0.65953510  0.79663591  1  0  -0.898828  0  1.872559  0  0  -0.864348  0  2.057444  0  0  -0.882444  0  2.026638  0  0  -0.63626  -0.842452  0  2.084016  0
O  O59  1  0.63442976  0.34046956  0.20336382  1  0  -0.898814  0  1.872518  0  0  -0.864331  0  2.057434  0  0  -0.88243  0  2.026624  0  0  -0.636269  -0.842435  0  2.084001  0
O  O60  1  0.57482674  0.37559224  0.78958102  1  0  -0.934531  0  1.862892  0  0  -0.897267  0  2.054089  0  0  -0.915069  0  2.020846  0  0  -0.649279  -0.874297  0  2.082989  0
O  O61  1  0.42516227  0.62440342  0.21041908  1  0  -0.934501  0  1.863003  0  0  -0.897209  0  2.054165  0  0  -0.915013  0  2.020933  0  0  -0.649219  -0.87425  0  2.083083  0
