# generated using pymatgen
data_ZnH5C12Br3NO10
_symmetry_space_group_name_H-M   'P 1'
_cell_length_a   8.37710367
_cell_length_b   8.92851110
_cell_length_c   15.80505941
_cell_angle_alpha   88.61061087
_cell_angle_beta   84.68433038
_cell_angle_gamma   88.60035800
_symmetry_Int_Tables_number   1
_chemical_formula_structural   ZnH5C12Br3NO10
_chemical_formula_sum   'Zn2 H10 C24 Br6 N2 O20'
_cell_volume   1176.41829721
_cell_formula_units_Z   2
loop_
 _symmetry_equiv_pos_site_id
 _symmetry_equiv_pos_as_xyz
  1  'x, y, z'
loop_
 _atom_site_type_symbol
 _atom_site_label
 _atom_site_symmetry_multiplicity
 _atom_site_fract_x
 _atom_site_fract_y
 _atom_site_fract_z
 _atom_site_occupancy
 _atom_site_pbe_bader_charge
 _atom_site_pbe_bader_spin_density
 _atom_site_pbe_cm5_charge
 _atom_site_pbe_ddec_charge
 _atom_site_pbe_ddec_spin_density
 _atom_site_pbe_ddec_sum_bond_order
 _atom_site_pbe_magmom
Zn  Zn0  1  0.67289531  0.52325248  0.49766399  1  1.314167  0  0.672981  0.859037  0  2.343322  0
Zn  Zn1  1  0.32877334  0.50292858  0.50344433  1  1.334844  0  0.679761  0.887671  0  2.327681  0
H  H2  1  0.61611020  0.64723476  0.89072795  1  0.189332  0  0.106644  0.117789  0  1.024902  0
H  H3  1  0.70745571  0.01485400  0.47031666  1  0.132625  0  0.117874  0.153284  0  0.980642  0
H  H4  1  0.01111415  0.40351938  0.55352072  1  0.48031  0  0.352965  0.30721  0  0.851052  0
H  H5  1  0.22413474  0.46124563  0.95709637  1  0.177852  0  0.124114  0.143761  0  1.032537  0
H  H6  1  0.92907914  0.62344766  0.94796586  1  0.625152  0  0.295194  0.34882  0  0.974166  0
H  H7  1  0.26916042  0.99263648  0.98867166  1  0.66598  0  0.328442  0.397218  0  0.894216  0
H  H8  1  0.01025433  0.37724103  0.11415092  1  0.622405  0  0.32468  0.37765  0  0.885689  0
H  H9  1  0.28866107  0.88128983  0.16151067  1  0.623018  0  0.3408  0.379423  0  0.85894  0
H  H10  1  0.34113994  0.83097124  0.83143801  1  0.621902  0  0.346662  0.38896  0  0.842496  0
H  H11  1  0.64061611  0.09999795  0.80397803  1  0.612488  0  0.35739  0.400958  0  0.819361  0
C  C12  1  0.50749070  0.79937350  0.51935176  1  1.618711  0  0.212501  0.604435  0  4.170489  0
C  C13  1  0.62697148  0.54537231  0.92927778  1  -0.082777  0  -0.082519  -0.081282  0  3.70322  0
C  C14  1  0.47486075  0.45277011  0.91939714  1  0.136529  0  0.009323  0.142961  0  3.791385  0
C  C15  1  0.48822203  0.29322753  0.96448101  1  0.004074  0  -0.002255  -0.181813  0  3.583081  0
C  C16  1  0.52395583  0.32558564  0.05939745  1  -0.003811  0  0.033357  0.130734  0  3.353703  0
C  C17  1  0.45467054  0.44691378  0.82905343  1  0.236836  0  -0.03616  -0.034606  0  4.046488  0
C  C18  1  0.51818011  0.51768627  0.17158185  1  -0.338358  0  -0.046064  -0.037196  0  4.092366  0
C  C19  1  0.50776356  0.51988586  0.24841133  1  0.264885  0  -0.02493  -0.113223  0  3.864232  0
C  C20  1  0.48686843  0.96553070  0.53417028  1  -0.11464  0  -0.012496  0.019978  0  3.859163  0
C  C21  1  0.59683359  0.06327686  0.50134224  1  0.028174  0  -0.091948  -0.24248  0  3.855275  0
C  C22  1  0.49629686  0.52000493  0.33977052  1  1.601339  0  0.232272  0.684831  0  4.179833  0
C  C23  1  0.58446048  0.22960526  0.50146049  1  1.579048  0  0.210456  0.662536  0  4.136946  0
C  C24  1  0.43910878  0.48288074  0.66322185  1  1.669785  0  0.222498  0.678927  0  4.205657  0
C  C25  1  0.64153294  0.58760819  0.02270402  1  -0.005335  0  0.004777  -0.032233  0  3.577481  0
C  C26  1  0.33264861  0.56756290  0.05743535  1  0.005277  0  0.007809  -0.113943  0  3.587737  0
C  C27  1  0.32125258  0.53939415  0.96107108  1  -0.030215  0  -0.082938  -0.201499  0  3.668023  0
C  C28  1  0.43775540  0.46448403  0.75413098  1  -0.451314  0  -0.039233  -0.15644  0  3.897627  0
C  C29  1  0.50504350  0.50405167  0.08141689  1  0.141134  0  0.014122  0.075095  0  3.7293  0
C  C30  1  0.80728803  0.59331050  0.06112881  1  1.607604  0  0.201552  0.520517  0  4.194224  0
C  C31  1  0.33245390  0.19940508  0.95656960  1  1.615979  0  0.229854  0.586063  0  4.078279  0
C  C32  1  0.19360508  0.49116596  0.11706959  1  1.56546  0  0.221544  0.558196  0  4.069938  0
C  C33  1  0.29121454  0.73405795  0.07900004  1  1.539424  0  0.233508  0.568574  0  4.086454  0
C  C34  1  0.27020531  0.66788529  0.90139737  1  1.551933  0  0.23239  0.618994  0  4.050437  0
C  C35  1  0.61032441  0.18262026  0.91280413  1  1.567484  0  0.217679  0.554715  0  4.107294  0
Br  Br36  1  0.81904849  0.44812568  0.86901602  1  -0.065066  0  0.069722  -0.003724  0  1.500675  0
Br  Br37  1  0.29402606  0.02118429  0.59963102  1  -0.030421  0  0.021491  -0.031481  0  1.410075  0
Br  Br38  1  0.01289071  0.69807068  0.39396561  1  0.284772  0  0.23549  0.163401  0  1.279448  0
Br  Br39  1  0.61306407  0.81257840  0.02344203  1  0.011446  0  0.087774  0.035203  0  1.63365  0
Br  Br40  1  0.74021840  0.25749867  0.08775177  1  -0.014443  0  0.057328  -0.0171  0  1.627276  0
Br  Br41  1  0.38731786  0.21104897  0.14727958  1  -0.042278  0  0.042059  -0.046124  0  1.547524  0
N  N42  1  0.06067640  0.48232206  0.50989928  1  -0.401232  0  -0.22675  -0.198153  0  3.128561  0
N  N43  1  0.95003433  0.55019172  0.47812538  1  -0.207249  0  -0.076716  0.075309  0  3.160987  0
O  O44  1  0.65145431  0.74826656  0.51038792  1  -1.144648  0  -0.317144  -0.542073  0  2.329862  0
O  O45  1  0.38055986  0.72679951  0.51514525  1  -1.166143  0  -0.317723  -0.564495  0  2.389554  0
O  O46  1  0.62691434  0.52947290  0.37434777  1  -1.146836  0  -0.308306  -0.541457  0  2.29862  0
O  O47  1  0.35503701  0.50987438  0.37740431  1  -1.137804  0  -0.310543  -0.539522  0  2.321054  0
O  O48  1  0.71724043  0.29907422  0.50204292  1  -1.144552  0  -0.333044  -0.562512  0  2.220113  0
O  O49  1  0.44734468  0.29115568  0.49840273  1  -1.167513  0  -0.315045  -0.568209  0  2.354614  0
O  O50  1  0.57631079  0.50591795  0.62420814  1  -1.146636  0  -0.311928  -0.550584  0  2.274664  0
O  O51  1  0.30547879  0.47550921  0.63054317  1  -1.133008  0  -0.317959  -0.541655  0  2.242838  0
O  O52  1  0.81912079  0.58029942  0.13702529  1  -1.117457  0  -0.27212  -0.437221  0  2.237753  0
O  O53  1  0.93443042  0.63478237  0.00961849  1  -1.135786  0  -0.337155  -0.455931  0  2.464249  0
O  O54  1  0.21327953  0.24220804  0.92431796  1  -1.10614  0  -0.257807  -0.413983  0  2.155935  0
O  O55  1  0.36233979  0.06010723  0.98432652  1  -1.169214  0  -0.336481  -0.513212  0  2.485661  0
O  O56  1  0.16458464  0.52114477  0.19130046  1  -1.09597  0  -0.26596  -0.43538  0  2.200297  0
O  O57  1  0.10698654  0.39708872  0.07559050  1  -1.119832  0  -0.334  -0.480459  0  2.429668  0
O  O58  1  0.21360501  0.81302800  0.03211955  1  -1.130524  0  -0.264097  -0.463296  0  2.265113  0
O  O59  1  0.32421849  0.77614288  0.15586898  1  -1.103701  0  -0.30844  -0.438682  0  2.372822  0
O  O60  1  0.14064299  0.67282132  0.87200763  1  -1.137104  0  -0.286692  -0.487161  0  2.163632  0
O  O61  1  0.38706594  0.76576157  0.87427710  1  -1.127557  0  -0.334905  -0.49508  0  2.330752  0
O  O62  1  0.71501532  0.10302352  0.93861509  1  -1.118616  0  -0.273143  -0.454649  0  2.305401  0
O  O63  1  0.56572681  0.17252292  0.83273422  1  -1.093788  0  -0.320513  -0.465393  0  2.315184  0
