# generated using pymatgen
data_Cu4H8(C7N8)3
_symmetry_space_group_name_H-M   'P 1'
_cell_length_a   24.65962921
_cell_length_b   24.76087989
_cell_length_c   24.89012031
_cell_angle_alpha   89.89371061
_cell_angle_beta   90.02924706
_cell_angle_gamma   89.91332864
_symmetry_Int_Tables_number   1
_chemical_formula_structural   Cu4H8(C7N8)3
_chemical_formula_sum   'Cu12 H24 C63 N72'
_cell_volume   15197.71549667
_cell_formula_units_Z   3
loop_
 _symmetry_equiv_pos_site_id
 _symmetry_equiv_pos_as_xyz
  1  'x, y, z'
loop_
 _atom_site_type_symbol
 _atom_site_label
 _atom_site_symmetry_multiplicity
 _atom_site_fract_x
 _atom_site_fract_y
 _atom_site_fract_z
 _atom_site_occupancy
 _atom_site_pbe_bader_charge
 _atom_site_pbe_bader_spin_density
 _atom_site_pbe_cm5_charge
 _atom_site_pbe_ddec_charge
 _atom_site_pbe_ddec_spin_density
 _atom_site_pbe_ddec_sum_bond_order
 _atom_site_pbe_magmom
Cu  Cu0  1  0.78191267  0.78327103  0.87222235  1  0.531804  0  0.499554  0.219799  0  2.090011  0
Cu  Cu1  1  0.87362838  0.78347341  0.78275823  1  0.547139  0  0.499526  0.219893  0  2.086396  0
Cu  Cu2  1  0.78168699  0.87433826  0.78230664  1  0.545989  0  0.499109  0.219633  0  2.085491  0
Cu  Cu3  1  0.78413101  0.21629637  0.12653177  1  0.568064  0  0.499822  0.219825  0  2.090208  0
Cu  Cu4  1  0.87493049  0.21679860  0.21723930  1  0.568444  0  0.499212  0.220052  0  2.085583  0
Cu  Cu5  1  0.78373728  0.12572046  0.21700903  1  0.545288  0  0.499246  0.219774  0  2.086107  0
Cu  Cu6  1  0.21661744  0.78293506  0.12900330  1  0.555359  0  0.499516  0.21981  0  2.089338  0
Cu  Cu7  1  0.12476030  0.78308606  0.21874462  1  0.54276  0  0.498941  0.220269  0  2.083379  0
Cu  Cu8  1  0.21635850  0.87381983  0.21865520  1  0.565684  0  0.49902  0.21984  0  2.085994  0
Cu  Cu9  1  0.21603372  0.21810671  0.87222382  1  0.553706  0  0.499187  0.219162  0  2.090082  0
Cu  Cu10  1  0.12439022  0.21866519  0.78230634  1  0.538835  0  0.499208  0.220121  0  2.084435  0
Cu  Cu11  1  0.21596175  0.12722912  0.78287107  1  0.529621  0  0.499397  0.220537  0  2.086507  0
H  H12  1  0.81759094  0.68117868  0.94135928  1  0.132656  0  0.131317  0.122115  0  0.980693  0
H  H13  1  0.94415078  0.68209294  0.82031543  1  0.121462  0  0.131267  0.122302  0  0.980257  0
H  H14  1  0.67929615  0.94404483  0.81907381  1  0.151507  0  0.131363  0.12262  0  0.980585  0
H  H15  1  0.68018515  0.81946236  0.94189525  1  0.103959  0  0.13128  0.122474  0  0.980569  0
H  H16  1  0.94316265  0.82004448  0.68158015  1  0.131485  0  0.131134  0.121855  0  0.981178  0
H  H17  1  0.81811903  0.94351280  0.68088923  1  0.134933  0  0.131183  0.122803  0  0.980876  0
H  H18  1  0.82027925  0.31790318  0.05717181  1  0.140401  0  0.131611  0.123243  0  0.980542  0
H  H19  1  0.94437458  0.31897331  0.18080674  1  0.146659  0  0.131541  0.122922  0  0.980505  0
H  H20  1  0.68149028  0.05625588  0.18047171  1  0.111248  0  0.131306  0.122862  0  0.980774  0
H  H21  1  0.68210207  0.18026109  0.05708046  1  0.131852  0  0.13142  0.122635  0  0.980185  0
H  H22  1  0.94387428  0.18070182  0.31928691  1  0.117094  0  0.131276  0.122439  0  0.980279  0
H  H23  1  0.81970864  0.05674786  0.31888762  1  0.12498  0  0.131161  0.122364  0  0.981077  0
H  H24  1  0.18113559  0.68093545  0.06031082  1  0.136264  0  0.131223  0.122203  0  0.980354  0
H  H25  1  0.05453977  0.68192336  0.18131324  1  0.144414  0  0.131257  0.122642  0  0.980931  0
H  H26  1  0.31781104  0.94419467  0.18141235  1  0.1407  0  0.131192  0.122132  0  0.980577  0
H  H27  1  0.31861842  0.81919037  0.05946765  1  0.159309  0  0.131251  0.122584  0  0.980816  0
H  H28  1  0.05568687  0.81934676  0.32057269  1  0.153005  0  0.131218  0.122188  0  0.980851  0
H  H29  1  0.18079035  0.94237787  0.32052478  1  0.137239  0  0.131239  0.122385  0  0.980229  0
H  H30  1  0.18020995  0.31953010  0.94154680  1  0.1177  0  0.131316  0.122429  0  0.981045  0
H  H31  1  0.05499167  0.32105611  0.81902357  1  0.135418  0  0.13118  0.121941  0  0.980229  0
H  H32  1  0.31779798  0.05677318  0.82022059  1  0.131717  0  0.131194  0.121995  0  0.980962  0
H  H33  1  0.31839710  0.18227890  0.94164217  1  0.13734  0  0.131236  0.122624  0  0.980811  0
H  H34  1  0.05516294  0.18208532  0.68083067  1  0.134101  0  0.131267  0.122295  0  0.980256  0
H  H35  1  0.17983795  0.05822875  0.68174482  1  0.134934  0  0.131081  0.122419  0  0.980518  0
C  C36  1  0.84410782  0.68920014  0.90755777  1  0.422778  0  0.027481  -0.009303  0  3.922033  0
C  C37  1  0.89133645  0.66182063  0.89144177  1  0.015428  0  -0.030022  -0.093924  0  4.082206  0
C  C38  1  0.90909108  0.68973632  0.84547479  1  0.468729  0  0.027853  -0.009652  0  3.921247  0
C  C39  1  0.68740708  0.90946100  0.84464695  1  0.430186  0  0.027622  -0.010111  0  3.921033  0
C  C40  1  0.65992914  0.89217141  0.89105380  1  0.013408  0  -0.030285  -0.094259  0  4.082056  0
C  C41  1  0.68785328  0.84551114  0.90767970  1  0.467285  0  0.02762  -0.010179  0  3.922395  0
C  C42  1  0.90846461  0.84584821  0.68927333  1  0.416281  0  0.027661  -0.009407  0  3.92247  0
C  C43  1  0.89111321  0.89223292  0.66147449  1  0.11214  0  -0.030013  -0.092873  0  4.080814  0
C  C44  1  0.84427380  0.90918397  0.68888274  1  0.376704  0  0.027367  -0.011459  0  3.924005  0
C  C45  1  0.84628068  0.31025487  0.09149862  1  0.40657  0  0.026918  -0.01177  0  3.924346  0
C  C46  1  0.89269359  0.33833762  0.10853398  1  -0.00183  0  -0.029881  -0.092681  0  4.081713  0
C  C47  1  0.90992812  0.31083510  0.15498204  1  0.472206  0  0.026698  -0.011253  0  3.923716  0
C  C48  1  0.68955755  0.09067370  0.15470580  1  0.473986  0  0.028212  -0.010291  0  3.923081  0
C  C49  1  0.66189048  0.10787235  0.10831665  1  -0.018992  0  -0.030532  -0.093815  0  4.082376  0
C  C50  1  0.68988091  0.15427899  0.09134508  1  0.457501  0  0.027376  -0.010138  0  3.922569  0
C  C51  1  0.90944544  0.15474726  0.31127374  1  0.41212  0  0.027666  -0.010083  0  3.922499  0
C  C52  1  0.89216621  0.10833134  0.33896650  1  0.082089  0  -0.030739  -0.093571  0  4.080124  0
C  C53  1  0.84572648  0.09113979  0.31107641  1  0.416326  0  0.027734  -0.009936  0  3.922493  0
C  C54  1  0.15458006  0.68900150  0.09406852  1  0.468876  0  0.027461  -0.009991  0  3.920822  0
C  C55  1  0.10742613  0.66162066  0.11027063  1  -0.012819  0  -0.030379  -0.092983  0  4.080141  0
C  C56  1  0.08959298  0.68952021  0.15614404  1  0.445239  0  0.027637  -0.010696  0  3.921631  0
C  C57  1  0.31016183  0.90948332  0.15603348  1  0.459208  0  0.027873  -0.009537  0  3.920929  0
C  C58  1  0.33804570  0.89219108  0.10989465  1  -0.01343  0  -0.030079  -0.092783  0  4.079881  0
C  C59  1  0.31058490  0.84532468  0.09345578  1  0.433622  0  0.027667  -0.010672  0  3.922569  0
C  C60  1  0.09032134  0.84508334  0.31266363  1  0.439992  0  0.027823  -0.009301  0  3.921002  0
C  C61  1  0.10792269  0.89126453  0.34041159  1  -0.003272  0  -0.030333  -0.093776  0  4.080639  0
C  C62  1  0.15452750  0.90821324  0.31263962  1  0.431963  0  0.027249  -0.010439  0  3.922048  0
C  C63  1  0.15393915  0.31199018  0.90744375  1  0.452537  0  0.027391  -0.01022  0  3.924462  0
C  C64  1  0.10727702  0.34011811  0.89084946  1  0.006733  0  -0.030719  -0.094683  0  4.083148  0
C  C65  1  0.08967614  0.31278777  0.84455897  1  0.446424  0  0.028223  -0.008031  0  3.919554  0
C  C66  1  0.31005380  0.09157860  0.84546651  1  0.444574  0  0.027931  -0.009027  0  3.920557  0
C  C67  1  0.33793929  0.10904247  0.89154115  1  0.0274  0  -0.030112  -0.093487  0  4.080806  0
C  C68  1  0.31041403  0.15601342  0.90775310  1  0.41635  0  0.027498  -0.010634  0  3.923068  0
C  C69  1  0.08973506  0.15618738  0.68887841  1  0.46157  0  0.028319  -0.008771  0  3.920455  0
C  C70  1  0.10712321  0.10966975  0.66150345  1  -0.022021  0  -0.031208  -0.095026  0  4.083514  0
C  C71  1  0.15371385  0.09262981  0.68938429  1  0.464366  0  0.028014  -0.009538  0  3.921609  0
C  C72  1  0.00002702  0.00033058  0.50078719  1  0.058348  0  0.037823  -0.132199  0  3.81967  0
C  C73  1  0.99992668  0.50082110  0.00074869  1  0.054386  0  0.037722  -0.134197  0  3.822744  0
C  C74  1  0.49925656  0.00043946  0.00080064  1  0.05146  0  0.037579  -0.135328  0  3.822949  0
C  C75  1  0.91708767  0.61644085  0.91751751  1  0.966366  0  0.242855  0.276992  0  4.017415  0
C  C76  1  0.96582002  0.53947778  0.96676303  1  1.071614  0  0.247462  0.246453  0  3.953743  0
C  C77  1  0.91800306  0.38417012  0.08295377  1  0.967075  0  0.243496  0.277945  0  4.015064  0
C  C78  1  0.96602125  0.46190272  0.03446335  1  1.060398  0  0.247777  0.24749  0  3.954003  0
C  C79  1  0.08198550  0.61614000  0.08434888  1  0.93413  0  0.242294  0.27503  0  4.018007  0
C  C80  1  0.03380202  0.53920062  0.03499831  1  1.044251  0  0.247997  0.247849  0  3.952802  0
C  C81  1  0.08215319  0.38579872  0.91681208  1  0.962496  0  0.242798  0.276887  0  4.017496  0
C  C82  1  0.03406773  0.46266579  0.96643682  1  1.067974  0  0.24743  0.247014  0  3.954209  0
C  C83  1  0.61442257  0.91773968  0.91712698  1  0.994794  0  0.242845  0.277949  0  4.015865  0
C  C84  1  0.53760817  0.96635833  0.96661860  1  1.032729  0  0.247362  0.246777  0  3.956465  0
C  C85  1  0.38341336  0.08324644  0.91760680  1  0.959529  0  0.242564  0.27622  0  4.015501  0
C  C86  1  0.46052883  0.03447864  0.96681785  1  1.068684  0  0.24756  0.247679  0  3.954355  0
C  C87  1  0.61605188  0.08245869  0.08274439  1  0.99121  0  0.243063  0.276382  0  4.017997  0
C  C88  1  0.53823860  0.03426572  0.03443987  1  1.046825  0  0.247682  0.248759  0  3.952333  0
C  C89  1  0.38355940  0.91791246  0.08400352  1  0.948712  0  0.242906  0.276494  0  4.016538  0
C  C90  1  0.46068464  0.96652976  0.03493445  1  1.052838  0  0.247951  0.247526  0  3.954109  0
C  C91  1  0.91686224  0.91784225  0.61606928  1  0.968413  0  0.243036  0.276955  0  4.015164  0
C  C92  1  0.96577317  0.96642979  0.53921256  1  1.068983  0  0.247209  0.245775  0  3.954584  0
C  C93  1  0.08276548  0.91679174  0.38615010  1  0.954917  0  0.242466  0.276235  0  4.016742  0
C  C94  1  0.03433305  0.96592191  0.46288765  1  1.039525  0  0.247103  0.246429  0  3.955563  0
C  C95  1  0.08186336  0.08386929  0.61600615  1  0.942357  0  0.24299  0.276706  0  4.017903  0
C  C96  1  0.03388006  0.03464521  0.53909720  1  1.052389  0  0.247799  0.24616  0  3.954279  0
C  C97  1  0.91760065  0.08282620  0.38468886  1  0.994844  0  0.242716  0.275587  0  4.01654  0
C  C98  1  0.96604278  0.03425362  0.46201488  1  1.041775  0  0.247484  0.247443  0  3.952435  0
N  N99  1  0.87486037  0.73064302  0.83507435  1  -0.741483  0  -0.331764  -0.135239  0  3.740998  0
N  N100  1  0.83456515  0.73033881  0.87364146  1  -0.795236  0  -0.332398  -0.136677  0  3.743952  0
N  N101  1  0.72888441  0.83582055  0.87361463  1  -0.756629  0  -0.332187  -0.135539  0  3.740729  0
N  N102  1  0.72863091  0.87551099  0.83449954  1  -0.7923  0  -0.331226  -0.135318  0  3.739349  0
N  N103  1  0.83454193  0.87531270  0.72991906  1  -0.766515  0  -0.331292  -0.134809  0  3.740795  0
N  N104  1  0.87438125  0.83598819  0.73014718  1  -0.785444  0  -0.33197  -0.136425  0  3.74267  0
N  N105  1  0.87617447  0.26949623  0.16479121  1  -0.780546  0  -0.331033  -0.135422  0  3.739836  0
N  N106  1  0.83666562  0.26916138  0.12539648  1  -0.779344  0  -0.33218  -0.135369  0  3.742152  0
N  N107  1  0.73110095  0.16391141  0.12522148  1  -0.808354  0  -0.332328  -0.13645  0  3.742507  0
N  N108  1  0.73091648  0.12442635  0.16453763  1  -0.749128  0  -0.331577  -0.134977  0  3.739795  0
N  N109  1  0.83615616  0.12490225  0.26988409  1  -0.808609  0  -0.331511  -0.135861  0  3.742293  0
N  N110  1  0.87570580  0.16439820  0.27000910  1  -0.756591  0  -0.331172  -0.135429  0  3.741781  0
N  N111  1  0.12369404  0.73044324  0.16639728  1  -0.737417  0  -0.331101  -0.135317  0  3.739751  0
N  N112  1  0.16400921  0.73012390  0.12784597  1  -0.809437  0  -0.331829  -0.135822  0  3.742403  0
N  N113  1  0.26945754  0.83552790  0.12739302  1  -0.741261  0  -0.331969  -0.135745  0  3.742689  0
N  N114  1  0.26919446  0.87534068  0.16623511  1  -0.832111  0  -0.331712  -0.135932  0  3.742083  0
N  N115  1  0.16390029  0.87455648  0.27145235  1  -0.785391  0  -0.331528  -0.135452  0  3.739362  0
N  N116  1  0.12405076  0.83535725  0.27146478  1  -0.760238  0  -0.331436  -0.136361  0  3.739077  0
N  N117  1  0.12345652  0.27146598  0.83446481  1  -0.719553  0  -0.331207  -0.136335  0  3.741836  0
N  N118  1  0.16334861  0.27100169  0.87348576  1  -0.82658  0  -0.332091  -0.135318  0  3.744479  0
N  N119  1  0.26920989  0.16568329  0.87380159  1  -0.725458  0  -0.331765  -0.13519  0  3.742985  0
N  N120  1  0.26901180  0.12572127  0.83511510  1  -0.815244  0  -0.331873  -0.136541  0  3.741731  0
N  N121  1  0.16327872  0.12656669  0.73027785  1  -0.808147  0  -0.332207  -0.136662  0  3.742864  0
N  N122  1  0.12357213  0.16602656  0.72997518  1  -0.70837  0  -0.331283  -0.135797  0  3.740369  0
N  N123  1  0.89311904  0.59601712  0.96225806  1  -0.567283  0  -0.160298  -0.152499  0  3.153833  0
N  N124  1  0.96437319  0.59806246  0.89618158  1  -0.542645  0  -0.159389  -0.151819  0  3.160004  0
N  N125  1  0.98930175  0.55866456  0.92187945  1  -0.559211  0  -0.1514  -0.13216  0  3.252962  0
N  N126  1  0.91863484  0.55659077  0.98759628  1  -0.540673  0  -0.152516  -0.13353  0  3.244575  0
N  N127  1  0.89511529  0.40322243  0.03698149  1  -0.538234  0  -0.159803  -0.15291  0  3.156764  0
N  N128  1  0.96360274  0.40447162  0.10594859  1  -0.54957  0  -0.159843  -0.151766  0  3.157345  0
N  N129  1  0.98820770  0.44430803  0.08063551  1  -0.562155  0  -0.151976  -0.133852  0  3.2501  0
N  N130  1  0.92025569  0.44299867  0.01207537  1  -0.560286  0  -0.152185  -0.132545  0  3.248654  0
N  N131  1  0.10590714  0.59627853  0.03935672  1  -0.539206  0  -0.159545  -0.150941  0  3.155843  0
N  N132  1  0.03525487  0.59694202  0.10607577  1  -0.53833  0  -0.159322  -0.150408  0  3.156307  0
N  N133  1  0.01057128  0.55756300  0.08029488  1  -0.558501  0  -0.1522  -0.134331  0  3.249105  0
N  N134  1  0.08071226  0.55687108  0.01399952  1  -0.547555  0  -0.152278  -0.134028  0  3.247475  0
N  N135  1  0.03649957  0.40655295  0.89414192  1  -0.529745  0  -0.159306  -0.151129  0  3.15644  0
N  N136  1  0.10539189  0.40439282  0.96269538  1  -0.549304  0  -0.159915  -0.152705  0  3.155588  0
N  N137  1  0.08018917  0.44372088  0.98822630  1  -0.552607  0  -0.151683  -0.132171  0  3.244944  0
N  N138  1  0.01186366  0.44594484  0.92004619  1  -0.573235  0  -0.152021  -0.13353  0  3.250657  0
N  N139  1  0.59560914  0.89489637  0.96315543  1  -0.542376  0  -0.159687  -0.152478  0  3.156767  0
N  N140  1  0.59422428  0.96352978  0.89449963  1  -0.551427  0  -0.160109  -0.152551  0  3.15798  0
N  N141  1  0.55485539  0.98845114  0.92034274  1  -0.549041  0  -0.151415  -0.132366  0  3.25186  0
N  N142  1  0.55629425  0.92036044  0.98859042  1  -0.554555  0  -0.151864  -0.132659  0  3.248195  0
N  N143  1  0.40360035  0.10678272  0.96261444  1  -0.536766  0  -0.160135  -0.152011  0  3.154432  0
N  N144  1  0.40209085  0.03639027  0.89601777  1  -0.539555  0  -0.158881  -0.150218  0  3.157625  0
N  N145  1  0.44158131  0.01143491  0.92170367  1  -0.566351  0  -0.15147  -0.133509  0  3.252463  0
N  N146  1  0.44310089  0.08125862  0.98792148  1  -0.551881  0  -0.152539  -0.134159  0  3.246305  0
N  N147  1  0.59585436  0.03697927  0.10585049  1  -0.555153  0  -0.159863  -0.151595  0  3.15676  0
N  N148  1  0.59693493  0.10508483  0.03668228  1  -0.541813  0  -0.159213  -0.151022  0  3.157805  0
N  N149  1  0.55708630  0.07987985  0.01190338  1  -0.560756  0  -0.15263  -0.134322  0  3.248318  0
N  N150  1  0.55599944  0.01225354  0.08060894  1  -0.545908  0  -0.15153  -0.133422  0  3.249144  0
N  N151  1  0.40286834  0.96417744  0.10616753  1  -0.529951  0  -0.159693  -0.152081  0  3.156908  0
N  N152  1  0.40326396  0.89474655  0.03856889  1  -0.535806  0  -0.15937  -0.151068  0  3.155326  0
N  N153  1  0.44278191  0.92014780  0.01339929  1  -0.562384  0  -0.152394  -0.133793  0  3.249394  0
N  N154  1  0.44233652  0.98912580  0.08050951  1  -0.563061  0  -0.15217  -0.133258  0  3.247602  0
N  N155  1  0.89360567  0.96342826  0.59609183  1  -0.554563  0  -0.160112  -0.151822  0  3.154777  0
N  N156  1  0.96328809  0.89520166  0.59709273  1  -0.538404  0  -0.159332  -0.151719  0  3.157924  0
N  N157  1  0.98835582  0.92058170  0.55772382  1  -0.572131  0  -0.151493  -0.132564  0  3.250768  0
N  N158  1  0.91920711  0.98839787  0.55674211  1  -0.548025  0  -0.152199  -0.133289  0  3.247554  0
N  N159  1  0.03679224  0.89408367  0.40599890  1  -0.516194  0  -0.159226  -0.151056  0  3.156709  0
N  N160  1  0.10631207  0.96223044  0.40581037  1  -0.550651  0  -0.159103  -0.150884  0  3.155227  0
N  N161  1  0.08094946  0.98749766  0.44508130  1  -0.550704  0  -0.152031  -0.133528  0  3.247484  0
N  N162  1  0.01195639  0.91975102  0.44529454  1  -0.55417  0  -0.152044  -0.133623  0  3.24988  0
N  N163  1  0.03588999  0.10654485  0.59593521  1  -0.532009  0  -0.160055  -0.151914  0  3.155951  0
N  N164  1  0.10527132  0.03802449  0.59696151  1  -0.547476  0  -0.15936  -0.150907  0  3.155193  0
N  N165  1  0.08016684  0.01274197  0.55758971  1  -0.558335  0  -0.151898  -0.133224  0  3.247774  0
N  N166  1  0.01128319  0.08081997  0.55654007  1  -0.560138  0  -0.152104  -0.133187  0  3.247254  0
N  N167  1  0.96364797  0.10560349  0.40425398  1  -0.549237  0  -0.159421  -0.1509  0  3.15673  0
N  N168  1  0.89443256  0.03712529  0.40434492  1  -0.547681  0  -0.159424  -0.150793  0  3.155669  0
N  N169  1  0.91977345  0.01218743  0.44393830  1  -0.547738  0  -0.151976  -0.133686  0  3.24738  0
N  N170  1  0.98848938  0.08022232  0.44385732  1  -0.558156  0  -0.152151  -0.133979  0  3.248835  0
