# generated using pymatgen
data_Zn3H18C28(NO3)4
_symmetry_space_group_name_H-M   'P 1'
_cell_length_a   10.76640091
_cell_length_b   14.93684403
_cell_length_c   21.87986179
_cell_angle_alpha   89.99995487
_cell_angle_beta   89.99994857
_cell_angle_gamma   111.13439443
_symmetry_Int_Tables_number   1
_chemical_formula_structural   Zn3H18C28(NO3)4
_chemical_formula_sum   'Zn12 H72 C112 N16 O48'
_cell_volume   3281.96008488
_cell_formula_units_Z   4
loop_
 _symmetry_equiv_pos_site_id
 _symmetry_equiv_pos_as_xyz
  1  'x, y, z'
loop_
 _atom_site_type_symbol
 _atom_site_label
 _atom_site_symmetry_multiplicity
 _atom_site_fract_x
 _atom_site_fract_y
 _atom_site_fract_z
 _atom_site_occupancy
 _atom_site_pbe_bader_charge
 _atom_site_pbe_bader_spin_density
 _atom_site_pbe_cm5_charge
 _atom_site_pbe_ddec_charge
 _atom_site_pbe_ddec_spin_density
 _atom_site_pbe_ddec_sum_bond_order
 _atom_site_pbe_magmom
Zn  Zn0  1  0.08595771  0.45897181  0.13334028  1  1.296601  0  0.694125  0.822526  0  2.274491  0
Zn  Zn1  1  0.91404367  0.54102780  0.63333866  1  1.2966  0  0.694109  0.822531  0  2.274434  0
Zn  Zn2  1  0.62690195  0.54096364  0.36668073  1  1.295614  0  0.694461  0.822969  0  2.275142  0
Zn  Zn3  1  0.37309822  0.45903625  0.86667894  1  1.295621  0  0.69441  0.822841  0  2.275319  0
Zn  Zn4  1  0.69228784  0.93280634  0.10810540  1  1.296189  0  0.694695  0.814964  0  2.387579  0
Zn  Zn5  1  0.30770660  0.06719044  0.60810430  1  1.296139  0  0.694689  0.814952  0  2.387551  0
Zn  Zn6  1  0.75919289  0.06712178  0.39194699  1  1.295863  0  0.694327  0.813984  0  2.389339  0
Zn  Zn7  1  0.24080756  0.93287878  0.89194774  1  1.295726  0  0.69437  0.814098  0  2.389239  0
Zn  Zn8  1  0.64135967  0.00003116  0.25000281  1  1.405252  0  0.701322  1.037392  0  2.169965  0
Zn  Zn9  1  0.35863680  0.99996465  0.74999936  1  1.40528  0  0.70128  1.037268  0  2.17007  0
Zn  Zn10  1  0.24008132  0.48043671  0.99994672  1  1.41507  0  0.694018  1.020093  0  2.323337  0
Zn  Zn11  1  0.75991955  0.51956509  0.49994755  1  1.415043  0  0.694045  1.020098  0  2.323314  0
H  H12  1  0.28292424  0.67443051  0.12620211  1  0.081453  0  0.11887  0.090653  0  1.004973  0
H  H13  1  0.71707216  0.32556840  0.62620069  1  0.081411  0  0.118905  0.090668  0  1.004972  0
H  H14  1  0.60805948  0.32537401  0.37379007  1  0.081065  0  0.118888  0.090579  0  1.005139  0
H  H15  1  0.39194429  0.67462012  0.87379227  1  0.081031  0  0.118883  0.090577  0  1.00517  0
H  H16  1  0.30061361  0.58809236  0.34192378  1  0.09939  0  0.118056  0.126533  0  0.988991  0
H  H17  1  0.69938326  0.41190829  0.84192141  1  0.098999  0  0.11806  0.126538  0  0.988984  0
H  H18  1  0.71257557  0.41198015  0.15814561  1  0.085201  0  0.11815  0.126283  0  0.988808  0
H  H19  1  0.28742646  0.58802085  0.65814653  1  0.085235  0  0.118161  0.12635  0  0.988765  0
H  H20  1  0.42644234  0.75595441  0.30979873  1  0.209644  0  0.115973  0.134248  0  1.038684  0
H  H21  1  0.57355405  0.24404702  0.80979834  1  0.209625  0  0.115947  0.134222  0  1.03868  0
H  H22  1  0.67034316  0.24406268  0.19017923  1  0.217087  0  0.115976  0.134096  0  1.038841  0
H  H23  1  0.32965527  0.75593682  0.69018233  1  0.216804  0  0.116012  0.134135  0  1.038747  0
H  H24  1  0.92286661  0.26202738  0.19053155  1  0.149795  0  0.125977  0.103352  0  1.020375  0
H  H25  1  0.07713218  0.73797284  0.69053020  1  0.149771  0  0.125977  0.103325  0  1.020409  0
H  H26  1  0.66062463  0.73787440  0.30947602  1  0.160058  0  0.126074  0.103665  0  1.018778  0
H  H27  1  0.33937461  0.26212345  0.80947617  1  0.16003  0  0.126044  0.1036  0  1.018877  0
H  H28  1  0.08458205  0.26472299  0.37036240  1  0.103762  0  0.108235  0.10379  0  1.02026  0
H  H29  1  0.91542002  0.73527331  0.87036250  1  0.103717  0  0.108232  0.103815  0  1.020271  0
H  H30  1  0.81973806  0.73520875  0.12966086  1  0.076968  0  0.108362  0.103513  0  1.020434  0
H  H31  1  0.18025482  0.26478871  0.62966154  1  0.076936  0  0.108352  0.103458  0  1.020446  0
H  H32  1  0.22337472  0.43844552  0.35477995  1  0.087642  0  0.114588  0.125791  0  0.999939  0
H  H33  1  0.77662626  0.56155224  0.85477884  1  0.087669  0  0.114575  0.125782  0  0.999953  0
H  H34  1  0.78487855  0.56150034  0.14527253  1  0.12513  0  0.114587  0.125853  0  1.000081  0
H  H35  1  0.21512429  0.43849853  0.64527219  1  0.125134  0  0.114592  0.125853  0  1.000097  0
H  H36  1  0.52502346  0.50363957  0.14002988  1  0.04065  0  0.087303  0.134276  0  1.040364  0
H  H37  1  0.47498334  0.49636720  0.64002940  1  0.040787  0  0.087297  0.134269  0  1.040447  0
H  H38  1  0.02178274  0.49677356  0.35988650  1  0.042657  0  0.087248  0.134041  0  1.040314  0
H  H39  1  0.97821360  0.50323353  0.85988579  1  0.042587  0  0.087222  0.133999  0  1.040311  0
H  H40  1  0.49571936  0.48747418  0.06026888  1  0.075913  0  0.091965  0.155919  0  1.020455  0
H  H41  1  0.50428051  0.51252772  0.56026746  1  0.075717  0  0.091991  0.155917  0  1.020316  0
H  H42  1  0.00849820  0.51274088  0.43965666  1  0.082506  0  0.092126  0.155892  0  1.020439  0
H  H43  1  0.99149955  0.48725816  0.93965504  1  0.082539  0  0.092128  0.155922  0  1.020477  0
H  H44  1  0.50489454  0.39039033  0.10664625  1  0.054741  0  0.098132  0.156545  0  0.991919  0
H  H45  1  0.49510906  0.60961364  0.60664250  1  0.05486  0  0.098122  0.156512  0  0.991876  0
H  H46  1  0.11478003  0.60996523  0.39338255  1  0.049043  0  0.098098  0.156118  0  0.991188  0
H  H47  1  0.88522392  0.39003677  0.89337874  1  0.048631  0  0.098112  0.156122  0  0.991282  0
H  H48  1  0.85359476  0.90429842  0.89046543  1  0.120422  0  0.116735  0.133091  0  0.994854  0
H  H49  1  0.14640812  0.09570142  0.39046356  1  0.120486  0  0.116726  0.133059  0  0.994845  0
H  H50  1  0.94930706  0.09572259  0.60947254  1  0.110984  0  0.117094  0.134007  0  0.994001  0
H  H51  1  0.05069381  0.90427778  0.10947301  1  0.110953  0  0.117085  0.133963  0  0.994003  0
H  H52  1  0.70760446  0.73346147  0.87248459  1  0.14522  0  0.117331  0.119444  0  0.994664  0
H  H53  1  0.29239976  0.26653912  0.37248394  1  0.145254  0  0.117346  0.119502  0  0.99458  0
H  H54  1  0.97425164  0.26657872  0.62738805  1  0.107281  0  0.117473  0.119689  0  0.994401  0
H  H55  1  0.02575011  0.73342161  0.12738863  1  0.107283  0  0.117471  0.119707  0  0.994367  0
H  H56  1  0.54964850  0.72757123  0.05383960  1  0.160621  0  0.127078  0.112114  0  0.99128  0
H  H57  1  0.45034980  0.27242565  0.55384016  1  0.160436  0  0.127053  0.112082  0  0.991361  0
H  H58  1  0.82146969  0.27216275  0.44614105  1  0.180428  0  0.127145  0.111866  0  0.991714  0
H  H59  1  0.17853376  0.72783843  0.94614148  1  0.180181  0  0.127145  0.111834  0  0.991733  0
H  H60  1  0.99701399  0.23249520  0.92946217  1  0.143767  0  0.120318  0.131943  0  0.994907  0
H  H61  1  0.00298378  0.76750386  0.42946137  1  0.143747  0  0.120344  0.132007  0  0.994875  0
H  H62  1  0.76465168  0.76742832  0.57053568  1  0.145149  0  0.120246  0.131533  0  0.99503  0
H  H63  1  0.23535188  0.23257356  0.07053278  1  0.14482  0  0.120276  0.131514  0  0.995049  0
H  H64  1  0.91534378  0.05897749  0.90216682  1  0.101768  0  0.120432  0.132325  0  0.970521  0
H  H65  1  0.08465371  0.94102090  0.40216543  1  0.101763  0  0.120458  0.132357  0  0.970538  0
H  H66  1  0.85633059  0.94095674  0.59785023  1  0.097991  0  0.12048  0.13237  0  0.97136  0
H  H67  1  0.14367918  0.05904652  0.09785020  1  0.098055  0  0.120513  0.132348  0  0.97145  0
H  H68  1  0.84835551  0.15033993  0.11227699  1  0.164387  0  0.129135  0.110443  0  1.00549  0
H  H69  1  0.15164335  0.84965828  0.61227600  1  0.164407  0  0.129137  0.110458  0  1.005456  0
H  H70  1  0.69843586  0.84952924  0.38768122  1  0.176224  0  0.128836  0.110458  0  1.004811  0
H  H71  1  0.30155852  0.15046845  0.88767826  1  0.176211  0  0.128871  0.110534  0  1.004779  0
H  H72  1  0.36465624  0.98129794  0.11268821  1  0.081264  0  0.097984  0.157658  0  0.986412  0
H  H73  1  0.63534576  0.01870099  0.61269797  1  0.081198  0  0.097974  0.157697  0  0.986494  0
H  H74  1  0.38313987  0.01850563  0.38728618  1  0.069357  0  0.098254  0.158053  0  0.985736  0
H  H75  1  0.61686161  0.98150069  0.88727577  1  0.069201  0  0.098308  0.158105  0  0.985721  0
H  H76  1  0.46703711  0.94147957  0.06540408  1  0.015228  0  0.084282  0.130402  0  1.038663  0
H  H77  1  0.53297125  0.05852447  0.56541112  1  0.015296  0  0.084291  0.130382  0  1.038753  0
H  H78  1  0.52525812  0.05851259  0.43462830  1  0.034306  0  0.084319  0.130934  0  1.038628  0
H  H79  1  0.47474878  0.94148430  0.93462072  1  0.034407  0  0.084263  0.130914  0  1.038726  0
H  H80  1  0.42830308  0.04466127  0.04357055  1  0.038871  0  0.091043  0.148627  0  1.015837  0
H  H81  1  0.57170570  0.95534353  0.54357755  1  0.039029  0  0.091057  0.148664  0  1.01591  0
H  H82  1  0.38339689  0.95526571  0.45645181  1  0.009111  0  0.091032  0.148973  0  1.016396  0
H  H83  1  0.61660923  0.04472971  0.95644648  1  0.009195  0  0.091047  0.148992  0  1.016424  0
C  C84  1  0.47212855  0.45171187  0.10463161  1  -0.098429  0  -0.255008  -0.524292  0  3.90334  0
C  C85  1  0.52787707  0.54829426  0.60463015  1  -0.098391  0  -0.255003  -0.524206  0  3.903301  0
C  C86  1  0.02069651  0.54859860  0.39533050  1  -0.083634  0  -0.255342  -0.523389  0  3.901323  0
C  C87  1  0.97930330  0.45140626  0.89532844  1  -0.083064  0  -0.255319  -0.523386  0  3.901413  0
C  C88  1  0.32547943  0.41930828  0.11906272  1  1.554026  0  0.205898  0.701728  0  4.096744  0
C  C89  1  0.67452336  0.58069782  0.61905662  1  1.553796  0  0.205962  0.701696  0  4.096598  0
C  C90  1  0.90641343  0.58094465  0.38090470  1  1.544577  0  0.206206  0.700677  0  4.095564  0
C  C91  1  0.09358957  0.41906095  0.88089848  1  1.544985  0  0.206284  0.700795  0  4.095382  0
C  C92  1  0.45858404  0.82304098  0.19259459  1  1.595103  0  0.218351  0.598347  0  4.197532  0
C  C93  1  0.54141352  0.17695493  0.69259242  1  1.595195  0  0.218324  0.598311  0  4.197666  0
C  C94  1  0.63509574  0.17681872  0.30740029  1  1.60467  0  0.218028  0.597686  0  4.194558  0
C  C95  1  0.36489779  0.82317697  0.80740196  1  1.604202  0  0.217867  0.597104  0  4.195043  0
C  C96  1  0.36806745  0.72673498  0.21467293  1  0.021541  0  -0.004731  -0.065494  0  3.949924  0
C  C97  1  0.63192869  0.27326376  0.71467203  1  0.02148  0  -0.004734  -0.065504  0  3.949884  0
C  C98  1  0.64093372  0.27313701  0.28531283  1  0.014375  0  -0.003898  -0.065167  0  3.949208  0
C  C99  1  0.35906394  0.72685945  0.78531547  1  0.014727  0  -0.003978  -0.065072  0  3.949266  0
C  C100  1  0.28590791  0.65834395  0.17465580  1  0.52986  0  0.059694  0.09373  0  3.92085  0
C  C101  1  0.71408927  0.34165486  0.67465483  1  0.53019  0  0.059624  0.093675  0  3.921022  0
C  C102  1  0.62722296  0.34153024  0.32535054  1  0.529603  0  0.059301  0.093652  0  3.919905  0
C  C103  1  0.37277996  0.65846758  0.82535139  1  0.529632  0  0.059252  0.093524  0  3.919979  0
C  C104  1  0.21670822  0.54415970  0.25162342  1  0.470135  0  0.124352  0.166429  0  3.988392  0
C  C105  1  0.78329097  0.45583969  0.75162054  1  0.469873  0  0.124376  0.166438  0  3.988242  0
C  C106  1  0.67246859  0.45578897  0.24843366  1  0.480089  0  0.125027  0.165764  0  3.990019  0
C  C107  1  0.32753561  0.54421114  0.74843367  1  0.48003  0  0.125006  0.165795  0  3.990053  0
C  C108  1  0.29626751  0.60905444  0.29457521  1  -0.041974  0  -0.06787  -0.139171  0  3.91687  0
C  C109  1  0.70373063  0.39094487  0.79457377  1  -0.041486  0  -0.067892  -0.139174  0  3.916763  0
C  C110  1  0.68716361  0.39094431  0.20547499  1  -0.033349  0  -0.067909  -0.138391  0  3.91636  0
C  C111  1  0.31283664  0.60905516  0.70547543  1  -0.033306  0  -0.06786  -0.138436  0  3.916538  0
C  C112  1  0.36945283  0.70242874  0.27637350  1  0.001764  0  -0.052156  -0.028342  0  3.876585  0
C  C113  1  0.63054315  0.29756988  0.77637260  1  0.001753  0  -0.052126  -0.028304  0  3.876561  0
C  C114  1  0.66683263  0.29753120  0.22363464  1  -0.011712  0  -0.052322  -0.0282  0  3.87649  0
C  C115  1  0.33316742  0.70246609  0.72363731  1  -0.011295  0  -0.052381  -0.028232  0  3.876652  0
C  C116  1  0.13928620  0.44244569  0.26513087  1  0.50336  0  0.132105  0.184976  0  3.973707  0
C  C117  1  0.86071353  0.55755295  0.76512926  1  0.502797  0  0.132109  0.185018  0  3.973574  0
C  C118  1  0.69675373  0.55749871  0.23492028  1  0.449828  0  0.132292  0.184908  0  3.972897  0
C  C119  1  0.30324515  0.44249999  0.73491899  1  0.449825  0  0.132261  0.184856  0  3.973094  0
C  C120  1  0.98704516  0.29882874  0.22813323  1  0.527601  0  0.071785  0.115579  0  3.882711  0
C  C121  1  0.01295560  0.70116997  0.72813238  1  0.527652  0  0.071773  0.115587  0  3.88274  0
C  C122  1  0.68806823  0.70108060  0.27188575  1  0.532674  0  0.07135  0.115129  0  3.881399  0
C  C123  1  0.31192926  0.29891732  0.77188635  1  0.533057  0  0.071308  0.115125  0  3.881485  0
C  C124  1  0.99678856  0.24973519  0.28114500  1  0.010398  0  -0.008462  -0.072806  0  3.937561  0
C  C125  1  0.00321447  0.75026271  0.78114504  1  0.010365  0  -0.008452  -0.072809  0  3.937428  0
C  C126  1  0.74699388  0.75017945  0.21888813  1  -0.002549  0  -0.007826  -0.071997  0  3.936959  0
C  C127  1  0.25299932  0.24981712  0.71888879  1  -0.00294  0  -0.007836  -0.072062  0  3.936859  0
C  C128  1  0.08005291  0.30145093  0.32792702  1  -0.038713  0  -0.057894  -0.031867  0  3.9371  0
C  C129  1  0.91994964  0.69854616  0.82792714  1  -0.038538  0  -0.05786  -0.031824  0  3.937085  0
C  C130  1  0.77848955  0.69846770  0.17210082  1  -0.021228  0  -0.057992  -0.032074  0  3.937152  0
C  C131  1  0.22150693  0.30152968  0.67210101  1  -0.021212  0  -0.057998  -0.031981  0  3.93701  0
C  C132  1  0.15395188  0.39822090  0.31968881  1  -0.004104  0  -0.071829  -0.150517  0  3.935628  0
C  C133  1  0.84604919  0.60177692  0.81968764  1  -0.004101  0  -0.071828  -0.15056  0  3.935678  0
C  C134  1  0.75564429  0.60170975  0.18035364  1  0.02241  0  -0.071848  -0.150386  0  3.934795  0
C  C135  1  0.24435360  0.39829049  0.68035331  1  0.022379  0  -0.071786  -0.150352  0  3.934804  0
C  C136  1  0.91144199  0.14631459  0.28918394  1  1.589765  0  0.214729  0.596479  0  4.19847  0
C  C137  1  0.08856231  0.85368401  0.78918344  1  1.589802  0  0.214849  0.596655  0  4.198341  0
C  C138  1  0.76521058  0.85363217  0.21086885  1  1.59128  0  0.214453  0.596315  0  4.196213  0
C  C139  1  0.23478707  0.14636586  0.71086912  1  1.591281  0  0.214471  0.596479  0  4.195831  0
C  C140  1  0.51970209  0.61507050  0.95246506  1  1.597595  0  0.216199  0.581266  0  4.212724  0
C  C141  1  0.48030119  0.38492851  0.45246563  1  1.5977  0  0.216222  0.581252  0  4.212815  0
C  C142  1  0.90449819  0.38486275  0.54746522  1  1.609987  0  0.215312  0.581135  0  4.21444  0
C  C143  1  0.09550285  0.61513773  0.04746492  1  1.609962  0  0.215319  0.58116  0  4.214193  0
C  C144  1  0.78391559  0.86445843  0.92566083  1  0.008791  0  -0.070832  -0.148169  0  3.9115  0
C  C145  1  0.21608698  0.13554279  0.42565937  1  0.008704  0  -0.070865  -0.148141  0  3.911514  0
C  C146  1  0.91935060  0.13550927  0.57429087  1  -0.004822  0  -0.07165  -0.149911  0  3.911534  0
C  C147  1  0.08065036  0.86449116  0.07429181  1  -0.004839  0  -0.071628  -0.149763  0  3.911462  0
C  C148  1  0.70491282  0.76833482  0.91595881  1  -0.109937  0  -0.054931  -0.037603  0  3.923767  0
C  C149  1  0.29508927  0.23166355  0.41595817  1  -0.109813  0  -0.054953  -0.037692  0  3.923814  0
C  C150  1  0.93647653  0.23162157  0.58395954  1  -0.051442  0  -0.055455  -0.037104  0  3.924476  0
C  C151  1  0.06352498  0.76837813  0.08395918  1  -0.051442  0  -0.055406  -0.037123  0  3.924463  0
C  C152  1  0.61809228  0.71639113  0.96164880  1  0.020298  0  -0.006448  -0.072226  0  3.926515  0
C  C153  1  0.38190897  0.28360571  0.46164901  1  0.020162  0  -0.006446  -0.072176  0  3.926552  0
C  C154  1  0.90151507  0.28352553  0.53827003  1  0.018334  0  -0.006192  -0.072761  0  3.926202  0
C  C155  1  0.09848729  0.71647569  0.03827014  1  0.018436  0  -0.006185  -0.0728  0  3.926252  0
C  C156  1  0.61526789  0.76435625  0.01648925  1  0.47503  0  0.067408  0.103604  0  3.871176  0
C  C157  1  0.38473159  0.23564285  0.51648803  1  0.475188  0  0.067365  0.103545  0  3.871341  0
C  C158  1  0.85047233  0.23547592  0.48349686  1  0.463501  0  0.067572  0.104693  0  3.870243  0
C  C159  1  0.14952916  0.76452518  0.98349729  1  0.463657  0  0.067597  0.104807  0  3.870237  0
C  C160  1  0.77137443  0.90849090  0.98065066  1  0.516157  0  0.125073  0.172733  0  3.96966  0
C  C161  1  0.22862377  0.09150734  0.48065013  1  0.516254  0  0.125074  0.172722  0  3.969844  0
C  C162  1  0.86265393  0.09139465  0.51933122  1  0.505127  0  0.12571  0.172344  0  3.96779  0
C  C163  1  0.13734884  0.90860732  0.01933257  1  0.501611  0  0.125698  0.17231  0  3.967717  0
C  C164  1  0.94845550  0.17794294  0.96370464  1  0.052925  0  -0.044904  -0.019461  0  3.874153  0
C  C165  1  0.05154032  0.82205605  0.46370425  1  0.052839  0  -0.04497  -0.019522  0  3.874145  0
C  C166  1  0.77070680  0.82198276  0.53629230  1  -0.086638  0  -0.044324  -0.017756  0  3.874684  0
C  C167  1  0.22929499  0.17801918  0.03628989  1  -0.086322  0  -0.044308  -0.017633  0  3.874555  0
C  C168  1  0.90318317  0.08080814  0.94858667  1  -0.063051  0  -0.06848  -0.145017  0  3.925346  0
C  C169  1  0.09681383  0.91918944  0.44858575  1  -0.063088  0  -0.068448  -0.145019  0  3.925297  0
C  C170  1  0.82239711  0.91911727  0.55142353  1  0.048185  0  -0.068852  -0.145994  0  3.927122  0
C  C171  1  0.17760779  0.08088536  0.05142302  1  0.048212  0  -0.068881  -0.146075  0  3.927134  0
C  C172  1  0.83785214  0.01274832  0.99308927  1  0.460418  0  0.120281  0.151668  0  4.017725  0
C  C173  1  0.16214489  0.98725134  0.49308782  1  0.460468  0  0.120353  0.151731  0  4.017677  0
C  C174  1  0.82507074  0.98715209  0.50691043  1  0.432136  0  0.120498  0.152422  0  4.018114  0
C  C175  1  0.17492948  0.01284847  0.00690951  1  0.435636  0  0.120484  0.152462  0  4.018026  0
C  C176  1  0.86672947  0.13366595  0.06544168  1  0.471685  0  0.069923  0.107138  0  3.874429  0
C  C177  1  0.13326651  0.86633379  0.56544070  1  0.47173  0  0.069908  0.107097  0  3.874532  0
C  C178  1  0.73333615  0.86622402  0.43453023  1  0.465951  0  0.07034  0.107092  0  3.874437  0
C  C179  1  0.26666011  0.13377574  0.93452820  1  0.465907  0  0.070335  0.107034  0  3.87451  0
C  C180  1  0.93032865  0.20574930  0.02324669  1  0.019772  0  0.002961  -0.057296  0  3.896851  0
C  C181  1  0.06966709  0.79424979  0.52324668  1  0.019785  0  0.002964  -0.057341  0  3.896938  0
C  C182  1  0.72484806  0.79416444  0.47673893  1  0.034694  0  0.002831  -0.05841  0  3.899005  0
C  C183  1  0.27514938  0.20583596  0.97673594  1  0.034391  0  0.002817  -0.058389  0  3.898938  0
C  C184  1  0.98411363  0.31012739  0.04174539  1  1.610607  0  0.223891  0.599749  0  4.180581  0
C  C185  1  0.01588314  0.68987383  0.54174455  1  1.610675  0  0.223895  0.599807  0  4.180442  0
C  C186  1  0.67421354  0.68979734  0.45826627  1  1.641241  0  0.224265  0.600241  0  4.179802  0
C  C187  1  0.32578358  0.31020238  0.95826230  1  1.641566  0  0.224152  0.600124  0  4.17983  0
C  C188  1  0.45108094  0.00593923  0.08182080  1  -0.092829  0  -0.255327  -0.533087  0  3.903993  0
C  C189  1  0.54892279  0.99406119  0.58182596  1  -0.092907  0  -0.255316  -0.533176  0  3.90421  0
C  C190  1  0.44493646  0.99397759  0.41821434  1  -0.070225  0  -0.255581  -0.53496  0  3.905115  0
C  C191  1  0.55506727  0.00602220  0.91820814  1  -0.06979  0  -0.255624  -0.535092  0  3.905153  0
C  C192  1  0.56797116  0.07383519  0.11783744  1  1.546348  0  0.207066  0.686397  0  4.112492  0
C  C193  1  0.43202618  0.92616373  0.61783857  1  1.545713  0  0.207068  0.686456  0  4.112233  0
C  C194  1  0.49399377  0.92607191  0.38224657  1  1.559124  0  0.206891  0.686798  0  4.109967  0
C  C195  1  0.50599978  0.07393154  0.88224767  1  1.558234  0  0.206905  0.6869  0  4.109933  0
N  N196  1  0.05539446  0.39257871  0.22067495  1  -1.234973  0  -0.314568  -0.267258  0  3.524532  0
N  N197  1  0.94460539  0.60742002  0.72067328  1  -1.234614  0  -0.314573  -0.267285  0  3.524487  0
N  N198  1  0.66267298  0.60733986  0.27935657  1  -1.234461  0  -0.314462  -0.266676  0  3.524666  0
N  N199  1  0.33732541  0.39265804  0.77935575  1  -1.234358  0  -0.314394  -0.266575  0  3.524726  0
N  N200  1  0.20877985  0.57102065  0.19334517  1  -1.238656  0  -0.317109  -0.257002  0  3.530129  0
N  N201  1  0.79121692  0.42897741  0.69334367  1  -1.238573  0  -0.317138  -0.257041  0  3.530164  0
N  N202  1  0.63758420  0.42889286  0.30669866  1  -1.238088  0  -0.31804  -0.257286  0  3.530531  0
N  N203  1  0.36241841  0.57110428  0.80669865  1  -1.238216  0  -0.317892  -0.257113  0  3.530542  0
N  N204  1  0.82171283  0.04047084  0.05039638  1  -1.248817  0  -0.323733  -0.277991  0  3.541701  0
N  N205  1  0.17828320  0.95952893  0.55039578  1  -1.248808  0  -0.323774  -0.278003  0  3.541695  0
N  N206  1  0.78134560  0.95941574  0.44958559  1  -1.244056  0  -0.324061  -0.277701  0  3.54147  0
N  N207  1  0.21865283  0.04058471  0.94958455  1  -1.244008  0  -0.324086  -0.277754  0  3.541458  0
N  N208  1  0.68845908  0.85714988  0.02530965  1  -1.254101  0  -0.313542  -0.265268  0  3.511446  0
N  N209  1  0.31153780  0.14284778  0.52530943  1  -1.254152  0  -0.313503  -0.265268  0  3.511439  0
N  N210  1  0.83086018  0.14266435  0.47470707  1  -1.242554  0  -0.313696  -0.265438  0  3.511158  0
N  N211  1  0.16914448  0.85733750  0.97470836  1  -1.242447  0  -0.313717  -0.265547  0  3.511032  0
O  O212  1  0.27118319  0.35284474  0.15507715  1  -1.167788  0  -0.331868  -0.55173  0  2.044046  0
O  O213  1  0.72883024  0.64717349  0.65506687  1  -1.167677  0  -0.331911  -0.551712  0  2.043811  0
O  O214  1  0.91857678  0.64744916  0.34491314  1  -1.166147  0  -0.332624  -0.551818  0  2.042398  0
O  O215  1  0.08143385  0.35257159  0.84490559  1  -1.166687  0  -0.332632  -0.551849  0  2.042735  0
O  O216  1  0.26113376  0.47080330  0.09348350  1  -1.181533  0  -0.349461  -0.627034  0  2.464418  0
O  O217  1  0.73886937  0.52919782  0.59348333  1  -1.181449  0  -0.349488  -0.627096  0  2.464474  0
O  O218  1  0.79053963  0.52937442  0.40644649  1  -1.191869  0  -0.348723  -0.626275  0  2.464741  0
O  O219  1  0.20946416  0.47063472  0.90644385  1  -1.191857  0  -0.348765  -0.626357  0  2.464459  0
O  O220  1  0.52057340  0.82283702  0.14270349  1  -1.179931  0  -0.31818  -0.569774  0  2.29837  0
O  O221  1  0.47942651  0.17715970  0.64270272  1  -1.180044  0  -0.318127  -0.569695  0  2.298562  0
O  O222  1  0.69726967  0.17706758  0.35730142  1  -1.179106  0  -0.318026  -0.569188  0  2.295785  0
O  O223  1  0.30272258  0.82292945  0.85730266  1  -1.179105  0  -0.317935  -0.568895  0  2.295655  0
O  O224  1  0.46764875  0.89347340  0.22680273  1  -1.164107  0  -0.310348  -0.537231  0  2.300971  0
O  O225  1  0.53234979  0.10652459  0.72680152  1  -1.16415  0  -0.310313  -0.537191  0  2.300956  0
O  O226  1  0.57380553  0.10633974  0.27320038  1  -1.164137  0  -0.310195  -0.536894  0  2.300449  0
O  O227  1  0.42618716  0.89365602  0.77320245  1  -1.164017  0  -0.310155  -0.536699  0  2.300714  0
O  O228  1  0.92297652  0.10681807  0.34003528  1  -1.1864  0  -0.34299  -0.574852  0  2.307761  0
O  O229  1  0.07702764  0.89318044  0.84003339  1  -1.186245  0  -0.343115  -0.575073  0  2.307876  0
O  O230  1  0.81639878  0.89316734  0.16003578  1  -1.190936  0  -0.342609  -0.574282  0  2.306743  0
O  O231  1  0.18359787  0.10683222  0.66003426  1  -1.190998  0  -0.342633  -0.574356  0  2.306511  0
O  O232  1  0.83090142  0.10752041  0.24664486  1  -1.161167  0  -0.295669  -0.537616  0  2.338944  0
O  O233  1  0.16910084  0.89247396  0.74664292  1  -1.16127  0  -0.295628  -0.537524  0  2.338883  0
O  O234  1  0.72325245  0.89236505  0.25335998  1  -1.16033  0  -0.295706  -0.537971  0  2.336138  0
O  O235  1  0.27674473  0.10763218  0.75335933  1  -1.160311  0  -0.295705  -0.538037  0  2.336072  0
O  O236  1  0.42571687  0.58969852  0.99082365  1  -1.155034  0  -0.300891  -0.543823  0  2.366542  0
O  O237  1  0.57428409  0.41029970  0.49082279  1  -1.155114  0  -0.300907  -0.543827  0  2.366565  0
O  O238  1  0.83599200  0.41025186  0.50907330  1  -1.167023  0  -0.300884  -0.544079  0  2.368123  0
O  O239  1  0.16401208  0.58975085  0.00907207  1  -1.167043  0  -0.300898  -0.544105  0  2.367925  0
O  O240  1  0.53656054  0.56685029  0.90703654  1  -1.166557  0  -0.319568  -0.551556  0  2.265636  0
O  O241  1  0.46344158  0.43314809  0.40703709  1  -1.166584  0  -0.319571  -0.551552  0  2.2657  0
O  O242  1  0.96938147  0.43300015  0.59296274  1  -1.168295  0  -0.318529  -0.550851  0  2.266108  0
O  O243  1  0.03062023  0.56699810  0.09296204  1  -1.168258  0  -0.318529  -0.550818  0  2.266133  0
O  O244  1  0.05189545  0.36786760  0.00184222  1  -1.187553  0  -0.301724  -0.557091  0  2.405772  0
O  O245  1  0.94810107  0.63213297  0.50184283  1  -1.187638  0  -0.301766  -0.557151  0  2.405736  0
O  O246  1  0.68420183  0.63205217  0.49817193  1  -1.184015  0  -0.30221  -0.557578  0  2.405375  0
O  O247  1  0.31579661  0.36795034  0.99816793  1  -1.18396  0  -0.302229  -0.557595  0  2.405263  0
O  O248  1  0.96013588  0.33181728  0.09585999  1  -1.164355  0  -0.310497  -0.539037  0  2.301384  0
O  O249  1  0.03986353  0.66818384  0.59586007  1  -1.164355  0  -0.310465  -0.538995  0  2.30128  0
O  O250  1  0.62843278  0.66810780  0.40416448  1  -1.162738  0  -0.310877  -0.539304  0  2.301566  0
O  O251  1  0.37156171  0.33189202  0.90416139  1  -1.162826  0  -0.310796  -0.539215  0  2.301693  0
O  O252  1  0.64163329  0.03497948  0.14868360  1  -1.189063  0  -0.348092  -0.634396  0  2.43546  0
O  O253  1  0.35836011  0.96501723  0.64868383  1  -1.188836  0  -0.348133  -0.634361  0  2.435329  0
O  O254  1  0.60654404  0.96491783  0.35140768  1  -1.186577  0  -0.348402  -0.63444  0  2.433904  0
O  O255  1  0.39345296  0.03508496  0.85140885  1  -1.186659  0  -0.348385  -0.634496  0  2.433979  0
O  O256  1  0.58930285  0.16078224  0.11759700  1  -1.135405  0  -0.312751  -0.51623  0  2.069993  0
O  O257  1  0.41069191  0.83921525  0.61759591  1  -1.135058  0  -0.312732  -0.516276  0  2.069881  0
O  O258  1  0.42839492  0.83913267  0.38249387  1  -1.150248  0  -0.312483  -0.516124  0  2.069281  0
O  O259  1  0.57158913  0.16087221  0.88250266  1  -1.149791  0  -0.312507  -0.516168  0  2.069228  0
