# generated using pymatgen
data_NiH8C12(SN2)2
_symmetry_space_group_name_H-M   'P 1'
_cell_length_a   8.44443445
_cell_length_b   8.44639836
_cell_length_c   10.41447721
_cell_angle_alpha   72.15820583
_cell_angle_beta   72.12180232
_cell_angle_gamma   69.88146875
_symmetry_Int_Tables_number   1
_chemical_formula_structural   NiH8C12(SN2)2
_chemical_formula_sum   'Ni2 H16 C24 S4 N8'
_cell_volume   646.83430290
_cell_formula_units_Z   2
loop_
 _symmetry_equiv_pos_site_id
 _symmetry_equiv_pos_as_xyz
  1  'x, y, z'
loop_
 _atom_site_type_symbol
 _atom_site_label
 _atom_site_symmetry_multiplicity
 _atom_site_fract_x
 _atom_site_fract_y
 _atom_site_fract_z
 _atom_site_occupancy
 _atom_site_pbe_bader_spin_density
 _atom_site_pbe_cm5_charge
 _atom_site_pbe_ddec_charge
 _atom_site_pbe_ddec_spin_density
 _atom_site_pbe_ddec_sum_bond_order
 _atom_site_pbe_magmom
Ni  Ni0  1  0.62965780  0.37014200  0.25006649  1  0  0.684971  0.522999  0  3.19562  0
Ni  Ni1  1  0.37017777  0.62994057  0.74994130  1  0  0.685111  0.522427  0  3.197458  0
H  H2  1  0.80912278  0.49089524  0.39778602  1  0  0.120073  0.094798  0  1.039756  0
H  H3  1  0.50901100  0.19072773  0.10232189  1  0  0.120272  0.095251  0  1.0394  0
H  H4  1  0.19037386  0.50874756  0.60279136  1  0  0.120306  0.095263  0  1.039525  0
H  H5  1  0.49128138  0.80953376  0.89733643  1  0  0.120263  0.095132  0  1.039529  0
H  H6  1  0.09382076  0.36510780  0.46669815  1  0  0.106469  0.110875  0  1.015371  0
H  H7  1  0.63496050  0.90610966  0.03322202  1  0  0.106433  0.110756  0  1.015537  0
H  H8  1  0.90501913  0.63390235  0.53491370  1  0  0.106959  0.111005  0  1.015196  0
H  H9  1  0.36607859  0.09486892  0.96529408  1  0  0.106977  0.11079  0  1.01531  0
H  H10  1  0.28455936  0.08023781  0.41341074  1  0  0.090651  0.098098  0  1.065769  0
H  H11  1  0.91992269  0.71548051  0.08633822  1  0  0.090474  0.097904  0  1.066159  0
H  H12  1  0.71412096  0.91846067  0.58873293  1  0  0.09152  0.097834  0  1.065536  0
H  H13  1  0.08162860  0.28587591  0.91139011  1  0  0.091434  0.097841  0  1.065638  0
H  H14  1  0.18322273  0.93185625  0.29490454  1  0  0.113446  0.125412  0  0.989026  0
H  H15  1  0.06816924  0.81681278  0.20495589  1  0  0.113454  0.125408  0  0.989556  0
H  H16  1  0.81600586  0.06726648  0.70655547  1  0  0.1142  0.125586  0  0.989294  0
H  H17  1  0.93280764  0.18409724  0.79354730  1  0  0.114227  0.125768  0  0.989232  0
C  C18  1  0.45165401  0.32560568  0.62841413  1  0  0.146265  0.246148  0  4.324001  0
C  C19  1  0.67445475  0.54835889  0.87152718  1  0  0.14574  0.245303  0  4.323744  0
C  C20  1  0.54864362  0.67460723  0.37131093  1  0  0.146152  0.246318  0  4.323927  0
C  C21  1  0.32528457  0.45119636  0.12873630  1  0  0.145901  0.246191  0  4.324792  0
C  C22  1  0.89455619  0.36758842  0.37687466  1  0  0.053985  0.096867  0  3.885547  0
C  C23  1  0.63238600  0.10535422  0.12311744  1  0  0.053567  0.096067  0  3.886312  0
C  C24  1  0.10496790  0.63198041  0.62374343  1  0  0.05345  0.096155  0  3.886361  0
C  C25  1  0.36806491  0.89500708  0.87634750  1  0  0.053715  0.096634  0  3.886063  0
C  C26  1  0.05245141  0.29640473  0.41558091  1  0  -0.07845  -0.117158  0  3.963329  0
C  C27  1  0.70363420  0.94751228  0.08434259  1  0  -0.078318  -0.11673  0  3.963471  0
C  C28  1  0.94674289  0.70284819  0.58562101  1  0  -0.07828  -0.117167  0  3.962882  0
C  C29  1  0.29720061  0.05323360  0.91448636  1  0  -0.078296  -0.117052  0  3.963086  0
C  C30  1  0.15928013  0.13882338  0.38564741  1  0  -0.066978  -0.018947  0  3.957332  0
C  C31  1  0.86126720  0.84069526  0.11420204  1  0  -0.066907  -0.018933  0  3.957581  0
C  C32  1  0.83974929  0.86023291  0.61590034  1  0  -0.068296  -0.018577  0  3.958701  0
C  C33  1  0.13987416  0.16027461  0.88415943  1  0  -0.068552  -0.018819  0  3.958692  0
C  C34  1  0.10310278  0.05590031  0.31889566  1  0  -0.073567  -0.143293  0  3.929041  0
C  C35  1  0.94411406  0.89686761  0.18101249  1  0  -0.073518  -0.143465  0  3.92954  0
C  C36  1  0.89619408  0.94345244  0.68218215  1  0  -0.074119  -0.143421  0  3.931291  0
C  C37  1  0.05662559  0.10391104  0.81783466  1  0  -0.07371  -0.143421  0  3.9304  0
C  C38  1  0.94243522  0.13203880  0.28386798  1  0  0.118645  0.154027  0  3.988752  0
C  C39  1  0.86794939  0.05756777  0.21606400  1  0  0.11857  0.154074  0  3.988494  0
C  C40  1  0.05736515  0.86782085  0.71640903  1  0  0.118211  0.152991  0  3.987706  0
C  C41  1  0.13227912  0.94274969  0.78358401  1  0  0.118592  0.154014  0  3.986836  0
S  S42  1  0.46233276  0.18916399  0.54450051  1  0  -0.134729  -0.29517  0  2.474366  0
S  S43  1  0.81078807  0.53760820  0.95554345  1  0  -0.13468  -0.294962  0  2.474485  0
S  S44  1  0.53832234  0.81117395  0.45496349  1  0  -0.135021  -0.295993  0  2.473657  0
S  S45  1  0.18885885  0.46167908  0.04489925  1  0  -0.135032  -0.296022  0  2.474111  0
N  N46  1  0.43584778  0.42746896  0.69178124  1  0  -0.416065  -0.419858  0  3.496046  0
N  N47  1  0.57255550  0.56427546  0.80815491  1  0  -0.415764  -0.419266  0  3.4959  0
N  N48  1  0.56395965  0.57269108  0.30813799  1  0  -0.41606  -0.419801  0  3.494628  0
N  N49  1  0.42714011  0.43578446  0.19195834  1  0  -0.415775  -0.41967  0  3.495314  0
N  N50  1  0.83934982  0.28788773  0.31172998  1  0  -0.321901  -0.192525  0  3.626112  0
N  N51  1  0.71207826  0.16055946  0.18826797  1  0  -0.321957  -0.192407  0  3.627412  0
N  N52  1  0.16045168  0.71197687  0.68846558  1  0  -0.32188  -0.19224  0  3.626599  0
N  N53  1  0.28811249  0.83961987  0.81153142  1  0  -0.322178  -0.193044  0  3.626511  0
