# generated using pymatgen
data_CoH16C20N6O5
_symmetry_space_group_name_H-M   'P 1'
_cell_length_a   8.38856998
_cell_length_b   10.03372371
_cell_length_c   11.43693557
_cell_angle_alpha   81.63362064
_cell_angle_beta   88.83360966
_cell_angle_gamma   85.03410014
_symmetry_Int_Tables_number   1
_chemical_formula_structural   CoH16C20N6O5
_chemical_formula_sum   'Co2 H32 C40 N12 O10'
_cell_volume   948.78205618
_cell_formula_units_Z   2
loop_
 _symmetry_equiv_pos_site_id
 _symmetry_equiv_pos_as_xyz
  1  'x, y, z'
loop_
 _atom_site_type_symbol
 _atom_site_label
 _atom_site_symmetry_multiplicity
 _atom_site_fract_x
 _atom_site_fract_y
 _atom_site_fract_z
 _atom_site_occupancy
 _atom_site_hle17_ddec_charge
 _atom_site_hle17_ddec_spin_density
 _atom_site_hle17_ddec_sum_bond_order
 _atom_site_hle17_magmom
 _atom_site_hse06_10hf_ddec_charge
 _atom_site_hse06_10hf_ddec_spin_density
 _atom_site_hse06_10hf_ddec_sum_bond_order
 _atom_site_hse06_10hf_magmom
 _atom_site_hse06_ddec_charge
 _atom_site_hse06_ddec_spin_density
 _atom_site_hse06_ddec_sum_bond_order
 _atom_site_hse06_magmom
 _atom_site_pbe_cm5_charge
 _atom_site_pbe_ddec_charge
 _atom_site_pbe_ddec_spin_density
 _atom_site_pbe_ddec_sum_bond_order
 _atom_site_pbe_magmom
Co  Co0  1  0.98831732  0.69778339  0.89006632  1  0.991269  2.8531  2.030961  2.576  0.957203  2.842204  2.44246  2.637  1.037064  2.883019  2.369336  2.717  0.66745  0.882274  2.805691  2.515398  2.56
Co  Co1  1  0.01168090  0.30221567  0.10993604  1  0.991258  2.853089  2.030911  2.576  0.957196  2.842206  2.442413  2.637  1.03706  2.88302  2.369293  2.717  0.66745  0.882276  2.805909  2.515308  2.56
H  H2  1  0.01824296  0.24296530  0.39637288  1  0.399965  -0.000235  0.867801  0.0  0.374205  -0.00023  0.941903  0.0  0.384543  -0.000248  0.930233  0.0  0.309093  0.367051  -0.000179  0.949697  0.0
H  H3  1  0.98175417  0.75703274  0.60362700  1  0.399984  -0.000235  0.867766  0.0  0.374226  -0.00023  0.941874  0.0  0.384564  -0.000249  0.930201  0.0  0.309119  0.367072  -0.000178  0.949668  0.0
H  H4  1  0.05860896  0.14201804  0.90170248  1  0.111477  -0.000347  0.979564  0.0  0.115114  -0.000353  1.055125  0.0  0.119659  -0.000417  1.051031  0.0  0.103405  0.111788  -0.000239  1.058077  0.0
H  H5  1  0.94139025  0.85798303  0.09829872  1  0.111494  -0.000347  0.979541  0.0  0.115135  -0.000353  1.055085  0.0  0.11968  -0.000417  1.050991  0.0  0.103417  0.111808  -0.000239  1.058037  0.0
H  H6  1  0.06526628  0.46448365  0.60853198  1  0.126374  0.00015  0.965537  0.0  0.131148  6.8e-05  1.035605  0.0  0.135944  2e-05  1.031431  0.0  0.106316  0.127786  0.000138  1.038323  0.0
H  H7  1  0.93473304  0.53551640  0.39146673  1  0.126425  0.00015  0.96551  0.0  0.13116  6.8e-05  1.035627  0.0  0.135957  2e-05  1.031452  0.0  0.106319  0.127798  0.000138  1.038346  0.0
H  H8  1  0.03387768  0.05377953  0.54607732  1  0.107959  5.5e-05  0.988823  0.0  0.117639  6e-05  1.052142  0.0  0.12182  2.8e-05  1.048237  0.0  0.102214  0.114393  6.6e-05  1.055252  0.0
H  H9  1  0.96612054  0.94621952  0.45392416  1  0.10793  5.5e-05  0.988802  0.0  0.117605  6e-05  1.052136  0.0  0.121788  2.8e-05  1.048229  0.0  0.102197  0.114359  6.6e-05  1.055245  0.0
H  H10  1  0.19673435  0.90334352  0.02268132  1  0.116938  5e-06  0.936839  0.0  0.124539  -2e-05  1.003185  0.0  0.128159  -7.4e-05  0.998103  0.0  0.141133  0.121461  2.8e-05  1.006913  0.0
H  H11  1  0.80326705  0.09665957  0.97731959  1  0.116964  5e-06  0.936865  0.0  0.124563  -2e-05  1.003213  0.0  0.128184  -7.4e-05  0.998128  0.0  0.141133  0.121483  2.8e-05  1.006938  0.0
H  H12  1  0.31811942  0.49863335  0.97628613  1  0.102129  -0.000138  0.97181  0.0  0.103775  -0.00018  1.044492  0.0  0.107133  -0.000215  1.041026  0.0  0.130533  0.101051  -0.000125  1.047375  0.0
H  H13  1  0.68187621  0.50136773  0.02371512  1  0.102116  -0.000138  0.971807  0.0  0.103762  -0.00018  1.044472  0.0  0.107122  -0.000215  1.041007  0.0  0.130532  0.101037  -0.000125  1.047356  0.0
H  H14  1  0.67249820  0.88176820  0.91135558  1  0.082076  -0.000121  0.944623  0.0  0.094044  -5.9e-05  1.005828  0.0  0.096204  -6.4e-05  1.003041  0.0  0.130869  0.092136  -5.9e-05  1.008215  0.0
H  H15  1  0.32749982  0.11823287  0.08864477  1  0.082099  -0.00012  0.944653  0.0  0.094062  -5.9e-05  1.005862  0.0  0.096225  -6.4e-05  1.00307  0.0  0.130898  0.092155  -6e-05  1.008248  0.0
H  H16  1  0.73390968  0.57332441  0.70058865  1  0.114675  0.0  0.928826  0.001  0.124883  -9e-06  0.991896  0.0  0.127681  -1.6e-05  0.988442  0.0  0.146308  0.122678  -1.6e-05  0.994428  0.0
H  H17  1  0.26609002  0.42667162  0.29941408  1  0.11471  0.0  0.928854  0.001  0.124912  -9e-06  0.991914  0.0  0.12771  -1.6e-05  0.988459  0.0  0.146325  0.122706  -1.7e-05  0.994444  0.0
H  H18  1  0.46434986  0.93584282  0.13115908  1  0.081589  -5e-06  0.943315  0.0  0.098121  3e-05  1.007695  0.0  0.098616  2.1e-05  1.00628  0.0  0.115241  0.097811  3.6e-05  1.008054  0.0
H  H19  1  0.53565671  0.06415621  0.86884053  1  0.081575  -5e-06  0.943304  0.0  0.098113  3e-05  1.007692  0.0  0.098611  2.2e-05  1.00628  0.0  0.115226  0.097802  3.6e-05  1.008051  0.0
H  H20  1  0.61536724  0.80063297  0.13594420  1  0.098514  -4.3e-05  0.919701  0.0  0.113258  -5.1e-05  0.985819  0.0  0.114227  -4.9e-05  0.984363  0.0  0.119369  0.112296  -5.2e-05  0.986583  0.0
H  H21  1  0.38463217  0.19936607  0.86405464  1  0.098557  -4.3e-05  0.919685  0.0  0.113315  -5.1e-05  0.985789  0.0  0.114289  -5e-05  0.984337  0.0  0.119391  0.112354  -5.3e-05  0.986555  0.0
H  H22  1  0.62321744  0.92815385  0.33394977  1  0.09485  -6e-06  0.960008  0.0  0.104201  1.2e-05  1.02409  0.0  0.10663  8e-06  1.023869  0.0  0.098505  0.102479  6e-06  1.024296  0.0
H  H23  1  0.37678644  0.07184822  0.66604949  1  0.094897  -7e-06  0.960027  0.0  0.10425  1.2e-05  1.024098  0.0  0.106679  8e-06  1.023878  0.0  0.098531  0.102527  6e-06  1.024305  0.0
H  H24  1  0.26264547  0.57511920  0.48875583  1  0.095456  -3.2e-05  0.952115  0.0  0.109443  -7e-06  1.00915  0.0  0.111836  5e-06  1.008571  0.0  0.102225  0.107643  -2.4e-05  1.00966  0.0
H  H25  1  0.73735484  0.42488287  0.51124348  1  0.095444  -3e-05  0.952084  0.0  0.109437  -7e-06  1.009119  0.0  0.111831  6e-06  1.008539  0.0  0.102218  0.107636  -2.4e-05  1.009631  0.0
H  H26  1  0.28821365  0.64450945  0.27336265  1  0.084837  -1.7e-05  0.986196  0.0  0.091667  -1.8e-05  1.057011  0.0  0.093597  -1.3e-05  1.057122  0.0  0.097791  0.090369  -3.1e-05  1.056718  0.0
H  H27  1  0.71178914  0.35549161  0.72663676  1  0.08488  -1.7e-05  0.986133  0.0  0.091707  -1.8e-05  1.056951  0.0  0.093637  -1.3e-05  1.057062  0.0  0.097814  0.090408  -3.1e-05  1.056658  0.0
H  H28  1  0.59212016  0.86419179  0.54890968  1  0.096109  -3.9e-05  0.952424  0.0  0.106505  -3.1e-05  1.011375  0.0  0.109266  -2.3e-05  1.010806  0.0  0.10173  0.104569  -4.2e-05  1.011815  0.0
H  H29  1  0.40788253  0.13581029  0.45109047  1  0.096135  -3.8e-05  0.952442  0.0  0.106539  -3.1e-05  1.011371  0.0  0.109299  -2.3e-05  1.010802  0.0  0.101751  0.104606  -4.3e-05  1.011812  0.0
H  H30  1  0.29086402  0.72060383  0.69685723  1  0.12422  -0.000334  0.927359  0.0  0.134817  -0.000343  0.994767  0.0  0.137329  -0.000309  0.992134  0.0  0.125268  0.132843  -0.000345  0.996851  0.0
H  H31  1  0.70913659  0.27939520  0.30314072  1  0.124209  -0.000333  0.927377  0.0  0.134827  -0.000343  0.994766  0.0  0.137338  -0.00031  0.99213  0.0  0.125256  0.132847  -0.000347  0.99685  0.0
H  H32  1  0.39592398  0.56154740  0.68557618  1  0.097372  -7.8e-05  0.906362  0.0  0.112559  -5e-05  0.968007  0.0  0.113196  -3.7e-05  0.968055  0.0  0.118332  0.111855  -6.4e-05  0.968316  0.0
H  H33  1  0.60407653  0.43845265  0.31442165  1  0.097406  -7.8e-05  0.906356  0.0  0.112605  -5e-05  0.967977  0.0  0.113241  -3.7e-05  0.968023  0.0  0.118357  0.111901  -6.4e-05  0.968281  0.0
C  C34  1  0.06819682  0.31274636  0.76305666  1  -0.058246  0.007237  3.800192  0.011  -0.03277  0.003189  4.033127  0.005  -0.040728  0.001449  4.05456  0.003  -0.023781  -0.027533  0.004807  4.021087  0.008
C  C35  1  0.93180488  0.68725368  0.23694202  1  -0.058213  0.007227  3.800068  0.011  -0.032762  0.00319  4.033017  0.005  -0.040712  0.001445  4.054436  0.003  -0.02374  -0.027529  0.004807  4.020966  0.008
C  C36  1  0.05668071  0.17608468  0.80702520  1  -0.121692  -0.004084  3.737313  -0.002  -0.164055  0.000286  3.996089  0.001  -0.163273  0.000444  4.015106  0.001  -0.099269  -0.166069  -0.000315  3.985712  0.0
C  C37  1  0.94331841  0.82391740  0.19297500  1  -0.121696  -0.004058  3.737265  -0.002  -0.164045  0.000286  3.996039  0.001  -0.163266  0.000445  4.015053  0.001  -0.099273  -0.166064  -0.000315  3.985665  0.0
C  C38  1  0.06361698  0.35700720  0.64123131  1  -0.177669  -0.008234  3.658129  -0.005  -0.212111  0.000323  3.910532  0.001  -0.212736  0.001165  3.926189  0.001  -0.094597  -0.211237  -0.002222  3.899836  -0.001
C  C39  1  0.93638005  0.64299185  0.35876757  1  -0.177694  -0.008208  3.658147  -0.005  -0.212095  0.000322  3.910568  0.001  -0.212726  0.001168  3.926228  0.001  -0.094588  -0.21122  -0.002224  3.899864  -0.001
C  C40  1  0.04034615  0.08370773  0.72836249  1  -0.039454  0.003583  3.800626  0.005  -0.012173  0.001119  4.033217  0.002  -0.018425  0.00019  4.054398  0.001  -0.021538  -0.008688  0.001768  4.020505  0.003
C  C41  1  0.95965545  0.91629333  0.27163781  1  -0.039457  0.003571  3.80068  0.005  -0.01218  0.00112  4.033254  0.002  -0.018429  0.000189  4.054433  0.001  -0.021554  -0.008696  0.001767  4.020531  0.003
C  C42  1  0.02056227  0.93926405  0.77527648  1  0.635304  -0.011053  3.883734  -0.009  0.589081  -0.003504  4.179044  -0.003  0.625074  -0.002187  4.17361  -0.002  0.20376  0.563381  -0.005419  4.180135  -0.004
C  C43  1  0.97943337  0.06073702  0.22472389  1  0.635269  -0.01105  3.883871  -0.009  0.58908  -0.003504  4.179143  -0.003  0.62507  -0.002187  4.173714  -0.002  0.203772  0.563386  -0.005421  4.180212  -0.004
C  C44  1  0.05129438  0.26369844  0.56243682  1  0.333261  0.001955  3.844883  0.003  0.328511  9.7e-05  4.10977  0.0  0.337719  -0.000555  4.126102  0.0  0.083449  0.321882  0.000338  4.098619  0.001
C  C45  1  0.94870394  0.73629959  0.43756217  1  0.333249  0.001944  3.844947  0.003  0.328482  9.8e-05  4.109848  0.0  0.33769  -0.000554  4.126182  0.0  0.083428  0.321853  0.000338  4.098688  0.001
C  C46  1  0.07727245  0.41216525  0.84782663  1  0.661471  -0.012962  3.846059  -0.008  0.623091  0.003488  4.135636  0.006  0.665131  0.00382  4.125923  0.006  0.220605  0.589583  0.000247  4.141685  0.003
C  C47  1  0.92272816  0.58783379  0.15217307  1  0.661439  -0.012959  3.846009  -0.008  0.623092  0.003489  4.13556  0.006  0.66513  0.003822  4.125846  0.006  0.220568  0.589585  0.000242  4.141597  0.003
C  C48  1  0.04131288  0.12703417  0.60653684  1  -0.193862  -0.006582  3.701893  -0.004  -0.227144  0.00042  3.94779  0.001  -0.228279  0.001156  3.963896  0.001  -0.09763  -0.225888  -0.001076  3.937093  0.0
C  C49  1  0.95868654  0.87296488  0.39346287  1  -0.193816  -0.006557  3.701853  -0.004  -0.227086  0.00042  3.94775  0.001  -0.228223  0.001156  3.963858  0.001  -0.097596  -0.22583  -0.001077  3.937046  0.0
C  C50  1  0.25711511  0.80281614  0.02516030  1  0.170898  -0.012548  3.630362  -0.008  0.098259  -0.004405  3.901362  -0.002  0.123249  -0.003931  3.914696  -0.002  0.159904  0.087088  -0.005285  3.895191  -0.003
C  C51  1  0.74288519  0.19718594  0.97483988  1  0.17079  -0.012539  3.630491  -0.008  0.098175  -0.004406  3.901483  -0.002  0.123163  -0.003931  3.914815  -0.002  0.159864  0.087002  -0.005288  3.895296  -0.003
C  C52  1  0.32095882  0.59712915  0.00397111  1  0.208677  -0.009328  3.677932  -0.006  0.156636  -0.004087  3.976125  -0.002  0.170151  -0.003947  3.983333  -0.002  0.142402  0.14813  -0.004123  3.968347  -0.002
C  C53  1  0.67904029  0.40287294  0.99602996  1  0.208615  -0.009317  3.677934  -0.006  0.156606  -0.004087  3.976112  -0.002  0.17012  -0.003946  3.983321  -0.002  0.142385  0.148093  -0.004124  3.96833  -0.002
C  C54  1  0.46040651  0.78862653  0.28855113  1  0.066448  5.4e-05  3.749621  0.0  0.087002  2.6e-05  3.989036  0.0  0.08586  2.6e-05  4.012353  0.0  -0.015796  0.087584  2.3e-05  3.972692  0.0
C  C55  1  0.53959519  0.21137352  0.71144755  1  0.066544  3.9e-05  3.749519  0.0  0.087114  2.6e-05  3.988937  0.0  0.085977  2.7e-05  4.012256  0.0  -0.015765  0.087694  2.3e-05  3.972593  0.0
C  C56  1  0.64672649  0.81261422  0.85120137  1  0.19388  -0.009782  3.729207  -0.006  0.141108  -0.003414  4.024927  -0.002  0.153355  -0.002999  4.03592  -0.002  0.138225  0.13274  -0.004074  4.017656  -0.002
C  C57  1  0.35327063  0.18738382  0.14879939  1  0.193896  -0.009787  3.729349  -0.006  0.141134  -0.003414  4.025053  -0.002  0.153379  -0.002999  4.036045  -0.002  0.13825  0.132761  -0.004077  4.017778  -0.002
C  C58  1  0.68266695  0.65372651  0.74686938  1  0.181565  -0.012629  3.618721  -0.008  0.105273  -0.003413  3.88923  -0.001  0.121514  -0.002647  3.897696  -0.001  0.16853  0.094283  -0.004932  3.883312  -0.002
C  C59  1  0.31733137  0.34627153  0.25313223  1  0.181439  -0.012634  3.618742  -0.008  0.105198  -0.003413  3.889223  -0.001  0.12144  -0.002647  3.897688  -0.001  0.16851  0.094206  -0.004936  3.88329  -0.002
C  C60  1  0.48907894  0.82658680  0.15728740  1  -0.046776  0.000449  3.660264  0.001  -0.128908  0.000352  3.912215  0.001  -0.115633  0.000275  3.925473  0.0  -0.038767  -0.132069  0.000437  3.906284  0.001
C  C61  1  0.51092038  0.17341325  0.84271043  1  -0.046849  0.00045  3.66018  0.001  -0.129055  0.000352  3.912244  0.001  -0.1158  0.000274  3.925532  0.0  -0.03879  -0.132216  0.000436  3.906308  0.001
C  C62  1  0.42620075  0.71366833  0.53435513  1  0.072412  -0.000199  3.749103  0.0  0.090643  -0.000102  3.991191  0.0  0.090039  -8e-05  4.015673  0.0  -0.012179  0.091169  -0.00013  3.974229  0.0
C  C63  1  0.57379727  0.28633273  0.46564347  1  0.072466  -0.000172  3.74904  0.0  0.090641  -0.000102  3.991212  0.0  0.090032  -8.1e-05  4.015693  0.0  -0.012168  0.091168  -0.00013  3.974249  0.0
C  C64  1  0.54348335  0.85084391  0.36756880  1  -0.112561  -7.7e-05  3.760092  0.0  -0.130213  -1.8e-05  4.00536  0.0  -0.133389  -1.1e-05  4.029513  0.0  -0.093358  -0.128005  -4.1e-05  3.989226  0.0
C  C65  1  0.45651945  0.14915715  0.63242973  1  -0.112638  -5e-05  3.760123  0.0  -0.130277  -1.8e-05  4.00537  0.0  -0.133453  -1.2e-05  4.029518  0.0  -0.093391  -0.12807  -4.1e-05  3.989242  0.0
C  C66  1  0.34195562  0.65280081  0.45510900  1  -0.114076  5.5e-05  3.761643  0.0  -0.131095  2.9e-05  4.006044  0.0  -0.134144  3.1e-05  4.029072  0.0  -0.093965  -0.128973  2e-05  3.990396  0.0
C  C67  1  0.65804598  0.34720024  0.54488868  1  -0.114095  4e-05  3.761425  0.0  -0.131103  2.9e-05  4.005847  0.0  -0.134151  3.1e-05  4.028876  0.0  -0.093962  -0.128979  2e-05  3.990197  0.0
C  C68  1  0.35742869  0.69103941  0.33353623  1  -0.124418  -0.000102  3.786164  0.0  -0.148233  -1e-05  4.041138  0.0  -0.150761  -1.5e-05  4.064377  0.0  -0.099901  -0.146371  -1e-05  4.025336  0.0
C  C69  1  0.64257282  0.30896266  0.66646219  1  -0.12447  -7.5e-05  3.786002  0.0  -0.148278  -1e-05  4.040981  0.0  -0.150807  -1.6e-05  4.064218  0.0  -0.099939  -0.146417  -1e-05  4.025177  0.0
C  C70  1  0.52595500  0.81414491  0.48920428  1  -0.116398  5.1e-05  3.755501  0.0  -0.136912  3.7e-05  4.004002  0.0  -0.139656  3.2e-05  4.026075  0.0  -0.095643  -0.134896  3.5e-05  3.988816  0.0
C  C71  1  0.47404551  0.18585515  0.51079616  1  -0.116433  3.7e-05  3.755572  0.0  -0.136941  3.7e-05  4.004095  0.0  -0.139682  3.3e-05  4.026168  0.0  -0.09565  -0.134927  3.5e-05  3.988914  0.0
C  C72  1  0.40272218  0.67145452  0.66559169  1  -0.061669  0.000416  3.624915  0.001  -0.139589  0.000325  3.870458  0.001  -0.135663  0.000243  3.878896  0.0  -0.039758  -0.141973  0.00042  3.865041  0.001
C  C73  1  0.59727833  0.32854553  0.33440614  1  -0.061745  0.000415  3.625024  0.001  -0.139662  0.000324  3.870566  0.001  -0.135724  0.000243  3.87899  0.0  -0.039795  -0.142039  0.000419  3.865139  0.001
N  N74  1  0.20797295  0.70226380  0.97340299  1  -0.407542  0.025709  3.279984  0.055  -0.368238  0.017907  3.595919  0.035  -0.392678  0.015042  3.600707  0.031  -0.345924  -0.348361  0.020938  3.589013  0.039
N  N75  1  0.79202606  0.29773929  0.02659708  1  -0.407422  0.025706  3.280032  0.055  -0.368154  0.017907  3.595987  0.035  -0.392596  0.015042  3.600777  0.031  -0.345891  -0.348269  0.020938  3.589044  0.039
N  N76  1  0.75982326  0.71812128  0.81966952  1  -0.389143  0.028667  3.291949  0.055  -0.342663  0.022429  3.59345  0.036  -0.366374  0.019859  3.599608  0.031  -0.347566  -0.325129  0.024498  3.591067  0.04
N  N77  1  0.24017516  0.28187574  0.18033135  1  -0.389039  0.028668  3.291919  0.055  -0.34259  0.022429  3.593425  0.036  -0.366301  0.01986  3.599583  0.031  -0.347572  -0.325056  0.024497  3.591021  0.04
N  N78  1  0.39354137  0.75848681  0.08377548  1  0.030381  0.000467  3.604464  0.001  0.150277  7.9e-05  3.791245  0.001  0.11124  0.000147  3.853719  0.001  -0.141284  0.157463  -5e-05  3.774955  0.001
N  N79  1  0.60645894  0.24151526  0.91622383  1  0.030434  0.000464  3.604335  0.001  0.150346  7.9e-05  3.791126  0.001  0.111319  0.000147  3.853594  0.001  -0.141243  0.157531  -5.1e-05  3.774828  0.001
N  N80  1  0.53004251  0.70788435  0.73644477  1  0.049694  0.000639  3.559363  0.002  0.171816  0.00032  3.742834  0.001  0.161844  0.000367  3.764644  0.001  -0.129341  0.177096  0.000146  3.730432  0.001
N  N81  1  0.46995820  0.29211368  0.26355507  1  0.049743  0.000641  3.559347  0.002  0.171817  0.00032  3.742855  0.001  0.161837  0.000368  3.76467  0.001  -0.129345  0.177097  0.000145  3.730443  0.001
N  N82  1  0.43600036  0.62710463  0.07140590  1  -0.281943  0.003433  2.865757  0.005  -0.279545  0.001261  3.138188  0.002  -0.279822  0.001094  3.158071  0.002  -0.2261  -0.273641  0.001503  3.129473  0.002
N  N83  1  0.56399994  0.37289745  0.92859515  1  -0.281944  0.003429  2.865628  0.005  -0.279547  0.001261  3.138052  0.002  -0.279826  0.001094  3.15793  0.002  -0.22613  -0.273644  0.001503  3.129338  0.002
N  N84  1  0.50524270  0.81105600  0.80196603  1  -0.274931  0.003375  2.856131  0.006  -0.277502  0.001401  3.127877  0.002  -0.285164  0.00119  3.141354  0.002  -0.22568  -0.272588  0.001643  3.119591  0.003
N  N85  1  0.49475542  0.18894405  0.19803357  1  -0.274987  0.003377  2.856212  0.006  -0.277545  0.001402  3.12796  0.002  -0.285207  0.00119  3.141439  0.002  -0.225708  -0.27263  0.001641  3.119668  0.003
O  O86  1  0.97249977  0.91139632  0.88257125  1  -0.616988  0.04265  2.020998  0.074  -0.577601  0.032362  2.282725  0.053  -0.61559  0.023543  2.27522  0.039  -0.309768  -0.545059  0.042187  2.284958  0.068
O  O87  1  0.02749845  0.08860273  0.11743023  1  -0.616928  0.042647  2.021019  0.074  -0.577581  0.032362  2.282781  0.053  -0.615568  0.023543  2.275275  0.039  -0.309749  -0.545044  0.042182  2.285001  0.068
O  O88  1  0.05204133  0.84577972  0.71154514  1  -0.636737  0.021642  1.983956  0.039  -0.596567  0.018664  2.226763  0.032  -0.627339  0.013038  2.217878  0.023  -0.309802  -0.57107  0.024517  2.231207  0.041
O  O89  1  0.94795689  0.15421933  0.28845722  1  -0.636763  0.021641  1.984012  0.039  -0.596612  0.018665  2.226823  0.032  -0.627383  0.013038  2.217939  0.023  -0.309835  -0.571113  0.024512  2.231251  0.041
O  O90  1  0.10938589  0.36619583  0.95586180  1  -0.634564  0.045946  2.164807  0.081  -0.609747  0.034189  2.464683  0.056  -0.651848  0.022213  2.452745  0.037  -0.31808  -0.569876  0.048914  2.469414  0.08
O  O91  1  0.89061789  0.63380725  0.04413820  1  -0.634577  0.045949  2.164833  0.081  -0.609792  0.034194  2.464699  0.056  -0.651894  0.022218  2.45276  0.037  -0.318103  -0.569919  0.048923  2.469441  0.08
O  O92  1  0.05426321  0.53743299  0.80758510  1  -0.592161  0.049064  2.090298  0.086  -0.559404  0.039743  2.367681  0.065  -0.597239  0.029737  2.353836  0.048  -0.302519  -0.526859  0.050332  2.376941  0.082
O  O93  1  0.94573611  0.46256706  0.19241361  1  -0.59215  0.049061  2.090304  0.086  -0.559382  0.039742  2.367655  0.065  -0.597216  0.029736  2.353811  0.048  -0.3025  -0.526833  0.050333  2.376886  0.082
O  O94  1  0.04794613  0.31143906  0.44500108  1  -0.528992  0.000234  2.129748  0.001  -0.480361  -0.000121  2.348892  0.0  -0.499355  -0.000329  2.340079  0.0  -0.3504  -0.466609  2.4e-05  2.354052  0.0
O  O95  1  0.95205228  0.68855797  0.55499979  1  -0.529024  0.000233  2.129753  0.001  -0.480397  -0.000121  2.348898  0.0  -0.49939  -0.000331  2.340086  0.0  -0.350438  -0.466648  2.6e-05  2.35406  0.0
