# generated using pymatgen
data_CdH20C28(NO2)2
_symmetry_space_group_name_H-M   'P 1'
_cell_length_a   5.33832302
_cell_length_b   11.70646418
_cell_length_c   18.87434366
_cell_angle_alpha   88.13834986
_cell_angle_beta   81.87085429
_cell_angle_gamma   76.83442944
_symmetry_Int_Tables_number   1
_chemical_formula_structural   CdH20C28(NO2)2
_chemical_formula_sum   'Cd2 H40 C56 N4 O8'
_cell_volume   1136.96942448
_cell_formula_units_Z   2
loop_
 _symmetry_equiv_pos_site_id
 _symmetry_equiv_pos_as_xyz
  1  'x, y, z'
loop_
 _atom_site_type_symbol
 _atom_site_label
 _atom_site_symmetry_multiplicity
 _atom_site_fract_x
 _atom_site_fract_y
 _atom_site_fract_z
 _atom_site_occupancy
 _atom_site_hle17_bader_spin_density
 _atom_site_hle17_ddec_charge
 _atom_site_hle17_ddec_spin_density
 _atom_site_hle17_ddec_sum_bond_order
 _atom_site_hle17_magmom
 _atom_site_hse06_10hf_bader_spin_density
 _atom_site_hse06_10hf_ddec_charge
 _atom_site_hse06_10hf_ddec_spin_density
 _atom_site_hse06_10hf_ddec_sum_bond_order
 _atom_site_hse06_10hf_magmom
 _atom_site_hse06_bader_spin_density
 _atom_site_hse06_ddec_charge
 _atom_site_hse06_ddec_spin_density
 _atom_site_hse06_ddec_sum_bond_order
 _atom_site_hse06_magmom
 _atom_site_pbe_bader_spin_density
 _atom_site_pbe_cm5_charge
 _atom_site_pbe_ddec_charge
 _atom_site_pbe_ddec_spin_density
 _atom_site_pbe_ddec_sum_bond_order
 _atom_site_pbe_magmom
Cd  Cd0  1  0.32446022  0.99971517  0.99995351  1  0  1.066007  0  1.669467  0  0  0.864048  0  2.116348  0  0  0.92343  0  2.068722  0  0  0.770069  0.822103  0  2.148763  0
Cd  Cd1  1  0.07490701  0.50025176  0.50001452  1  0  1.065847  0  1.668634  0  0  0.86405  0  2.115248  0  0  0.923438  0  2.06763  0  0  0.770064  0.822088  0  2.14766  0
H  H2  1  0.69123961  0.30921525  0.92053347  1  0  0.100039  0  0.972583  0  0  0.105782  0  1.04456  0  0  0.108985  0  1.043035  0  0  0.098517  0.103436  0  1.045809  0
H  H3  1  0.74966106  0.19099344  0.42032618  1  0  0.100235  0  0.972498  0  0  0.106038  0  1.044143  0  0  0.109262  0  1.042548  0  0  0.098363  0.103781  0  1.045392  0
H  H4  1  0.36085122  0.80942908  0.57955652  1  0  0.100732  0  0.971502  0  0  0.106369  0  1.043618  0  0  0.109555  0  1.042129  0  0  0.098825  0.104029  0  1.04485  0
H  H5  1  0.92107955  0.69039196  0.07953442  1  0  0.09896  0  0.971091  0  0  0.104588  0  1.043212  0  0  0.107777  0  1.041692  0  0  0.098503  0.102368  0  1.044411  0
H  H6  1  0.81053301  0.56198519  0.75340595  1  0  0.095411  0  0.968329  0  0  0.10493  0  1.032321  0  0  0.107708  0  1.030951  0  0  0.101082  0.102917  0  1.033274  0
H  H7  1  0.12322561  0.93872069  0.25320795  1  0  0.094744  0  0.967523  0  0  0.10437  0  1.031617  0  0  0.107162  0  1.030195  0  0  0.100771  0.102396  0  1.032419  0
H  H8  1  0.31452704  0.06170193  0.74673156  1  0  0.095433  0  0.967666  0  0  0.105322  0  1.031398  0  0  0.108147  0  1.029989  0  0  0.101188  0.103223  0  1.032452  0
H  H9  1  0.12635225  0.43770096  0.24662435  1  0  0.094418  0  0.96915  0  0  0.10393  0  1.033286  0  0  0.106716  0  1.031922  0  0  0.100598  0.101956  0  1.034084  0
H  H10  1  0.24327096  0.44359359  0.71536737  1  0  0.093477  0  0.976649  0  0  0.103781  0  1.037439  0  0  0.106089  0  1.037376  0  0  0.098907  0.10211  0  1.037588  0
H  H11  1  0.43702508  0.05752190  0.21528853  1  0  0.093464  0  0.976252  0  0  0.10428  0  1.036552  0  0  0.106567  0  1.036528  0  0  0.099308  0.102662  0  1.036712  0
H  H12  1  0.70934399  0.94314918  0.78461004  1  0  0.092792  0  0.977228  0  0  0.103129  0  1.038127  0  0  0.105458  0  1.038005  0  0  0.098662  0.101464  0  1.038299  0
H  H13  1  0.40203253  0.55633466  0.28482244  1  0  0.091591  0  0.975634  0  0  0.102048  0  1.036553  0  0  0.104344  0  1.036456  0  0  0.098339  0.100447  0  1.036738  0
H  H14  1  0.41337930  0.25697266  0.78047224  1  0  0.100278  0  0.948272  0  0  0.109417  0  1.011535  0  0  0.112772  0  1.009815  0  0  0.102378  0.106951  0  1.012873  0
H  H15  1  0.41980645  0.24404464  0.28055702  1  0  0.100338  0  0.947618  0  0  0.10936  0  1.01102  0  0  0.112733  0  1.009283  0  0  0.102227  0.106929  0  1.01218  0
H  H16  1  0.94383401  0.75657307  0.71940946  1  0  0.101022  0  0.947637  0  0  0.109734  0  1.011276  0  0  0.113107  0  1.00956  0  0  0.10263  0.107212  0  1.012638  0
H  H17  1  0.45029972  0.74304704  0.21973875  1  0  0.101283  0  0.949067  0  0  0.109935  0  1.012754  0  0  0.113301  0  1.011027  0  0  0.102465  0.107488  0  1.013955  0
H  H18  1  0.34313031  0.47433126  0.90816840  1  0  0.084868  0  0.945171  0  0  0.099769  0  1.002882  0  0  0.102017  0  1.002142  0  0  0.100968  0.09809  0  1.003556  0
H  H19  1  0.56762733  0.02580812  0.40778073  1  0  0.084234  0  0.946668  0  0  0.098487  0  1.004992  0  0  0.10069  0  1.00433  0  0  0.100802  0.096931  0  1.005469  0
H  H20  1  0.00047199  0.97452019  0.59216476  1  0  0.084159  0  0.946605  0  0  0.098961  0  1.004247  0  0  0.101281  0  1.003424  0  0  0.10096  0.097291  0  1.004885  0
H  H21  1  0.72617705  0.52521594  0.09186741  1  0  0.084991  0  0.947014  0  0  0.099525  0  1.004888  0  0  0.101779  0  1.00416  0  0  0.10145  0.097945  0  1.005406  0
H  H22  1  0.49748107  0.67572808  0.81547931  1  0  0.090493  0  0.964521  0  0  0.102005  0  1.026957  0  0  0.10428  0  1.027398  0  0  0.100244  0.100403  0  1.026663  0
H  H23  1  0.92423779  0.82441811  0.31538071  1  0  0.09115  0  0.96457  0  0  0.102689  0  1.026968  0  0  0.104982  0  1.027373  0  0  0.100267  0.10102  0  1.026811  0
H  H24  1  0.06289444  0.17585519  0.68469210  1  0  0.091618  0  0.963984  0  0  0.103448  0  1.026051  0  0  0.105657  0  1.026559  0  0  0.100685  0.101897  0  1.025666  0
H  H25  1  0.98938128  0.32376144  0.18441307  1  0  0.089684  0  0.964334  0  0  0.101826  0  1.025987  0  0  0.103969  0  1.026612  0  0  0.099462  0.100268  0  1.025667  0
H  H26  1  0.93783113  0.57447635  0.93513713  1  0  0.099777  0  0.958487  0  0  0.111894  0  1.01599  0  0  0.114648  0  1.016183  0  0  0.104626  0.10998  0  1.015885  0
H  H27  1  0.26346419  0.92558629  0.43497205  1  0  0.100596  0  0.958452  0  0  0.112814  0  1.015552  0  0  0.115575  0  1.015703  0  0  0.104899  0.110861  0  1.015586  0
H  H28  1  0.62228026  0.07479175  0.56511416  1  0  0.10047  0  0.95892  0  0  0.11235  0  1.016408  0  0  0.115105  0  1.016595  0  0  0.105043  0.110435  0  1.016298  0
H  H29  1  0.44824716  0.42496266  0.06478451  1  0  0.099803  0  0.958754  0  0  0.112145  0  1.015991  0  0  0.114855  0  1.016238  0  0  0.104875  0.110215  0  1.015967  0
H  H30  1  0.54611252  0.72030046  0.98779051  1  0  0.075126  0  0.944795  0  0  0.084482  0  1.007795  0  0  0.086554  0  1.006356  0  0  0.113639  0.082871  0  1.009008  0
H  H31  1  0.01738530  0.77977104  0.48769825  1  0  0.074575  0  0.946306  0  0  0.084231  0  1.008991  0  0  0.086309  0  1.007531  0  0  0.113531  0.082709  0  1.010054  0
H  H32  1  0.28387377  0.22080695  0.51231512  1  0  0.074589  0  0.945698  0  0  0.084485  0  1.008027  0  0  0.086496  0  1.006631  0  0  0.113608  0.082847  0  1.00927  0
H  H33  1  0.25513023  0.27908317  0.01208834  1  0  0.074824  0  0.946199  0  0  0.084194  0  1.009101  0  0  0.086278  0  1.007641  0  0  0.113711  0.082695  0  1.010129  0
H  H34  1  0.83255652  0.99879930  0.89670332  1  0  0.092608  0  0.947395  0  0  0.102125  0  1.007467  0  0  0.104997  0  1.0044  0  0  0.119169  0.100104  0  1.009442  0
H  H35  1  0.58179861  0.50115626  0.39670758  1  0  0.093516  0  0.946084  0  0  0.102307  0  1.007034  0  0  0.105165  0  1.003978  0  0  0.11889  0.100235  0  1.009202  0
H  H36  1  0.48015265  0.49915556  0.60324083  1  0  0.092889  0  0.946547  0  0  0.10233  0  1.006777  0  0  0.105198  0  1.003727  0  0  0.118824  0.100304  0  1.008738  0
H  H37  1  0.72873763  0.00051288  0.10314504  1  0  0.092926  0  0.946541  0  0  0.101958  0  1.0071  0  0  0.104802  0  1.00409  0  0  0.119291  0.099876  0  1.009275  0
H  H38  1  0.24079647  0.86537130  0.83997223  1  0  0.105414  0  0.966878  0  0  0.114674  0  1.030291  0  0  0.117132  0  1.03153  0  0  0.104857  0.112819  0  1.029727  0
H  H39  1  0.85699356  0.63459933  0.33996499  1  0  0.105703  0  0.967854  0  0  0.115134  0  1.030948  0  0  0.117686  0  1.032102  0  0  0.104915  0.113221  0  1.03048  0
H  H40  1  0.83126017  0.36553862  0.66009188  1  0  0.104301  0  0.969407  0  0  0.113761  0  1.032499  0  0  0.116299  0  1.03367  0  0  0.104264  0.111811  0  1.032025  0
H  H41  1  0.94697417  0.13403358  0.15984873  1  0  0.106045  0  0.968382  0  0  0.115106  0  1.031861  0  0  0.117648  0  1.033008  0  0  0.104885  0.113195  0  1.031417  0
C  C42  1  0.16865409  0.16516449  0.89546342  1  0  0.610413  0  3.960013  0  0  0.566801  0  4.243361  0  0  0.600993  0  4.237803  0  0  0.185472  0.543815  0  4.246013  0
C  C43  1  0.08315362  0.33515176  0.39563472  1  0  0.611679  0  3.96169  0  0  0.56773  0  4.244637  0  0  0.601935  0  4.239102  0  0  0.185782  0.544561  0  4.247558  0
C  C44  1  0.81337792  0.66527692  0.60437189  1  0  0.613246  0  3.959667  0  0  0.569381  0  4.242661  0  0  0.603584  0  4.237096  0  0  0.187145  0.546399  0  4.245325  0
C  C45  1  0.22908958  0.83459609  0.10461998  1  0  0.609491  0  3.96265  0  0  0.566074  0  4.245744  0  0  0.600285  0  4.24018  0  0  0.184041  0.542904  0  4.24869  0
C  C46  1  0.06088841  0.27244366  0.85400453  1  0  -0.065149  0  3.777386  0  0  -0.04051  0  4.00904  0  0  -0.049001  0  4.032756  0  0  -0.022561  -0.035156  0  3.993097  0
C  C47  1  0.08270945  0.22812454  0.35396890  1  0  -0.06546  0  3.780866  0  0  -0.03951  0  4.010717  0  0  -0.047971  0  4.034395  0  0  -0.023968  -0.034099  0  3.994817  0
C  C48  1  0.66433181  0.77238508  0.64599394  1  0  -0.06593  0  3.77929  0  0  -0.039913  0  4.008866  0  0  -0.048362  0  4.032507  0  0  -0.021883  -0.034597  0  3.992973  0
C  C49  1  0.18711463  0.72739607  0.14616332  1  0  -0.067623  0  3.778183  0  0  -0.043287  0  4.009906  0  0  -0.051769  0  4.033571  0  0  -0.02388  -0.037874  0  3.994037  0
C  C50  1  0.81040282  0.33969752  0.87541507  1  0  -0.109425  0  3.679879  0  0  -0.138483  0  3.921648  0  0  -0.138619  0  3.941443  0  0  -0.081682  -0.138327  0  3.908417  0
C  C51  1  0.89952568  0.16073057  0.37522057  1  0  -0.111301  0  3.680356  0  0  -0.140417  0  3.921752  0  0  -0.140582  0  3.941539  0  0  -0.081868  -0.140963  0  3.909229  0
C  C52  1  0.43520277  0.83977144  0.62466780  1  0  -0.110788  0  3.678121  0  0  -0.140557  0  3.919642  0  0  -0.140737  0  3.939444  0  0  -0.083461  -0.140384  0  3.90644  0
C  C53  1  0.02544999  0.66004161  0.12470752  1  0  -0.106117  0  3.676584  0  0  -0.134674  0  3.918247  0  0  -0.134814  0  3.938042  0  0  -0.081083  -0.135245  0  3.905695  0
C  C54  1  0.71550782  0.44588405  0.84094329  1  0  0.064418  0  3.841437  0  0  0.087136  0  4.072511  0  0  0.085006  0  4.098227  0  0  -0.015826  0.088547  0  4.054896  0
C  C55  1  0.91150792  0.05453811  0.34070240  1  0  0.066384  0  3.837523  0  0  0.088593  0  4.06937  0  0  0.086515  0  4.095043  0  0  -0.015837  0.089834  0  4.051981  0
C  C56  1  0.30617389  0.94590368  0.65921917  1  0  0.066998  0  3.838506  0  0  0.09066  0  4.068634  0  0  0.088539  0  4.094343  0  0  -0.013235  0.09205  0  4.051046  0
C  C57  1  0.00256929  0.55378694  0.15916013  1  0  0.063805  0  3.838646  0  0  0.086396  0  4.07008  0  0  0.084272  0  4.095795  0  0  -0.016829  0.087677  0  4.052657  0
C  C58  1  0.87646318  0.48130748  0.78251387  1  0  -0.089943  0  3.691159  0  0  -0.110291  0  3.933619  0  0  -0.110657  0  3.95309  0  0  -0.081324  -0.109739  0  3.92014  0
C  C59  1  0.10813909  0.01938711  0.28233856  1  0  -0.09038  0  3.691588  0  0  -0.111073  0  3.935102  0  0  -0.111373  0  3.954471  0  0  -0.081377  -0.109733  0  3.920979  0
C  C60  1  0.40918769  0.98105937  0.71759908  1  0  -0.091827  0  3.690457  0  0  -0.113096  0  3.933208  0  0  -0.113489  0  3.952646  0  0  -0.083319  -0.112474  0  3.919766  0
C  C61  1  0.14040546  0.51846481  0.21759455  1  0  -0.089195  0  3.687981  0  0  -0.10979  0  3.93084  0  0  -0.11012  0  3.950235  0  0  -0.080097  -0.108453  0  3.916735  0
C  C62  1  0.12349966  0.41350435  0.76035374  1  0  -0.073734  0  3.785087  0  0  -0.085646  0  4.037975  0  0  -0.089158  0  4.060124  0  0  -0.092682  -0.083399  0  4.022831  0
C  C63  1  0.28702815  0.08743561  0.26026355  1  0  -0.073911  0  3.788471  0  0  -0.086145  0  4.041569  0  0  -0.089638  0  4.063679  0  0  -0.092916  -0.084023  0  4.026006  0
C  C64  1  0.63424424  0.91318663  0.73965048  1  0  -0.071881  0  3.783798  0  0  -0.083708  0  4.036649  0  0  -0.08721  0  4.058819  0  0  -0.091623  -0.081476  0  4.021459  0
C  C65  1  0.29735991  0.58632509  0.23977840  1  0  -0.071033  0  3.781793  0  0  -0.083061  0  4.034811  0  0  -0.086531  0  4.056887  0  0  -0.092016  -0.080975  0  4.019293  0
C  C66  1  0.21747176  0.30940472  0.79586720  1  0  -0.074848  0  3.732885  0  0  -0.10108  0  3.986229  0  0  -0.100959  0  4.006697  0  0  -0.085021  -0.100651  0  3.972136  0
C  C67  1  0.27642446  0.19148207  0.29585658  1  0  -0.075318  0  3.736321  0  0  -0.101858  0  3.98921  0  0  -0.101718  0  4.009634  0  0  -0.083626  -0.100755  0  3.974369  0
C  C68  1  0.76325259  0.80909781  0.70409932  1  0  -0.076096  0  3.735442  0  0  -0.10221  0  3.988156  0  0  -0.102142  0  4.008631  0  0  -0.085309  -0.101707  0  3.974102  0
C  C69  1  0.32249332  0.69048329  0.20430108  1  0  -0.077162  0  3.734056  0  0  -0.102901  0  3.987357  0  0  -0.102754  0  4.007778  0  0  -0.084862  -0.101794  0  3.972502  0
C  C70  1  0.46177348  0.51747921  0.86878013  1  0  -0.075726  0  3.738791  0  0  -0.097789  0  3.986928  0  0  -0.097468  0  4.008153  0  0  -0.076781  -0.09783  0  3.972389  0
C  C71  1  0.72975512  0.98267880  0.36850872  1  0  -0.075052  0  3.738028  0  0  -0.096243  0  3.985987  0  0  -0.095941  0  4.00718  0  0  -0.076816  -0.096305  0  3.971525  0
C  C72  1  0.08000998  0.01761332  0.63150831  1  0  -0.077385  0  3.7385  0  0  -0.099484  0  3.986303  0  0  -0.099209  0  4.00748  0  0  -0.078415  -0.09952  0  3.971806  0
C  C73  1  0.84860547  0.48204581  0.13124765  1  0  -0.07567  0  3.739628  0  0  -0.097322  0  3.987836  0  0  -0.097005  0  4.009016  0  0  -0.077402  -0.097402  0  3.973388  0
C  C74  1  0.37362762  0.63172305  0.85263980  1  0  -0.132115  0  3.745665  0  0  -0.14873  0  3.994202  0  0  -0.154574  0  4.015524  0  0  -0.091788  -0.144742  0  3.979495  0
C  C75  1  0.75627627  0.86835765  0.35248411  1  0  -0.132613  0  3.745425  0  0  -0.14897  0  3.993641  0  0  -0.154808  0  4.014995  0  0  -0.091171  -0.145178  0  3.979329  0
C  C76  1  0.97596573  0.13190738  0.64759466  1  0  -0.133138  0  3.746948  0  0  -0.149944  0  3.995639  0  0  -0.155766  0  4.017039  0  0  -0.092308  -0.145961  0  3.980901  0
C  C77  1  0.85867620  0.36775103  0.14726959  1  0  -0.132439  0  3.744748  0  0  -0.149319  0  3.9931  0  0  -0.155104  0  4.014448  0  0  -0.090936  -0.145569  0  3.978804  0
C  C78  1  0.13042850  0.70728286  0.88378797  1  0  0.150233  0  3.796183  0  0  0.163345  0  4.026332  0  0  0.171009  0  4.04697  0  0  0.010968  0.158511  0  4.01212  0
C  C79  1  0.58866635  0.79274326  0.38367813  1  0  0.150595  0  3.797241  0  0  0.162677  0  4.02911  0  0  0.170307  0  4.049822  0  0  0.009636  0.157768  0  4.015073  0
C  C80  1  0.76397675  0.20750093  0.61643282  1  0  0.150093  0  3.795876  0  0  0.162258  0  4.027492  0  0  0.169935  0  4.048096  0  0  0.009608  0.157411  0  4.013318  0
C  C81  1  0.72219912  0.29213266  0.11611317  1  0  0.15305  0  3.796141  0  0  0.165878  0  4.026785  0  0  0.173568  0  4.047375  0  0  0.011034  0.160933  0  4.012836  0
C  C82  1  0.92745636  0.66765222  0.92600792  1  0  -0.165906  0  3.699754  0  0  -0.181133  0  3.944791  0  0  -0.189671  0  3.965343  0  0  -0.084381  -0.175755  0  3.931008  0
C  C83  1  0.34612835  0.83240872  0.42586761  1  0  -0.165159  0  3.69906  0  0  -0.180136  0  3.944291  0  0  -0.188629  0  3.964813  0  0  -0.082368  -0.174559  0  3.930499  0
C  C84  1  0.60310761  0.16793786  0.57422468  1  0  -0.164784  0  3.698327  0  0  -0.179344  0  3.943394  0  0  -0.187866  0  3.963899  0  0  -0.081911  -0.173971  0  3.929626  0
C  C85  1  0.52194605  0.33176674  0.07387327  1  0  -0.167198  0  3.701441  0  0  -0.182628  0  3.946742  0  0  -0.191121  0  3.967304  0  0  -0.08432  -0.177041  0  3.932942  0
C  C86  1  0.70750783  0.74828889  0.95539235  1  0  0.129874  0  3.737252  0  0  0.098122  0  3.992249  0  0  0.106705  0  4.010035  0  0  0.043822  0.092443  0  3.98031  0
C  C87  1  0.20671905  0.75177097  0.45530581  1  0  0.128318  0  3.737231  0  0  0.096174  0  3.992609  0  0  0.104727  0  4.010412  0  0  0.042207  0.090516  0  3.980448  0
C  C88  1  0.41287814  0.24868835  0.54476475  1  0  0.129555  0  3.736333  0  0  0.097219  0  3.991292  0  0  0.105847  0  4.009128  0  0  0.042523  0.091585  0  3.979303  0
C  C89  1  0.41205055  0.25109803  0.04449661  1  0  0.130031  0  3.736157  0  0  0.098339  0  3.991034  0  0  0.106908  0  4.008791  0  0  0.042789  0.092663  0  3.978909  0
C  C90  1  0.86615014  0.90410117  0.90398255  1  0  0.137273  0  3.712269  0  0  0.10604  0  3.963171  0  0  0.11531  0  3.978563  0  0  0.046586  0.100029  0  3.952547  0
C  C91  1  0.52098749  0.59587681  0.40397338  1  0  0.135166  0  3.711092  0  0  0.104177  0  3.962394  0  0  0.113449  0  3.977852  0  0  0.045981  0.098142  0  3.952021  0
C  C92  1  0.52062517  0.40443031  0.59607286  1  0  0.135192  0  3.713837  0  0  0.103908  0  3.964693  0  0  0.113154  0  3.980158  0  0  0.046024  0.097917  0  3.95402  0
C  C93  1  0.67499016  0.09523617  0.09588404  1  0  0.137097  0  3.712937  0  0  0.106261  0  3.963749  0  0  0.11555  0  3.979144  0  0  0.047164  0.100224  0  3.953401  0
C  C94  1  0.09198002  0.82918768  0.87264792  1  0  -0.163146  0  3.674126  0  0  -0.177312  0  3.918291  0  0  -0.18596  0  3.937751  0  0  -0.08204  -0.171764  0  3.90532  0
C  C95  1  0.67203347  0.67079019  0.37263012  1  0  -0.162621  0  3.674115  0  0  -0.176445  0  3.918201  0  0  -0.185199  0  3.937719  0  0  -0.081258  -0.171191  0  3.905646  0
C  C96  1  0.71491229  0.32942878  0.62747032  1  0  -0.161253  0  3.675557  0  0  -0.175323  0  3.919653  0  0  -0.184036  0  3.939143  0  0  -0.080666  -0.169707  0  3.906719  0
C  C97  1  0.79461873  0.17020347  0.12720159  1  0  -0.164426  0  3.676043  0  0  -0.17849  0  3.920436  0  0  -0.18722  0  3.93986  0  0  -0.08196  -0.173258  0  3.907941  0
N  N98  1  0.67593471  0.86484060  0.94511663  1  0  -0.336527  0  3.26351  0  0  -0.254974  0  3.533025  0  0  -0.276481  0  3.550945  0  0  -0.3353  -0.240435  0  3.520636  0
N  N99  1  0.29152527  0.63520016  0.44508453  1  0  -0.335565  0  3.259404  0  0  -0.253543  0  3.528211  0  0  -0.275001  0  3.54609  0  0  -0.33461  -0.238893  0  3.515837  0
N  N100  1  0.37150802  0.36523270  0.55493518  1  0  -0.335466  0  3.262005  0  0  -0.253563  0  3.531001  0  0  -0.275051  0  3.548914  0  0  -0.334593  -0.239042  0  3.518599  0
N  N101  1  0.48669172  0.13453738  0.05474575  1  0  -0.336619  0  3.261673  0  0  -0.255155  0  3.531058  0  0  -0.276589  0  3.548835  0  0  -0.335923  -0.240494  0  3.518689  0
O  O102  1  0.39390935  0.10475140  0.87481019  1  0  -0.62804  0  1.923579  0  0  -0.575721  0  2.153414  0  0  -0.601485  0  2.145425  0  0  -0.329395  -0.557556  0  2.158148  0
O  O103  1  0.24815949  0.39561660  0.37513932  1  0  -0.628231  0  1.925501  0  0  -0.575859  0  2.155841  0  0  -0.601683  0  2.147813  0  0  -0.328871  -0.557939  0  2.160946  0
O  O104  1  0.01771046  0.60450927  0.62505079  1  0  -0.629263  0  1.922882  0  0  -0.576925  0  2.153308  0  0  -0.60271  0  2.145224  0  0  -0.329853  -0.55869  0  2.157967  0
O  O105  1  0.37303719  0.89517944  0.12524394  1  0  -0.627679  0  1.92407  0  0  -0.575349  0  2.153869  0  0  -0.601167  0  2.145932  0  0  -0.328872  -0.557434  0  2.158893  0
O  O106  1  0.02616373  0.14236592  0.95288786  1  0  -0.648326  0  1.995328  0  0  -0.580732  0  2.242468  0  0  -0.612052  0  2.23607  0  0  -0.337265  -0.558814  0  2.245784  0
O  O107  1  0.91793842  0.35771089  0.45306619  1  0  -0.647664  0  1.994778  0  0  -0.580525  0  2.242086  0  0  -0.611828  0  2.235699  0  0  -0.33766  -0.558631  0  2.245538  0
O  O108  1  0.72864425  0.64295021  0.54681634  1  0  -0.648514  0  1.996072  0  0  -0.581512  0  2.243773  0  0  -0.612731  0  2.237233  0  0  -0.338438  -0.55962  0  2.247061  0
O  O109  1  0.12164125  0.85707682  0.04711014  1  0  -0.645696  0  1.995314  0  0  -0.5783  0  2.242431  0  0  -0.60959  0  2.235972  0  0  -0.335953  -0.556391  0  2.245891  0
