# generated using pymatgen
data_CoH20C18(NO2)2
_symmetry_space_group_name_H-M   'P 1'
_cell_length_a   9.46189974
_cell_length_b   9.62722063
_cell_length_c   10.58718680
_cell_angle_alpha   112.20677213
_cell_angle_beta   92.47474915
_cell_angle_gamma   106.85894678
_symmetry_Int_Tables_number   1
_chemical_formula_structural   CoH20C18(NO2)2
_chemical_formula_sum   'Co2 H40 C36 N4 O8'
_cell_volume   841.69690873
_cell_formula_units_Z   2
loop_
 _symmetry_equiv_pos_site_id
 _symmetry_equiv_pos_as_xyz
  1  'x, y, z'
loop_
 _atom_site_type_symbol
 _atom_site_label
 _atom_site_symmetry_multiplicity
 _atom_site_fract_x
 _atom_site_fract_y
 _atom_site_fract_z
 _atom_site_occupancy
 _atom_site_pbe_cm5_charge
 _atom_site_pbe_ddec_charge
 _atom_site_pbe_ddec_spin_density
 _atom_site_pbe_ddec_sum_bond_order
 _atom_site_pbe_magmom
Co  Co0  1  0.63801238  0.12740426  0.40480151  1  0.669851  0.860194  2.839982  2.51708  2.578
Co  Co1  1  0.36198903  0.87257975  0.59518948  1  0.669834  0.860165  2.839992  2.517243  2.578
H  H2  1  0.98076704  0.53338442  0.35562274  1  0.101725  0.130274  -0.000279  0.976515  0.0
H  H3  1  0.01921632  0.46662236  0.64438878  1  0.101746  0.13033  -0.000279  0.976603  0.0
H  H4  1  0.07161218  0.38959757  0.31262599  1  0.092434  0.108952  0.000592  1.003306  0.001
H  H5  1  0.92839309  0.61042812  0.68738443  1  0.092446  0.108963  0.000592  1.003226  0.001
H  H6  1  0.01244636  0.45997113  0.11160528  1  0.079921  0.06558  8.7e-05  1.023867  0.0
H  H7  1  0.98754425  0.54005828  0.88840780  1  0.07995  0.065686  8.7e-05  1.023737  0.0
H  H8  1  0.81925120  0.38458672  0.11595772  1  0.082874  0.073323  0.000315  1.011965  0.0
H  H9  1  0.18074259  0.61542952  0.88405275  1  0.082906  0.073349  0.000315  1.012005  0.0
H  H10  1  0.03596354  0.19289759  0.06111358  1  0.08337  0.074187  -6.6e-05  1.015355  0.0
H  H11  1  0.96404440  0.80713644  0.93889796  1  0.083363  0.074234  -6.6e-05  1.015246  0.0
H  H12  1  0.84573805  0.11653351  0.07064235  1  0.086499  0.084762  -0.000159  0.991  0.0
H  H13  1  0.15427009  0.88349450  0.92937370  1  0.086501  0.084681  -0.000159  0.990964  0.0
H  H14  1  0.95659264  0.25193794  0.85918264  1  0.081878  0.069949  0.0  1.005747  0.0
H  H15  1  0.04340288  0.74807711  0.14082465  1  0.081892  0.069931  0.0  1.005723  0.0
H  H16  1  0.76871333  0.16926329  0.87145141  1  0.083253  0.070271  -7.3e-05  1.036489  0.0
H  H17  1  0.23128620  0.83075764  0.12856375  1  0.083299  0.070237  -7.3e-05  1.036544  0.0
H  H18  1  0.99288100  0.98698387  0.81470457  1  0.0869  0.077911  7.1e-05  1.02082  0.0
H  H19  1  0.00711528  0.01303347  0.18531394  1  0.08684  0.077802  7.1e-05  1.020831  0.0
H  H20  1  0.80206843  0.90759140  0.82107632  1  0.084851  0.075654  9.3e-05  1.021707  0.0
H  H21  1  0.19792364  0.09242598  0.17894488  1  0.084881  0.075616  9.3e-05  1.021712  0.0
H  H22  1  0.92245971  0.04273437  0.61040175  1  0.099991  0.118509  0.000368  0.976846  0.0
H  H23  1  0.07753879  0.95727344  0.38960973  1  0.099981  0.118473  0.000368  0.976851  0.0
H  H24  1  0.85645238  0.83976406  0.57856725  1  0.103957  0.129089  -0.000415  0.969865  0.0
H  H25  1  0.14355848  0.16024594  0.42145301  1  0.10391  0.129037  -0.000415  0.969777  0.0
H  H26  1  0.46793515  0.97791351  0.10933660  1  0.118432  0.089793  0.000174  1.024243  0.001
H  H27  1  0.53206069  0.02207292  0.89065882  1  0.118461  0.089807  0.000174  1.024102  0.001
H  H28  1  0.46177449  0.76383675  0.88053255  1  0.110864  0.134184  0.000439  1.038513  0.0
H  H29  1  0.53823122  0.23615083  0.11945513  1  0.110857  0.134166  0.000439  1.038628  0.0
H  H30  1  0.79675980  0.66292767  0.09051998  1  0.108771  0.11416  0.000431  1.01569  0.0
H  H31  1  0.20324286  0.33705039  0.90946615  1  0.108799  0.114231  0.000431  1.015688  0.0
H  H32  1  0.78882340  0.88257321  0.30805505  1  0.121827  0.097917  0.000432  0.99346  0.001
H  H33  1  0.21116203  0.11739060  0.69193964  1  0.121907  0.097922  0.000431  0.993578  0.001
H  H34  1  0.66865414  0.41315381  0.93180686  1  0.102995  0.101725  0.000319  1.042964  0.0
H  H35  1  0.33133605  0.58683152  0.06818325  1  0.103052  0.101759  0.000319  1.043006  0.0
H  H36  1  0.67030041  0.19983709  0.71146954  1  0.115626  0.075708  -3.1e-05  1.064821  0.001
H  H37  1  0.32969130  0.80015304  0.28851663  1  0.115622  0.075724  -3.1e-05  1.064825  0.001
H  H38  1  0.61583189  0.45500456  0.48637958  1  0.116972  0.086646  0.000235  1.0264  0.001
H  H39  1  0.38417363  0.54498900  0.51360923  1  0.117005  0.086747  0.000235  1.026349  0.001
H  H40  1  0.59850161  0.67829824  0.69752864  1  0.110421  0.127185  0.000358  1.034513  0.0
H  H41  1  0.40151175  0.32169997  0.30246681  1  0.110466  0.127233  0.000358  1.034523  0.0
C  C42  1  0.84433873  0.30601251  0.33615690  1  0.196018  0.607963  -0.006443  4.140327  -0.006
C  C43  1  0.15566620  0.69398575  0.66384298  1  0.196035  0.608081  -0.006443  4.14034  -0.006
C  C44  1  0.96588846  0.40819703  0.28998488  1  -0.168407  -0.290484  0.002001  3.91156  0.002
C  C45  1  0.03411118  0.59181441  0.71002035  1  -0.168455  -0.290544  0.002001  3.911673  0.002
C  C46  1  0.92886236  0.37151818  0.13616671  1  -0.169106  -0.124508  0.000751  3.963612  0.001
C  C47  1  0.07113535  0.62850044  0.86384002  1  -0.169138  -0.124636  0.00075  3.963709  0.001
C  C48  1  0.92534856  0.20439563  0.04210232  1  -0.169557  -0.141557  -0.000151  3.932668  0.0
C  C49  1  0.07465328  0.79561938  0.95790235  1  -0.169577  -0.141557  -0.000151  3.932477  0.0
C  C50  1  0.88134760  0.16190270  0.88853267  1  -0.171728  -0.151162  -0.000127  3.957878  0.0
C  C51  1  0.11864973  0.83811470  0.11147740  1  -0.171767  -0.151043  -0.000127  3.957613  0.0
C  C52  1  0.88196006  0.99656337  0.79447579  1  -0.16973  -0.125867  0.000853  3.954885  0.001
C  C53  1  0.11803689  0.00345278  0.20554233  1  -0.169845  -0.125977  0.000853  3.954679  0.001
C  C54  1  0.84391274  0.95571834  0.64009251  1  -0.164424  -0.302771  0.004949  3.92504  0.007
C  C55  1  0.15609247  0.04429054  0.35992620  1  -0.164223  -0.30249  0.00495  3.92463  0.007
C  C56  1  0.68624019  0.94727129  0.59390378  1  0.217345  0.633706  -0.000747  4.113383  0.002
C  C57  1  0.31376753  0.05272574  0.40609671  1  0.217331  0.633766  -0.000749  4.113093  0.002
C  C58  1  0.54054092  0.90614581  0.09901166  1  0.045306  0.088288  -0.010761  3.950469  -0.006
C  C59  1  0.45945847  0.09384179  0.90098241  1  0.045324  0.0884  -0.010762  3.950414  -0.006
C  C60  1  0.53827900  0.78734822  0.97211734  1  -0.084281  -0.184373  0.000766  3.920392  0.003
C  C61  1  0.46172297  0.21264415  0.02787470  1  -0.084336  -0.184532  0.000766  3.920724  0.003
C  C62  1  0.63077520  0.69484798  0.96541731  1  0.007178  0.094418  -0.016408  3.992078  -0.009
C  C63  1  0.36923243  0.30514556  0.03457157  1  0.007034  0.094354  -0.016409  3.99218  -0.009
C  C64  1  0.72117536  0.72896766  0.08921334  1  -0.081307  -0.172133  0.000557  3.946981  0.002
C  C65  1  0.27882845  0.27101397  0.91077313  1  -0.081343  -0.172267  0.000557  3.947159  0.002
C  C66  1  0.71836925  0.85155461  0.21082714  1  0.047759  0.099589  -0.010286  3.944279  -0.006
C  C67  1  0.28162881  0.14842225  0.78916502  1  0.047712  0.09961  -0.010284  3.94447  -0.006
C  C68  1  0.63362487  0.56624720  0.83506294  1  0.008242  0.098937  -0.016029  3.980077  -0.009
C  C69  1  0.36637710  0.43374520  0.16492534  1  0.008284  0.098978  -0.01603  3.97994  -0.009
C  C70  1  0.65680909  0.42922626  0.83593021  1  -0.084702  -0.173741  -9.1e-05  3.956843  0.002
C  C71  1  0.34318675  0.57076024  0.16405578  1  -0.084721  -0.173783  -9e-05  3.956774  0.002
C  C72  1  0.65847834  0.30893406  0.71253206  1  0.047252  0.103439  -0.00977  3.948108  -0.005
C  C73  1  0.34152199  0.69106312  0.28745878  1  0.047247  0.103465  -0.009775  3.948192  -0.005
C  C74  1  0.62353948  0.45014391  0.58752903  1  0.044686  0.090948  -0.011266  3.93452  -0.007
C  C75  1  0.37646785  0.54985201  0.41246067  1  0.044594  0.090771  -0.011267  3.934714  -0.007
C  C76  1  0.61528669  0.57441564  0.70588991  1  -0.07984  -0.170325  0.001159  3.908869  0.003
C  C77  1  0.38471413  0.42557319  0.29409707  1  -0.079787  -0.170183  0.001159  3.908912  0.003
N  N78  1  0.64347914  0.31742513  0.58902172  1  -0.324074  -0.242885  0.022597  3.579101  0.041
N  N79  1  0.35652532  0.68256844  0.41096612  1  -0.324114  -0.242947  0.022599  3.57942  0.041
N  N80  1  0.62905071  0.93961761  0.21712606  1  -0.327382  -0.249458  0.023869  3.596106  0.043
N  N81  1  0.37094314  0.06035927  0.78286878  1  -0.327307  -0.249365  0.023869  3.596142  0.043
O  O82  1  0.70628216  0.28442411  0.29806471  1  -0.319673  -0.562141  0.043789  2.21664  0.073
O  O83  1  0.29371907  0.71555278  0.70191907  1  -0.319713  -0.562234  0.043782  2.216731  0.073
O  O84  1  0.87728158  0.24037476  0.41258328  1  -0.31914  -0.559644  0.045426  2.173772  0.077
O  O85  1  0.12272095  0.75962592  0.58741641  1  -0.319114  -0.559652  0.045428  2.173682  0.077
O  O86  1  0.58213075  0.89925532  0.65587369  1  -0.306277  -0.546622  0.044862  2.350926  0.071
O  O87  1  0.41786891  0.10074301  0.34412413  1  -0.306282  -0.546686  0.044855  2.350862  0.071
O  O88  1  0.66355367  0.98715893  0.49527123  1  -0.317557  -0.585587  0.047628  2.489781  0.075
O  O89  1  0.33644879  0.01282503  0.50472545  1  -0.317569  -0.585629  0.047637  2.489674  0.075
