# generated using pymatgen
data_CdH8C10(SN3)2
_symmetry_space_group_name_H-M   'P 1'
_cell_length_a   7.79366324
_cell_length_b   11.58179476
_cell_length_c   14.82923543
_cell_angle_alpha   89.99990595
_cell_angle_beta   89.99986284
_cell_angle_gamma   90.00043064
_symmetry_Int_Tables_number   1
_chemical_formula_structural   CdH8C10(SN3)2
_chemical_formula_sum   'Cd4 H32 C40 S8 N24'
_cell_volume   1338.55512411
_cell_formula_units_Z   4
loop_
 _symmetry_equiv_pos_site_id
 _symmetry_equiv_pos_as_xyz
  1  'x, y, z'
loop_
 _atom_site_type_symbol
 _atom_site_label
 _atom_site_symmetry_multiplicity
 _atom_site_fract_x
 _atom_site_fract_y
 _atom_site_fract_z
 _atom_site_occupancy
 _atom_site_hle17_bader_spin_density
 _atom_site_hle17_ddec_charge
 _atom_site_hle17_ddec_spin_density
 _atom_site_hle17_ddec_sum_bond_order
 _atom_site_hle17_magmom
 _atom_site_hse06_10hf_bader_spin_density
 _atom_site_hse06_10hf_ddec_charge
 _atom_site_hse06_10hf_ddec_spin_density
 _atom_site_hse06_10hf_ddec_sum_bond_order
 _atom_site_hse06_10hf_magmom
 _atom_site_hse06_bader_spin_density
 _atom_site_hse06_ddec_charge
 _atom_site_hse06_ddec_spin_density
 _atom_site_hse06_ddec_sum_bond_order
 _atom_site_hse06_magmom
 _atom_site_pbe_bader_spin_density
 _atom_site_pbe_cm5_charge
 _atom_site_pbe_ddec_charge
 _atom_site_pbe_ddec_spin_density
 _atom_site_pbe_ddec_sum_bond_order
 _atom_site_pbe_magmom
Cd  Cd0  1  0.69567883  0.22777571  0.74999897  1  0  0.935527  0  2.022841  0  0  0.744551  0  2.501658  0  0  0.791056  0  2.462074  0  0  0.72565  0.710913  0  2.529344  0
Cd  Cd1  1  0.19568299  0.27222920  0.24999978  1  0  0.935486  0  2.022884  0  0  0.744515  0  2.501699  0  0  0.791017  0  2.462116  0  0  0.72563  0.710876  0  2.529384  0
Cd  Cd2  1  0.80431600  0.72777708  0.75000060  1  0  0.935541  0  2.022763  0  0  0.744573  0  2.50157  0  0  0.791079  0  2.461984  0  0  0.725643  0.710931  0  2.529255  0
Cd  Cd3  1  0.30432401  0.77222971  0.25000006  1  0  0.935503  0  2.022868  0  0  0.744515  0  2.501685  0  0  0.79102  0  2.4621  0  0  0.725611  0.710873  0  2.529371  0
H  H4  1  0.60517183  0.06684653  0.42183589  1  0  0.084562  0  0.948654  0  0  0.089399  0  1.019086  0  0  0.091737  0  1.017692  0  0  0.113532  0.087506  0  1.020427  0
H  H5  1  0.10517114  0.43314929  0.57816095  1  0  0.084506  0  0.948698  0  0  0.089349  0  1.019106  0  0  0.091697  0  1.017702  0  0  0.113523  0.087458  0  1.02045  0
H  H6  1  0.89483120  0.56685218  0.07816358  1  0  0.084648  0  0.948636  0  0  0.089492  0  1.019063  0  0  0.091819  0  1.017678  0  0  0.113573  0.087595  0  1.020403  0
H  H7  1  0.39483665  0.93314903  0.92183764  1  0  0.084495  0  0.948703  0  0  0.089359  0  1.019114  0  0  0.091692  0  1.017724  0  0  0.113523  0.087466  0  1.020458  0
H  H8  1  0.39482588  0.93314939  0.57816247  1  0  0.0846  0  0.948639  0  0  0.08942  0  1.019073  0  0  0.091767  0  1.017671  0  0  0.113558  0.087526  0  1.020416  0
H  H9  1  0.89482785  0.56684923  0.42183808  1  0  0.084594  0  0.948648  0  0  0.089432  0  1.019077  0  0  0.091765  0  1.017687  0  0  0.113554  0.087536  0  1.020418  0
H  H10  1  0.10516651  0.43314461  0.92184017  1  0  0.084494  0  0.94877  0  0  0.089388  0  1.019119  0  0  0.09176  0  1.017693  0  0  0.113547  0.087495  0  1.020463  0
H  H11  1  0.60517132  0.06685207  0.07816274  1  0  0.08458  0  0.948719  0  0  0.089459  0  1.019097  0  0  0.091788  0  1.017711  0  0  0.11357  0.087563  0  1.020437  0
H  H12  1  0.59323002  0.25429768  0.33606062  1  0  0.111983  0  0.958015  0  0  0.120131  0  1.021687  0  0  0.122592  0  1.020404  0  0  0.107626  0.117812  0  1.023665  0
H  H13  1  0.09323585  0.24569894  0.66393556  1  0  0.111992  0  0.958106  0  0  0.120181  0  1.021726  0  0  0.12264  0  1.020449  0  0  0.107641  0.117864  0  1.023704  0
H  H14  1  0.90677251  0.75430407  0.16393929  1  0  0.111932  0  0.958098  0  0  0.120111  0  1.021732  0  0  0.122568  0  1.020459  0  0  0.107606  0.117793  0  1.023709  0
H  H15  1  0.40677243  0.74569634  0.83606529  1  0  0.111942  0  0.958164  0  0  0.120151  0  1.021765  0  0  0.122609  0  1.02049  0  0  0.107617  0.117832  0  1.023741  0
H  H16  1  0.40677025  0.74569911  0.66393437  1  0  0.111962  0  0.958154  0  0  0.120154  0  1.021773  0  0  0.122612  0  1.020498  0  0  0.107631  0.117836  0  1.023749  0
H  H17  1  0.90677468  0.75429784  0.33606212  1  0  0.111957  0  0.957989  0  0  0.120106  0  1.021678  0  0  0.122567  0  1.020395  0  0  0.107624  0.117787  0  1.023655  0
H  H18  1  0.09322905  0.24569358  0.83606784  1  0  0.111937  0  0.958069  0  0  0.120169  0  1.021674  0  0  0.122628  0  1.020396  0  0  0.107645  0.117851  0  1.023652  0
H  H19  1  0.59322913  0.25430390  0.16393644  1  0  0.111904  0  0.958172  0  0  0.120123  0  1.021767  0  0  0.122581  0  1.020492  0  0  0.107603  0.117805  0  1.023744  0
H  H20  1  0.64579021  0.43861458  0.42338324  1  0  0.109002  0  0.946474  0  0  0.117478  0  1.008674  0  0  0.120056  0  1.008105  0  0  0.110175  0.11545  0  1.009493  0
H  H21  1  0.14579312  0.06138059  0.57661490  1  0  0.108965  0  0.946476  0  0  0.117464  0  1.008664  0  0  0.120043  0  1.008095  0  0  0.110203  0.115434  0  1.009486  0
H  H22  1  0.85420923  0.93862261  0.07661710  1  0  0.109007  0  0.946432  0  0  0.117488  0  1.008628  0  0  0.120065  0  1.008061  0  0  0.110208  0.115459  0  1.009446  0
H  H23  1  0.35420672  0.56138185  0.92338822  1  0  0.108995  0  0.946504  0  0  0.117479  0  1.008694  0  0  0.120058  0  1.008126  0  0  0.110178  0.115449  0  1.009515  0
H  H24  1  0.35420878  0.56137962  0.57661377  1  0  0.108948  0  0.946478  0  0  0.117431  0  1.008682  0  0  0.12001  0  1.008114  0  0  0.110183  0.115401  0  1.009503  0
H  H25  1  0.85421101  0.93862052  0.42338211  1  0  0.108991  0  0.946399  0  0  0.117486  0  1.008584  0  0  0.120065  0  1.008016  0  0  0.110215  0.115455  0  1.009406  0
H  H26  1  0.14579362  0.06137504  0.92338733  1  0  0.109023  0  0.946424  0  0  0.117527  0  1.008584  0  0  0.120106  0  1.008014  0  0  0.110204  0.115498  0  1.009403  0
H  H27  1  0.64578971  0.43862271  0.07661486  1  0  0.108958  0  0.946447  0  0  0.117449  0  1.008644  0  0  0.120028  0  1.008075  0  0  0.110188  0.11542  0  1.009463  0
H  H28  1  0.70328258  0.41842683  0.59129545  1  0  0.093196  0  0.94841  0  0  0.096096  0  1.02144  0  0  0.098517  0  1.01942  0  0  0.118231  0.093995  0  1.023405  0
H  H29  1  0.20327877  0.08157208  0.40870127  1  0  0.093228  0  0.948446  0  0  0.096156  0  1.021425  0  0  0.098576  0  1.019405  0  0  0.118265  0.094055  0  1.023393  0
H  H30  1  0.79672078  0.91842956  0.90870388  1  0  0.093241  0  0.948418  0  0  0.09615  0  1.021448  0  0  0.09857  0  1.019427  0  0  0.118257  0.09405  0  1.023413  0
H  H31  1  0.29671585  0.58157115  0.09130017  1  0  0.093292  0  0.948351  0  0  0.096181  0  1.021355  0  0  0.0986  0  1.019336  0  0  0.118279  0.094081  0  1.02332  0
H  H32  1  0.29671898  0.58157168  0.40870089  1  0  0.09323  0  0.948414  0  0  0.096132  0  1.021421  0  0  0.098552  0  1.0194  0  0  0.118264  0.094031  0  1.023385  0
H  H33  1  0.79671637  0.91842643  0.59129709  1  0  0.093096  0  0.948334  0  0  0.095961  0  1.021404  0  0  0.098381  0  1.019385  0  0  0.11818  0.093861  0  1.023369  0
H  H34  1  0.20328334  0.08156982  0.09130122  1  0  0.093309  0  0.94827  0  0  0.09618  0  1.021311  0  0  0.098599  0  1.019293  0  0  0.118279  0.094081  0  1.023276  0
H  H35  1  0.70327801  0.41842995  0.90870156  1  0  0.093229  0  0.948429  0  0  0.09614  0  1.021416  0  0  0.09856  0  1.019395  0  0  0.118255  0.09404  0  1.02338  0
C  C36  1  0.51773837  0.50495855  0.75000093  1  0  0.301596  0  4.028133  0  0  0.281341  0  4.330629  0  0  0.304038  0  4.343944  0  0  0.145792  0.2657  0  4.320274  0
C  C37  1  0.01773600  0.99504505  0.24999942  1  0  0.30155  0  4.027643  0  0  0.281285  0  4.330189  0  0  0.303982  0  4.343509  0  0  0.145814  0.265643  0  4.319836  0
C  C38  1  0.98225401  0.00495865  0.75000028  1  0  0.30142  0  4.027413  0  0  0.281161  0  4.329917  0  0  0.303857  0  4.34323  0  0  0.145762  0.265522  0  4.319567  0
C  C39  1  0.48225677  0.49504774  0.24999878  1  0  0.301611  0  4.028045  0  0  0.281366  0  4.330548  0  0  0.304063  0  4.343869  0  0  0.145763  0.265725  0  4.320196  0
C  C40  1  0.53422098  0.96739555  0.74999994  1  0  0.30156  0  4.006581  0  0  0.278475  0  4.315026  0  0  0.301051  0  4.327364  0  0  0.151844  0.262937  0  4.305491  0
C  C41  1  0.03421863  0.53260554  0.24999567  1  0  0.301447  0  4.006508  0  0  0.278363  0  4.314985  0  0  0.300939  0  4.327325  0  0  0.15176  0.262825  0  4.305442  0
C  C42  1  0.96577779  0.46738780  0.74999595  1  0  0.30158  0  4.006992  0  0  0.278487  0  4.315445  0  0  0.301061  0  4.327784  0  0  0.151862  0.262949  0  4.305917  0
C  C43  1  0.46578315  0.03260814  0.24999841  1  0  0.301277  0  4.007152  0  0  0.278174  0  4.315642  0  0  0.300748  0  4.327991  0  0  0.151723  0.262636  0  4.306108  0
C  C44  1  0.62704511  0.14937349  0.45556379  1  0  0.075698  0  3.697798  0  0  0.052994  0  3.959945  0  0  0.054318  0  3.97778  0  0  0.04827  0.052128  0  3.948092  0
C  C45  1  0.12704366  0.35062331  0.54443235  1  0  0.075752  0  3.69803  0  0  0.053067  0  3.960173  0  0  0.054383  0  3.978008  0  0  0.048301  0.052196  0  3.948326  0
C  C46  1  0.87296396  0.64937563  0.04443760  1  0  0.075625  0  3.697708  0  0  0.052919  0  3.95985  0  0  0.054254  0  3.977685  0  0  0.04821  0.052058  0  3.947993  0
C  C47  1  0.37296322  0.85062373  0.95556567  1  0  0.075751  0  3.697663  0  0  0.053039  0  3.959807  0  0  0.05437  0  3.977641  0  0  0.04828  0.052171  0  3.947959  0
C  C48  1  0.37295645  0.85062589  0.54443726  1  0  0.075806  0  3.697667  0  0  0.053131  0  3.959794  0  0  0.05445  0  3.977625  0  0  0.048311  0.052266  0  3.947944  0
C  C49  1  0.87295790  0.64937434  0.45556061  1  0  0.075798  0  3.698012  0  0  0.053106  0  3.960145  0  0  0.054436  0  3.97798  0  0  0.048341  0.052244  0  3.948288  0
C  C50  1  0.12703374  0.35062029  0.95556615  1  0  0.075829  0  3.697848  0  0  0.053111  0  3.960011  0  0  0.054407  0  3.977834  0  0  0.048305  0.052242  0  3.948163  0
C  C51  1  0.62703577  0.14937478  0.04443673  1  0  0.075734  0  3.697849  0  0  0.053003  0  3.960007  0  0  0.054338  0  3.977842  0  0  0.048243  0.052143  0  3.948151  0
C  C52  1  0.62109993  0.25357758  0.40789438  1  0  -0.038792  0  3.679059  0  0  -0.058521  0  3.927828  0  0  -0.059122  0  3.947188  0  0  -0.060556  -0.058259  0  3.915168  0
C  C53  1  0.12110225  0.24642437  0.59210649  1  0  -0.038924  0  3.679159  0  0  -0.058726  0  3.928005  0  0  -0.05933  0  3.947368  0  0  -0.060615  -0.058463  0  3.915347  0
C  C54  1  0.87890772  0.75358052  0.09210620  1  0  -0.038754  0  3.679123  0  0  -0.058527  0  3.927924  0  0  -0.059129  0  3.947285  0  0  -0.060523  -0.058264  0  3.91526  0
C  C55  1  0.37890476  0.74641802  0.90789639  1  0  -0.038767  0  3.679128  0  0  -0.058573  0  3.927936  0  0  -0.059177  0  3.9473  0  0  -0.060517  -0.05831  0  3.915275  0
C  C56  1  0.37889906  0.74642266  0.59210465  1  0  -0.038865  0  3.679194  0  0  -0.058652  0  3.927978  0  0  -0.059258  0  3.947344  0  0  -0.060608  -0.05839  0  3.915318  0
C  C57  1  0.87890187  0.75357069  0.40789794  1  0  -0.038812  0  3.679399  0  0  -0.05858  0  3.928236  0  0  -0.059182  0  3.947594  0  0  -0.060628  -0.058316  0  3.915569  0
C  C58  1  0.12109640  0.24642058  0.90789957  1  0  -0.038796  0  3.679207  0  0  -0.05868  0  3.928149  0  0  -0.059289  0  3.947527  0  0  -0.060614  -0.058416  0  3.91549  0
C  C59  1  0.62109680  0.25357704  0.09210399  1  0  -0.038782  0  3.679207  0  0  -0.058609  0  3.92806  0  0  -0.059215  0  3.947423  0  0  -0.060544  -0.058346  0  3.915397  0
C  C60  1  0.64841488  0.35435559  0.45591700  1  0  -0.057169  0  3.677266  0  0  -0.07115  0  3.921236  0  0  -0.074283  0  3.940802  0  0  -0.062519  -0.069156  0  3.908307  0
C  C61  1  0.14841373  0.14564391  0.54407709  1  0  -0.057005  0  3.676927  0  0  -0.071002  0  3.920926  0  0  -0.074134  0  3.940495  0  0  -0.062509  -0.069007  0  3.907995  0
C  C62  1  0.85159132  0.85436022  0.04408075  1  0  -0.057134  0  3.677039  0  0  -0.071092  0  3.921029  0  0  -0.074225  0  3.940598  0  0  -0.062502  -0.069099  0  3.9081  0
C  C63  1  0.35158960  0.64563991  0.95592120  1  0  -0.057105  0  3.677058  0  0  -0.071101  0  3.921038  0  0  -0.074233  0  3.940603  0  0  -0.06252  -0.069107  0  3.908109  0
C  C64  1  0.35159181  0.64564292  0.54408068  1  0  -0.057034  0  3.67689  0  0  -0.071011  0  3.920875  0  0  -0.074145  0  3.940442  0  0  -0.062446  -0.069019  0  3.907947  0
C  C65  1  0.85159039  0.85435115  0.45591857  1  0  -0.057145  0  3.677052  0  0  -0.071142  0  3.921023  0  0  -0.074274  0  3.940591  0  0  -0.062543  -0.069149  0  3.908095  0
C  C66  1  0.14841280  0.14564175  0.95592233  1  0  -0.057159  0  3.676896  0  0  -0.071134  0  3.92089  0  0  -0.074264  0  3.940456  0  0  -0.062516  -0.069139  0  3.907962  0
C  C67  1  0.64840940  0.35436206  0.04407985  1  0  -0.05708  0  3.676856  0  0  -0.071045  0  3.920825  0  0  -0.074177  0  3.940393  0  0  -0.062509  -0.069052  0  3.907896  0
C  C68  1  0.67924992  0.34366379  0.54831352  1  0  0.088524  0  3.688156  0  0  0.059551  0  3.936146  0  0  0.063702  0  3.955317  0  0  0.051846  0.056945  0  3.923328  0
C  C69  1  0.17924161  0.15633154  0.45167783  1  0  0.088401  0  3.687877  0  0  0.059418  0  3.935888  0  0  0.063568  0  3.955056  0  0  0.051779  0.056813  0  3.923069  0
C  C70  1  0.82075390  0.84366828  0.95168320  1  0  0.088369  0  3.688106  0  0  0.059345  0  3.936164  0  0  0.063497  0  3.955333  0  0  0.051721  0.05674  0  3.923349  0
C  C71  1  0.32075640  0.65633342  0.04832081  1  0  0.088326  0  3.68782  0  0  0.059407  0  3.935773  0  0  0.063557  0  3.954944  0  0  0.051747  0.0568  0  3.922958  0
C  C72  1  0.32075677  0.65633559  0.45168011  1  0  0.088416  0  3.687918  0  0  0.059431  0  3.935921  0  0  0.063582  0  3.95509  0  0  0.051721  0.056824  0  3.923102  0
C  C73  1  0.82075353  0.84365920  0.54831513  1  0  0.088538  0  3.688087  0  0  0.059614  0  3.936058  0  0  0.063763  0  3.955231  0  0  0.051825  0.057008  0  3.923239  0
C  C74  1  0.17924509  0.15633283  0.04832190  1  0  0.088281  0  3.68772  0  0  0.059359  0  3.935698  0  0  0.063505  0  3.954868  0  0  0.051725  0.05675  0  3.922885  0
C  C75  1  0.67924387  0.34366682  0.95168091  1  0  0.088371  0  3.687972  0  0  0.059399  0  3.935975  0  0  0.06355  0  3.955143  0  0  0.051743  0.056796  0  3.923158  0
S  S76  1  0.41649903  0.38228991  0.75000174  1  0  -0.362296  0  2.214261  0  0  -0.331592  0  2.555609  0  0  -0.349908  0  2.551804  0  0  -0.153534  -0.317044  0  2.557755  0
S  S77  1  0.91649465  0.11771700  0.24999942  1  0  -0.362224  0  2.214177  0  0  -0.331532  0  2.555552  0  0  -0.349846  0  2.551747  0  0  -0.153498  -0.316989  0  2.557699  0
S  S78  1  0.08350691  0.88228669  0.74999489  1  0  -0.362282  0  2.214057  0  0  -0.331577  0  2.555409  0  0  -0.349893  0  2.551601  0  0  -0.153523  -0.31703  0  2.557557  0
S  S79  1  0.58350509  0.61771206  0.25000133  1  0  -0.362281  0  2.214264  0  0  -0.331594  0  2.555625  0  0  -0.349908  0  2.551819  0  0  -0.15352  -0.317052  0  2.557773  0
S  S80  1  0.42320926  0.08636947  0.75000193  1  0  -0.321004  0  2.23496  0  0  -0.29192  0  2.591548  0  0  -0.308663  0  2.584464  0  0  -0.139854  -0.278804  0  2.596087  0
S  S81  1  0.92321456  0.41363229  0.24999451  1  0  -0.320929  0  2.235108  0  0  -0.291849  0  2.59171  0  0  -0.308595  0  2.584635  0  0  -0.139802  -0.278733  0  2.596243  0
S  S82  1  0.07677930  0.58636190  0.75000048  1  0  -0.321012  0  2.235146  0  0  -0.291933  0  2.591734  0  0  -0.308676  0  2.584652  0  0  -0.139855  -0.278815  0  2.596272  0
S  S83  1  0.57677818  0.91365322  0.25000317  1  0  -0.320789  0  2.235542  0  0  -0.291664  0  2.592078  0  0  -0.30841  0  2.585008  0  0  -0.13976  -0.278549  0  2.596611  0
N  N84  1  0.58894543  0.59522971  0.74999678  1  0  -0.528181  0  2.886753  0  0  -0.470463  0  3.169341  0  0  -0.491469  0  3.174399  0  0  -0.396752  -0.455249  0  3.165578  0
N  N85  1  0.08894977  0.90476993  0.25000011  1  0  -0.528258  0  2.886394  0  0  -0.470504  0  3.168956  0  0  -0.49151  0  3.174018  0  0  -0.396823  -0.455292  0  3.165195  0
N  N86  1  0.91104666  0.09523463  0.74999959  1  0  -0.528019  0  2.886202  0  0  -0.470292  0  3.168782  0  0  -0.491296  0  3.173841  0  0  -0.396735  -0.455082  0  3.165024  0
N  N87  1  0.41105612  0.40477139  0.25000495  1  0  -0.528221  0  2.886605  0  0  -0.470508  0  3.169197  0  0  -0.491514  0  3.174259  0  0  -0.39674  -0.455297  0  3.165437  0
N  N88  1  0.61269579  0.88000170  0.74999725  1  0  -0.533458  0  2.890672  0  0  -0.474485  0  3.169828  0  0  -0.49552  0  3.176483  0  0  -0.390071  -0.459202  0  3.164888  0
N  N89  1  0.11269697  0.62000238  0.25000028  1  0  -0.533419  0  2.890382  0  0  -0.474426  0  3.169517  0  0  -0.495461  0  3.176175  0  0  -0.390034  -0.459144  0  3.164575  0
N  N90  1  0.88731100  0.37999786  0.74999268  1  0  -0.533453  0  2.890802  0  0  -0.474454  0  3.169899  0  0  -0.495488  0  3.17655  0  0  -0.390116  -0.459175  0  3.164963  0
N  N91  1  0.38731475  0.12000631  0.24999638  1  0  -0.533341  0  2.890539  0  0  -0.474342  0  3.169643  0  0  -0.495377  0  3.176305  0  0  -0.390059  -0.459059  0  3.164705  0
N  N92  1  0.68245827  0.24087658  0.58962792  1  0  -0.196137  0  3.265464  0  0  -0.124653  0  3.532052  0  0  -0.139736  0  3.554148  0  0  -0.203231  -0.114508  0  3.516895  0
N  N93  1  0.18245514  0.25912654  0.41037084  1  0  -0.196023  0  3.265444  0  0  -0.124569  0  3.532067  0  0  -0.139649  0  3.554161  0  0  -0.203183  -0.114423  0  3.516905  0
N  N94  1  0.81754184  0.74087595  0.91037500  1  0  -0.195892  0  3.265426  0  0  -0.124416  0  3.532049  0  0  -0.139497  0  3.554143  0  0  -0.203121  -0.114273  0  3.516891  0
N  N95  1  0.31754529  0.75912486  0.08962969  1  0  -0.196032  0  3.265457  0  0  -0.124588  0  3.53206  0  0  -0.139668  0  3.554155  0  0  -0.203203  -0.114442  0  3.5169  0
N  N96  1  0.31753944  0.75912539  0.41036976  1  0  -0.196101  0  3.26552  0  0  -0.124591  0  3.532087  0  0  -0.139673  0  3.554181  0  0  -0.203184  -0.114446  0  3.516926  0
N  N97  1  0.81753744  0.74087456  0.58962886  1  0  -0.196149  0  3.265645  0  0  -0.124659  0  3.532192  0  0  -0.139739  0  3.554285  0  0  -0.203194  -0.114516  0  3.517033  0
N  N98  1  0.18245843  0.25912515  0.08963212  1  0  -0.195964  0  3.265391  0  0  -0.124486  0  3.53194  0  0  -0.139563  0  3.554032  0  0  -0.203141  -0.114341  0  3.516782  0
N  N99  1  0.68245626  0.24087538  0.91037271  1  0  -0.195951  0  3.265488  0  0  -0.12449  0  3.532095  0  0  -0.139571  0  3.554189  0  0  -0.203159  -0.114348  0  3.516937  0
N  N100  1  0.65718346  0.14281490  0.54420287  1  0  -0.167752  0  3.007807  0  0  -0.149304  0  3.27916  0  0  -0.153096  0  3.296867  0  0  -0.194903  -0.14656  0  3.267406  0
N  N101  1  0.15718376  0.35717773  0.45579660  1  0  -0.167743  0  3.008198  0  0  -0.14929  0  3.27956  0  0  -0.153083  0  3.297273  0  0  -0.194922  -0.146545  0  3.267804  0
N  N102  1  0.84281558  0.64282208  0.95579749  1  0  -0.1679  0  3.007939  0  0  -0.149441  0  3.27931  0  0  -0.153232  0  3.297013  0  0  -0.194958  -0.146697  0  3.267554  0
N  N103  1  0.34281775  0.85718059  0.04420515  1  0  -0.167749  0  3.007928  0  0  -0.149297  0  3.279293  0  0  -0.153089  0  3.297  0  0  -0.194892  -0.146552  0  3.267539  0
N  N104  1  0.34281040  0.85718016  0.45579751  1  0  -0.167821  0  3.007845  0  0  -0.149394  0  3.279208  0  0  -0.153187  0  3.296919  0  0  -0.194945  -0.14665  0  3.267453  0
N  N105  1  0.84281138  0.64281906  0.54420243  1  0  -0.167762  0  3.007784  0  0  -0.149321  0  3.279146  0  0  -0.153111  0  3.296849  0  0  -0.194912  -0.146578  0  3.26739  0
N  N106  1  0.15718213  0.35717557  0.04420694  1  0  -0.16781  0  3.007872  0  0  -0.149368  0  3.279258  0  0  -0.153162  0  3.296978  0  0  -0.194951  -0.146623  0  3.267502  0
N  N107  1  0.65718766  0.14282311  0.95579658  1  0  -0.167833  0  3.008011  0  0  -0.149379  0  3.279399  0  0  -0.15317  0  3.297102  0  0  -0.194912  -0.146636  0  3.267644  0
