# generated using pymatgen
data_ZnH26C38(NO3)2
_symmetry_space_group_name_H-M   'P 1'
_cell_length_a   15.00699992
_cell_length_b   15.89406733
_cell_length_c   17.18563310
_cell_angle_alpha   89.19382861
_cell_angle_beta   64.11365038
_cell_angle_gamma   61.82742276
_symmetry_Int_Tables_number   1
_chemical_formula_structural   ZnH26C38(NO3)2
_chemical_formula_sum   'Zn4 H104 C152 N8 O24'
_cell_volume   3154.18826637
_cell_formula_units_Z   4
loop_
 _symmetry_equiv_pos_site_id
 _symmetry_equiv_pos_as_xyz
  1  'x, y, z'
loop_
 _atom_site_type_symbol
 _atom_site_label
 _atom_site_symmetry_multiplicity
 _atom_site_fract_x
 _atom_site_fract_y
 _atom_site_fract_z
 _atom_site_occupancy
 _atom_site_pbe_bader_charge
 _atom_site_pbe_bader_spin_density
 _atom_site_pbe_cm5_charge
 _atom_site_pbe_ddec_charge
 _atom_site_pbe_ddec_spin_density
 _atom_site_pbe_ddec_sum_bond_order
 _atom_site_pbe_magmom
Zn  Zn0  1  0.96161413  0.74705495  0.25238418  1  1.253991  0  0.711847  0.771577  0  2.39979  0
Zn  Zn1  1  0.46107827  0.75308884  0.24755099  1  1.259391  0  0.711374  0.770844  0  2.398637  0
Zn  Zn2  1  0.03838411  0.25294635  0.74761778  1  1.25395  0  0.711815  0.771505  0  2.399766  0
Zn  Zn3  1  0.53892167  0.24691027  0.75244789  1  1.259306  0  0.711367  0.770859  0  2.398571  0
H  H4  1  0.05110672  0.43204307  0.15799735  1  0.636865  0  0.289793  0.336612  0  1.005937  0
H  H5  1  0.14090994  0.06803085  0.34192683  1  0.627952  0  0.290409  0.337155  0  1.00727  0
H  H6  1  0.94889372  0.56795824  0.84200314  1  0.636877  0  0.28979  0.336599  0  1.005949  0
H  H7  1  0.85908486  0.93197192  0.65807578  1  0.627928  0  0.29038  0.337135  0  1.007226  0
H  H8  1  0.71139913  0.00539552  0.49607761  1  0.636123  0  0.29618  0.342844  0  0.987648  0
H  H9  1  0.71302483  0.49449667  0.00373838  1  0.638769  0  0.296337  0.343143  0  0.988255  0
H  H10  1  0.28860038  0.99460505  0.50392188  1  0.63612  0  0.296175  0.342808  0  0.987689  0
H  H11  1  0.28697398  0.50550390  0.99626255  1  0.638857  0  0.296318  0.343109  0  0.988312  0
H  H12  1  0.19148513  0.58543843  0.20610133  1  0.139665  0  0.11761  0.092432  0  1.026962  0
H  H13  1  0.48313994  0.91465606  0.29386857  1  0.117535  0  0.117523  0.09232  0  1.026674  0
H  H14  1  0.80851472  0.41456214  0.79389930  1  0.139656  0  0.117588  0.092377  0  1.02702  0
H  H15  1  0.51685832  0.08534525  0.70612965  1  0.117533  0  0.117538  0.092347  0  1.026598  0
H  H16  1  0.31898935  0.53175910  0.27404098  1  0.106009  0  0.106577  0.114959  0  1.016834  0
H  H17  1  0.62478059  0.96846116  0.22592507  1  0.096498  0  0.106337  0.114492  0  1.017733  0
H  H18  1  0.68101018  0.46824294  0.72595940  1  0.105886  0  0.106577  0.114946  0  1.016791  0
H  H19  1  0.37521775  0.03153941  0.77407558  1  0.096374  0  0.106339  0.114508  0  1.017736  0
H  H20  1  0.01525040  0.72370076  0.52554396  1  0.119349  0  0.109158  0.12175  0  1.008148  0
H  H21  1  0.76456830  0.77652054  0.97439696  1  0.127176  0  0.108791  0.121515  0  1.007895  0
H  H22  1  0.98474944  0.27629908  0.47445623  1  0.119377  0  0.109164  0.121757  0  1.008139  0
H  H23  1  0.23543348  0.22347783  0.02560260  1  0.127143  0  0.108794  0.121535  0  1.007881  0
H  H24  1  0.90106371  0.77052106  0.44600626  1  0.140224  0  0.117188  0.091139  0  1.010596  0
H  H25  1  0.61770101  0.72962997  0.05392014  1  0.101718  0  0.117698  0.091678  0  1.009405  0
H  H26  1  0.09893716  0.22947878  0.55399363  1  0.140227  0  0.11716  0.091088  0  1.010536  0
H  H27  1  0.38230030  0.27036766  0.94607869  1  0.101603  0  0.117713  0.091652  0  1.009447  0
H  H28  1  0.19387479  0.63042027  0.52492589  1  0.039809  0  0.10466  0.103737  0  1.004771  0
H  H29  1  0.84918280  0.86979203  0.97504559  1  0.096628  0  0.104587  0.104009  0  1.0048  0
H  H30  1  0.80612426  0.36958105  0.47507377  1  0.039819  0  0.104644  0.103692  0  1.004753  0
H  H31  1  0.15081670  0.13020781  0.02495345  1  0.096632  0  0.104585  0.104025  0  1.004853  0
H  H32  1  0.41342372  0.52334160  0.34078262  1  0.07945  0  0.104158  0.102385  0  1.003892  0
H  H33  1  0.77739019  0.97686246  0.15924091  1  0.07602  0  0.104268  0.102479  0  1.003894  0
H  H34  1  0.58657600  0.47665823  0.65921843  1  0.079452  0  0.10414  0.102333  0  1.003906  0
H  H35  1  0.22261114  0.02313664  0.84075881  1  0.076  0  0.104259  0.102435  0  1.003924  0
H  H36  1  0.59178207  0.44635828  0.33580209  1  0.062781  0  0.096514  0.093802  0  1.053002  0
H  H37  1  0.87394023  0.05374010  0.16420030  1  0.042806  0  0.096284  0.093663  0  1.053379  0
H  H38  1  0.40821570  0.55364229  0.66419914  1  0.062751  0  0.09656  0.093863  0  1.053071  0
H  H39  1  0.12606109  0.94625900  0.83579942  1  0.042379  0  0.096272  0.093654  0  1.053412  0
H  H40  1  0.71415147  0.39876489  0.40616374  1  0.067493  0  0.100871  0.099494  0  1.017939  0
H  H41  1  0.01935006  0.10103175  0.09378402  1  0.060379  0  0.100667  0.098994  0  1.017846  0
H  H42  1  0.28584585  0.60123641  0.59383766  1  0.067439  0  0.100864  0.099464  0  1.017959  0
H  H43  1  0.98065047  0.89896736  0.90621428  1  0.059732  0  0.100659  0.098983  0  1.017826  0
H  H44  1  0.09511763  0.74562294  0.06452198  1  0.131197  0  0.119186  0.094561  0  1.006114  0
H  H45  1  0.40520866  0.75449620  0.43554972  1  0.141543  0  0.119425  0.095267  0  1.006643  0
H  H46  1  0.90488211  0.25437763  0.93547951  1  0.131198  0  0.119178  0.09455  0  1.006127  0
H  H47  1  0.59479293  0.24550512  0.56444961  1  0.141504  0  0.119406  0.09523  0  1.00663  0
H  H48  1  0.23936089  0.79442422  0.97993814  1  0.070542  0  0.103836  0.112509  0  1.027968  0
H  H49  1  0.51366956  0.70562999  0.52010766  1  0.086432  0  0.103779  0.112632  0  1.027294  0
H  H50  1  0.76064226  0.20557341  0.02006181  1  0.070541  0  0.103822  0.112494  0  1.02795  0
H  H51  1  0.48633364  0.29437059  0.47989034  1  0.086387  0  0.103776  0.112594  0  1.02729  0
H  H52  1  0.15420455  0.94263567  0.23355687  1  0.098816  0  0.108204  0.117715  0  1.031606  0
H  H53  1  0.83031716  0.55728183  0.26646065  1  0.089047  0  0.108241  0.11773  0  1.031762  0
H  H54  1  0.84579541  0.05736416  0.76644246  1  0.098819  0  0.108217  0.117749  0  1.031563  0
H  H55  1  0.16968304  0.44271875  0.73353739  1  0.089083  0  0.108264  0.117757  0  1.031757  0
H  H56  1  0.01161294  0.89025213  0.30676394  1  0.127786  0  0.117468  0.092122  0  1.006267  0
H  H57  1  0.70851641  0.60979783  0.19328742  1  0.082677  0  0.117819  0.092744  0  1.006534  0
H  H58  1  0.98838633  0.10974843  0.69323728  1  0.127789  0  0.117467  0.092131  0  1.006252  0
H  H59  1  0.29148322  0.39020275  0.80671121  1  0.082664  0  0.117818  0.092729  0  1.006574  0
H  H60  1  0.34030220  0.87487745  0.97738387  1  0.067694  0  0.09866  0.099169  0  1.022002  0
H  H61  1  0.69246459  0.62519406  0.52267215  1  0.071519  0  0.098615  0.098998  0  1.022905  0
H  H62  1  0.65969764  0.12512239  0.02261632  1  0.06768  0  0.098656  0.099158  0  1.022031  0
H  H63  1  0.30753517  0.37480725  0.47732605  1  0.071492  0  0.098605  0.098957  0  1.022903  0
H  H64  1  0.29348754  0.96109192  0.16040678  1  0.085248  0  0.102078  0.107806  0  1.041969  0
H  H65  1  0.91489502  0.53892394  0.33965620  1  0.070002  0  0.101967  0.107871  0  1.043134  0
H  H66  1  0.70651218  0.03890791  0.83959427  1  0.085213  0  0.102069  0.1078  0  1.041913  0
H  H67  1  0.08510784  0.46107663  0.66034438  1  0.069915  0  0.101947  0.107805  0  1.04313  0
H  H68  1  0.38039067  0.04659989  0.16484486  1  0.044433  0  0.101758  0.10558  0  1.012148  0
H  H69  1  0.09175359  0.45332464  0.33516140  1  0.071659  0  0.101296  0.105139  0  1.012012  0
H  H70  1  0.61960996  0.95339921  0.83515630  1  0.044461  0  0.101785  0.105614  0  1.012137  0
H  H71  1  0.90824616  0.54667739  0.66484098  1  0.07158  0  0.101294  0.10512  0  1.011956  0
H  H72  1  0.51934211  0.10125057  0.09364708  1  0.066808  0  0.097556  0.097174  0  1.034908  0
H  H73  1  0.21423400  0.39863586  0.40630872  1  0.070661  0  0.097684  0.097573  0  1.035789  0
H  H74  1  0.48065989  0.89874779  0.90635448  1  0.066902  0  0.097568  0.097195  0  1.034915  0
H  H75  1  0.78576645  0.60136618  0.59369222  1  0.070656  0  0.097702  0.097562  0  1.035734  0
H  H76  1  0.03753035  0.32951190  0.98081272  1  0.092362  0  0.105083  0.125215  0  1.012236  0
H  H77  1  0.84765904  0.17037463  0.51912017  1  0.100153  0  0.105324  0.125482  0  1.010966  0
H  H78  1  0.96247006  0.67048794  0.01918688  1  0.092284  0  0.105094  0.125248  0  1.012251  0
H  H79  1  0.15234022  0.82962521  0.48088060  1  0.100152  0  0.105322  0.125484  0  1.010971  0
H  H80  1  0.40022926  0.14001434  0.62875688  1  0.109843  0  0.108867  0.130829  0  1.010252  0
H  H81  1  0.66892042  0.35972147  0.87145128  1  0.122677  0  0.108915  0.130944  0  1.010474  0
H  H82  1  0.59976955  0.85998623  0.37124406  1  0.109725  0  0.108883  0.13084  0  1.010311  0
H  H83  1  0.33107690  0.64027984  0.12855011  1  0.122885  0  0.108914  0.130942  0  1.010426  0
H  H84  1  0.88474964  0.30725006  0.20089991  1  0.069146  0  0.102033  0.106086  0  1.00256  0
H  H85  1  0.89286530  0.19299714  0.29904334  1  0.063741  0  0.101816  0.105616  0  1.002532  0
H  H86  1  0.11524767  0.69275051  0.79910104  1  0.069119  0  0.102035  0.106103  0  1.002544  0
H  H87  1  0.10713350  0.80700270  0.70095715  1  0.063726  0  0.101819  0.105648  0  1.002507  0
H  H88  1  0.63132546  0.40682517  0.11424353  1  0.049717  0  0.096504  0.092538  0  1.071809  0
H  H89  1  0.65253879  0.09321598  0.38574489  1  0.07205  0  0.09643  0.092242  0  1.071554  0
H  H90  1  0.36867586  0.59317320  0.88575575  1  0.049736  0  0.096516  0.092581  0  1.071724  0
H  H91  1  0.34746015  0.90678532  0.61425562  1  0.072062  0  0.09644  0.092256  0  1.07152  0
H  H92  1  0.79271115  0.40853441  0.11643043  1  0.068073  0  0.103553  0.108635  0  1.005246  0
H  H93  1  0.81778232  0.09163388  0.38351743  1  0.084874  0  0.103194  0.108352  0  1.005134  0
H  H94  1  0.20728893  0.59146616  0.88356848  1  0.068049  0  0.103543  0.108624  0  1.00526  0
H  H95  1  0.18221739  0.90836522  0.61648318  1  0.084875  0  0.10321  0.108382  0  1.005117  0
H  H96  1  0.27010999  0.29857811  0.19450383  1  0.037022  0  0.104924  0.107612  0  0.99066  0
H  H97  1  0.26318275  0.20137727  0.30563181  1  0.035733  0  0.104761  0.107707  0  0.991016  0
H  H98  1  0.72988801  0.70142247  0.80549568  1  0.037039  0  0.104943  0.107633  0  0.990658  0
H  H99  1  0.73681511  0.79862183  0.69436767  1  0.035752  0  0.104775  0.107724  0  0.990964  0
H  H100  1  0.35925547  0.38409267  0.09620943  1  0.077644  0  0.100196  0.101858  0  1.021641  0
H  H101  1  0.33963063  0.11589238  0.40390403  1  0.079017  0  0.100409  0.102151  0  1.021295  0
H  H102  1  0.64074390  0.61590716  0.90379048  1  0.077653  0  0.100204  0.10185  0  1.021665  0
H  H103  1  0.66036861  0.88410599  0.59609585  1  0.079041  0  0.100427  0.102171  0  1.021304  0
H  H104  1  0.52260821  0.38541004  0.09545300  1  0.066783  0  0.092817  0.087226  0  1.085318  0
H  H105  1  0.50360290  0.11458392  0.40454000  1  0.072606  0  0.092896  0.087092  0  1.085429  0
H  H106  1  0.47739149  0.61458906  0.90454760  1  0.066769  0  0.092871  0.087252  0  1.085283  0
H  H107  1  0.49639602  0.88541591  0.59545963  1  0.072595  0  0.092876  0.087052  0  1.085475  0
C  C108  1  0.15699824  0.61476216  0.27648418  1  0.376505  0  0.042591  0.085074  0  3.954749  0
C  C109  1  0.54832338  0.88537530  0.22347324  1  0.413106  0  0.043041  0.085889  0  3.954744  0
C  C110  1  0.84300128  0.38523915  0.72351575  1  0.376475  0  0.042559  0.085012  0  3.954893  0
C  C111  1  0.45167610  0.11462381  0.77652536  1  0.413329  0  0.043043  0.085914  0  3.954595  0
C  C112  1  0.22708842  0.58551794  0.31526772  1  0.003485  0  -0.078849  -0.162843  0  3.908566  0
C  C113  1  0.62786590  0.91469351  0.18470117  1  0.055938  0  -0.078816  -0.161868  0  3.906752  0
C  C114  1  0.77291305  0.41448263  0.68473203  1  0.003626  0  -0.078801  -0.16272  0  3.908457  0
C  C115  1  0.37213474  0.08530560  0.81529627  1  0.055821  0  -0.078846  -0.161899  0  3.906763  0
C  C116  1  0.17863313  0.62514470  0.40661803  1  0.028572  0  0.013593  0.159238  0  4.014532  0
C  C117  1  0.71035318  0.87508681  0.09334414  1  -0.079925  0  0.01363  0.158235  0  4.015108  0
C  C118  1  0.82136833  0.37485514  0.59338127  1  0.028531  0  0.013595  0.159251  0  4.014603  0
C  C119  1  0.28964770  0.12491302  0.90665574  1  -0.079845  0  0.013669  0.158267  0  4.015056  0
C  C120  1  0.05807441  0.69063789  0.45468256  1  -0.004277  0  -0.077625  -0.166642  0  3.916064  0
C  C121  1  0.70340944  0.80957225  0.04527173  1  -0.061961  0  -0.077306  -0.166136  0  3.915056  0
C  C122  1  0.94192290  0.30936268  0.54531839  1  -0.004319  0  -0.07763  -0.166673  0  3.916108  0
C  C123  1  0.29659279  0.19042611  0.95472811  1  -0.061881  0  -0.077306  -0.166183  0  3.914978  0
C  C124  1  0.99364677  0.71719766  0.41103696  1  0.417307  0  0.049436  0.103611  0  3.949695  0
C  C125  1  0.62195529  0.78295458  0.08891162  1  0.52318  0  0.048544  0.102939  0  3.950894  0
C  C126  1  0.00635192  0.28280290  0.58896483  1  0.417385  0  0.049508  0.103737  0  3.949569  0
C  C127  1  0.37804855  0.21704306  0.91108689  1  0.523282  0  0.048595  0.10309  0  3.950833  0
C  C128  1  0.24532810  0.60187541  0.45262472  1  -0.071824  0  -0.086472  -0.135809  0  3.973445  0
C  C129  1  0.79976766  0.89835049  0.04734283  1  -0.065537  0  -0.085995  -0.13518  0  3.973211  0
C  C130  1  0.75466981  0.39812663  0.54737654  1  -0.071836  0  -0.08642  -0.135713  0  3.973331  0
C  C131  1  0.20023055  0.10164934  0.95265824  1  -0.0655  0  -0.08601  -0.135254  0  3.973264  0
C  C132  1  0.36240193  0.55044379  0.41335835  1  -0.015895  0  -0.074409  -0.094861  0  3.954121  0
C  C133  1  0.82608175  0.94976989  0.08666292  1  -0.0091  0  -0.074965  -0.095758  0  3.953554  0
C  C134  1  0.63759654  0.44955679  0.58664144  1  -0.015856  0  -0.074424  -0.094883  0  3.954143  0
C  C135  1  0.17391909  0.05022774  0.91333563  1  -0.009132  0  -0.074934  -0.095632  0  3.953587  0
C  C136  1  0.42970184  0.52661880  0.45894606  1  -0.035514  0  -0.010851  0.100025  0  4.040498  0
C  C137  1  0.91519039  0.97352081  0.04107513  1  -0.080752  0  -0.010141  0.100974  0  4.039662  0
C  C138  1  0.57029432  0.47338250  0.54105650  1  -0.035542  0  -0.010819  0.100108  0  4.040546  0
C  C139  1  0.08481151  0.02647756  0.95892357  1  -0.080488  0  -0.010162  0.100927  0  4.03971  0
C  C140  1  0.55157466  0.46942848  0.40802959  1  -0.008829  0  -0.086029  -0.122846  0  3.97031  0
C  C141  1  0.92904522  0.03062469  0.09198372  1  0.008139  0  -0.085865  -0.123099  0  3.971702  0
C  C142  1  0.44842357  0.53057208  0.59197193  1  -0.008817  0  -0.086017  -0.122837  0  3.970523  0
C  C143  1  0.07095724  0.96937295  0.90801395  1  0.008551  0  -0.085875  -0.123135  0  3.971664  0
C  C144  1  0.62039237  0.44308743  0.44790464  1  -0.037452  0  -0.085087  -0.116959  0  3.965557  0
C  C145  1  0.01149598  0.05682415  0.05208619  1  -0.004012  0  -0.085302  -0.116634  0  3.965119  0
C  C146  1  0.37960517  0.55691387  0.55209876  1  -0.037524  0  -0.085136  -0.116961  0  3.965695  0
C  C147  1  0.98850547  0.94317569  0.94791312  1  -0.003093  0  -0.085269  -0.11657  0  3.965048  0
C  C148  1  0.11080594  0.79001625  0.09867946  1  0.486901  0  0.048464  0.105009  0  3.943187  0
C  C149  1  0.49942569  0.71010036  0.40137349  1  0.398174  0  0.047613  0.102821  0  3.947  0
C  C150  1  0.88919410  0.20998210  0.90132184  1  0.486921  0  0.048496  0.105037  0  3.943127  0
C  C151  1  0.50057591  0.28990096  0.59862584  1  0.398285  0  0.047651  0.102876  0  3.94694  0
C  C152  1  0.19174767  0.81666019  0.05249243  1  -0.039065  0  -0.082387  -0.170493  0  3.912587  0
C  C153  1  0.56084798  0.68339366  0.44755199  1  -0.01287  0  -0.081235  -0.169163  0  3.91324  0
C  C154  1  0.80825386  0.18333743  0.94750841  1  -0.039281  0  -0.082391  -0.170491  0  3.912559  0
C  C155  1  0.43915432  0.31660765  0.55244589  1  -0.012786  0  -0.081277  -0.16919  0  3.913164  0
C  C156  1  0.21274490  0.87105007  0.09899765  1  -0.035153  0  0.013547  0.162111  0  4.005311  0
C  C157  1  0.68275594  0.62895573  0.40104155  1  0.003601  0  0.012707  0.160606  0  4.005859  0
C  C158  1  0.78725676  0.12894829  0.90100277  1  -0.035013  0  0.013559  0.162132  0  4.005335  0
C  C159  1  0.31724738  0.37104485  0.59895559  1  0.00502  0  0.012768  0.160707  0  4.005718  0
C  C160  1  0.14475692  0.89898455  0.19283160  1  -0.007405  0  -0.081511  -0.166646  0  3.902381  0
C  C161  1  0.73651292  0.60098395  0.30720642  1  0.0322  0  -0.081445  -0.165758  0  3.901484  0
C  C162  1  0.85524280  0.10101528  0.80716945  1  -0.007551  0  -0.081508  -0.166678  0  3.902297  0
C  C163  1  0.26349096  0.39901516  0.69278924  1  0.03044  0  -0.081478  -0.16586  0  3.90137  0
C  C164  1  0.06509248  0.87022886  0.23439550  1  0.423525  0  0.041817  0.086892  0  3.96337  0
C  C165  1  0.66963756  0.62981425  0.26564912  1  0.443858  0  0.041024  0.08528  0  3.963467  0
C  C166  1  0.93490942  0.12977024  0.76560364  1  0.423709  0  0.041837  0.086905  0  3.963319  0
C  C167  1  0.33036517  0.37018560  0.73434816  1  0.444275  0  0.041035  0.08531  0  3.963335  0
C  C168  1  0.30018206  0.89602165  0.04988460  1  -0.002397  0  -0.09157  -0.139815  0  3.961923  0
C  C169  1  0.74600809  0.60400730  0.45017201  1  -0.045543  0  -0.091491  -0.139335  0  3.96427  0
C  C170  1  0.69981812  0.10397818  0.95011672  1  -0.002582  0  -0.091583  -0.13984  0  3.96198  0
C  C171  1  0.25399305  0.39599401  0.54982704  1  -0.044386  0  -0.091462  -0.139253  0  3.964153  0
C  C172  1  0.33319288  0.94200354  0.08776089  1  -0.050271  0  -0.07827  -0.101876  0  3.943258  0
C  C173  1  0.86288208  0.55801696  0.41229941  1  -0.025958  0  -0.077497  -0.101697  0  3.943675  0
C  C174  1  0.66680743  0.05799703  0.91224002  1  -0.050007  0  -0.078261  -0.101895  0  3.943151  0
C  C175  1  0.13711861  0.44198509  0.58769980  1  -0.027048  0  -0.077484  -0.101614  0  3.94366  0
C  C176  1  0.41874024  0.96958990  0.04136329  1  0.006572  0  -0.011145  0.103265  0  4.033093  0
C  C177  1  0.92965469  0.53042810  0.45867690  1  -0.029121  0  -0.011786  0.10274  0  4.034733  0
C  C178  1  0.58125890  0.03040993  0.95863835  1  0.006453  0  -0.011118  0.103359  0  4.032969  0
C  C179  1  0.07034741  0.46957541  0.54132404  1  -0.029108  0  -0.0118  0.102649  0  4.034883  0
C  C180  1  0.43258629  0.02683123  0.09232865  1  0.005458  0  -0.086808  -0.126701  0  3.967416  0
C  C181  1  0.05170220  0.47312769  0.40767980  1  0.002595  0  -0.08637  -0.125369  0  3.966245  0
C  C182  1  0.56741388  0.97316787  0.90767224  1  0.005547  0  -0.086846  -0.126793  0  3.967453  0
C  C183  1  0.94829737  0.52687655  0.59232190  1  0.002887  0  -0.086343  -0.125277  0  3.966284  0
C  C184  1  0.51152498  0.05681843  0.05213222  1  -0.084555  0  -0.088997  -0.124159  0  3.978414  0
C  C185  1  0.12047591  0.44313002  0.44784331  1  -0.066725  0  -0.088536  -0.124664  0  3.979728  0
C  C186  1  0.48847623  0.94318067  0.94786836  1  -0.084809  0  -0.088969  -0.124095  0  3.978429  0
C  C187  1  0.87952457  0.55687349  0.55215852  1  -0.06692  0  -0.088632  -0.124734  0  3.979758  0
C  C188  1  0.00855629  0.58287442  0.14281277  1  1.527342  0  0.206184  0.583657  0  4.202273  0
C  C189  1  0.23419144  0.91720980  0.35713926  1  1.545771  0  0.205737  0.58243  0  4.204073  0
C  C190  1  0.99144459  0.41712541  0.85718712  1  1.527355  0  0.206107  0.583591  0  4.20255  0
C  C191  1  0.76580781  0.08278930  0.64286107  1  1.54548  0  0.20573  0.582353  0  4.20383  0
C  C192  1  0.00542210  0.53971279  0.06869670  1  -0.04484  0  -0.036859  -0.158143  0  4.012591  0
C  C193  1  0.11379159  0.96033516  0.43127759  1  -0.035453  0  -0.037063  -0.159306  0  4.012951  0
C  C194  1  0.99457766  0.46028926  0.93130195  1  -0.044978  0  -0.036849  -0.158133  0  4.012477  0
C  C195  1  0.88620825  0.03966468  0.56872260  1  -0.035573  0  -0.037073  -0.159266  0  4.012894  0
C  C196  1  0.02637548  0.44248121  0.05914888  1  0.505143  0  0.070745  0.277396  0  4.093656  0
C  C197  1  0.02788605  0.05749864  0.44076401  1  0.535345  0  0.071142  0.277515  0  4.094875  0
C  C198  1  0.97362447  0.55751863  0.94085044  1  0.505253  0  0.0707  0.277315  0  4.093617  0
C  C199  1  0.97211503  0.94249972  0.55923699  1  0.535424  0  0.071117  0.277479  0  4.094846  0
C  C200  1  0.02066357  0.40420755  0.99017096  1  0.027813  0  -0.103663  -0.201488  0  3.97756  0
C  C201  1  0.91495227  0.09572373  0.50977135  1  -0.023098  0  -0.104192  -0.201137  0  3.976914  0
C  C202  1  0.97933767  0.59579302  0.00983051  1  0.027867  0  -0.103657  -0.201504  0  3.977576  0
C  C203  1  0.08504687  0.90427610  0.49023028  1  -0.023118  0  -0.104197  -0.20114  0  3.976919  0
C  C204  1  0.74848552  0.89369518  0.39137620  1  1.534648  0  0.203305  0.570796  0  4.214506  0
C  C205  1  0.53373001  0.60636899  0.10844359  1  1.530829  0  0.203649  0.571552  0  4.211214  0
C  C206  1  0.25151258  0.10630465  0.60862574  1  1.534728  0  0.203328  0.570787  0  4.214439  0
C  C207  1  0.46626847  0.39363232  0.89155664  1  1.530798  0  0.203667  0.571619  0  4.211269  0
C  C208  1  0.62057228  0.94789274  0.44788774  1  0.005767  0  -0.035853  -0.163266  0  4.025374  0
C  C209  1  0.51643683  0.55216628  0.05199210  1  0.006648  0  -0.0367  -0.164406  0  4.02437  0
C  C210  1  0.37942524  0.05210708  0.55211477  1  0.005731  0  -0.035828  -0.163202  0  4.025252  0
C  C211  1  0.48355950  0.44783724  0.94800720  1  0.006569  0  -0.036732  -0.164483  0  4.024382  0
C  C212  1  0.56548102  0.02697609  0.52161291  1  0.453442  0  0.072612  0.262457  0  4.104833  0
C  C213  1  0.61410676  0.47291921  0.97837392  1  0.490737  0  0.072773  0.261558  0  4.105125  0
C  C214  1  0.43451812  0.97302374  0.47838872  1  0.453377  0  0.072625  0.262422  0  4.104789  0
C  C215  1  0.38589254  0.52708284  0.02162445  1  0.490794  0  0.072802  0.261609  0  4.104986  0
C  C216  1  0.44500989  0.07842991  0.57243324  1  -0.007488  0  -0.098687  -0.196269  0  3.958164  0
C  C217  1  0.59582589  0.42141129  0.92768336  1  -0.056792  0  -0.09816  -0.195159  0  3.958996  0
C  C218  1  0.55498981  0.92156919  0.42756737  1  -0.007344  0  -0.098664  -0.196201  0  3.958301  0
C  C219  1  0.40417181  0.57859150  0.07231634  1  -0.056966  0  -0.098184  -0.195185  0  3.958895  0
C  C220  1  0.81213142  0.30729985  0.20053614  1  -0.074407  0  -0.090004  -0.139875  0  3.980996  0
C  C221  1  0.81998131  0.19284015  0.29939942  1  -0.034572  0  -0.089378  -0.138589  0  3.980476  0
C  C222  1  0.18786887  0.69269925  0.79946389  1  -0.074443  0  -0.089987  -0.139894  0  3.980909  0
C  C223  1  0.18001774  0.80716043  0.70059978  1  -0.034559  0  -0.089358  -0.138647  0  3.980424  0
C  C224  1  0.76947360  0.25004619  0.24995160  1  -0.055553  0  -0.007588  0.074302  0  4.026223  0
C  C225  1  0.23052774  0.74995365  0.75004857  1  -0.055388  0  -0.007592  0.074282  0  4.026169  0
C  C226  1  0.67360666  0.24999920  0.24995607  1  0.019371  0  -0.003183  -0.012801  0  3.918561  0
C  C227  1  0.32639479  0.75000063  0.75004324  1  0.019293  0  -0.003125  -0.012676  0  3.918751  0
C  C228  1  0.62447609  0.30596184  0.19841999  1  -0.058537  0  -0.010335  0.01788  0  3.998446  0
C  C229  1  0.62895506  0.19402110  0.30152357  1  -0.053377  0  -0.010372  0.017185  0  4.00099  0
C  C230  1  0.37552308  0.69403874  0.80157835  1  -0.058518  0  -0.010359  0.017805  0  3.998535  0
C  C231  1  0.37104361  0.80597799  0.69847734  1  -0.053459  0  -0.010389  0.017154  0  4.001175  0
C  C232  1  0.66862415  0.36229475  0.15246667  1  -0.030519  0  -0.094309  -0.130726  0  3.972597  0
C  C233  1  0.68348074  0.13776598  0.34749045  1  -0.045924  0  -0.093769  -0.129649  0  3.973789  0
C  C234  1  0.33137371  0.63770435  0.84753281  1  -0.030504  0  -0.09434  -0.130771  0  3.972568  0
C  C235  1  0.31651840  0.86223385  0.65251118  1  -0.045886  0  -0.093754  -0.129611  0  3.973736  0
C  C236  1  0.76147510  0.36316595  0.15331994  1  -0.000564  0  -0.091139  -0.072956  0  4.026039  0
C  C237  1  0.77802774  0.13697116  0.34662637  1  -0.045813  0  -0.09153  -0.073641  0  4.027616  0
C  C238  1  0.23852494  0.63683241  0.84668136  1  -0.000634  0  -0.091139  -0.072916  0  4.026047  0
C  C239  1  0.22197073  0.86302941  0.65337342  1  -0.045844  0  -0.09157  -0.073679  0  4.027623  0
C  C240  1  0.53009681  0.30212041  0.19501201  1  -0.000914  0  -0.011507  0.017003  0  3.997047  0
C  C241  1  0.52731941  0.19783042  0.30495565  1  -0.03029  0  -0.011805  0.018329  0  3.997416  0
C  C242  1  0.46990327  0.69788016  0.80498689  1  -0.000932  0  -0.011515  0.017019  0  3.99713  0
C  C243  1  0.47267672  0.80216941  0.69504603  1  -0.030314  0  -0.011812  0.018369  0  3.997377  0
C  C244  1  0.48192425  0.24996990  0.24999645  1  -0.064864  0  -0.005285  -0.014343  0  3.921916  0
C  C245  1  0.51807234  0.75002919  0.75000506  1  -0.064878  0  -0.00528  -0.014416  0  3.921942  0
C  C246  1  0.38603779  0.24998096  0.25003198  1  -0.069589  0  -0.010631  0.070344  0  4.035631  0
C  C247  1  0.61396354  0.75001814  0.74996774  1  -0.069566  0  -0.01062  0.070355  0  4.03555  0
C  C248  1  0.34260551  0.29943845  0.19408883  1  -0.019693  0  -0.088365  -0.133524  0  3.986549  0
C  C249  1  0.33612819  0.20054550  0.30601534  1  -0.030947  0  -0.088014  -0.134339  0  3.990097  0
C  C250  1  0.65739549  0.70056139  0.80591019  1  -0.019456  0  -0.088369  -0.133544  0  3.986578  0
C  C251  1  0.66387279  0.79945360  0.69398323  1  -0.030866  0  -0.088076  -0.13441  0  3.990203  0
C  C252  1  0.39252809  0.34653410  0.13941356  1  -0.044159  0  -0.093463  -0.076136  0  4.032598  0
C  C253  1  0.37852467  0.15344909  0.36067555  1  -0.050288  0  -0.093283  -0.075099  0  4.031831  0
C  C254  1  0.60747278  0.65346500  0.86058588  1  -0.044386  0  -0.093458  -0.076058  0  4.032531  0
C  C255  1  0.62147690  0.84655075  0.63932288  1  -0.050324  0  -0.093231  -0.074996  0  4.031855  0
C  C256  1  0.48544272  0.34773674  0.13985855  1  -0.02203  0  -0.094392  -0.131752  0  3.977634  0
C  C257  1  0.47311975  0.15225166  0.36015468  1  -0.03852  0  -0.094509  -0.132925  0  3.977915  0
C  C258  1  0.51455815  0.65226236  0.86014089  1  -0.022005  0  -0.094473  -0.131851  0  3.977539  0
C  C259  1  0.52688067  0.84774817  0.63984492  1  -0.03852  0  -0.094542  -0.132992  0  3.977764  0
N  N260  1  0.04204507  0.68158504  0.32284234  1  -1.26111  0  -0.342088  -0.256298  0  3.615626  0
N  N261  1  0.54658784  0.81853236  0.17710386  1  -1.272512  0  -0.34165  -0.256895  0  3.616978  0
N  N262  1  0.95795490  0.31841554  0.67715742  1  -1.261093  0  -0.342104  -0.256328  0  3.615712  0
N  N263  1  0.45341071  0.18146673  0.82289791  1  -1.272501  0  -0.341725  -0.257026  0  3.616876  0
N  N264  1  0.04865279  0.81536578  0.18856494  1  -1.260658  0  -0.342775  -0.25883  0  3.587341  0
N  N265  1  0.55249551  0.68476499  0.31148385  1  -1.246951  0  -0.342554  -0.257664  0  3.585797  0
N  N266  1  0.95134923  0.18463333  0.81143334  1  -1.260656  0  -0.342802  -0.258823  0  3.587267  0
N  N267  1  0.44750620  0.31523559  0.68851417  1  -1.247186  0  -0.342582  -0.25767  0  3.58575  0
O  O268  1  0.98394679  0.67250703  0.14979092  1  -1.174771  0  -0.324971  -0.526722  0  2.36316  0
O  O269  1  0.30619292  0.82755084  0.35009637  1  -1.188101  0  -0.324504  -0.525916  0  2.364602  0
O  O270  1  0.01605468  0.32749428  0.85020927  1  -1.174785  0  -0.324889  -0.526592  0  2.363305  0
O  O271  1  0.69380555  0.17244973  0.64990342  1  -1.187993  0  -0.324487  -0.525866  0  2.364524  0
O  O272  1  0.03303113  0.53113856  0.19577107  1  -1.177867  0  -0.320303  -0.560971  0  2.176217  0
O  O273  1  0.25985404  0.96899538  0.30424101  1  -1.176877  0  -0.320248  -0.560337  0  2.17678  0
O  O274  1  0.96696995  0.46885980  0.80422994  1  -1.177835  0  -0.320313  -0.561004  0  2.176287  0
O  O275  1  0.74014447  0.03100078  0.69575898  1  -1.176623  0  -0.320218  -0.560308  0  2.1766  0
O  O276  1  0.05131897  0.38693350  0.11590570  1  -1.173922  0  -0.37416  -0.480619  0  2.272569  0
O  O277  1  0.05389645  0.11303392  0.38395192  1  -1.169232  0  -0.37447  -0.480636  0  2.274622  0
O  O278  1  0.94868132  0.61306560  0.88409432  1  -1.173934  0  -0.374111  -0.480528  0  2.272659  0
O  O279  1  0.94610626  0.88696518  0.61604864  1  -1.169255  0  -0.374449  -0.480615  0  2.27452  0
O  O280  1  0.79311957  0.82282915  0.32583461  1  -1.165657  0  -0.32497  -0.519152  0  2.326967  0
O  O281  1  0.44200478  0.67721139  0.17401792  1  -1.174204  0  -0.325632  -0.519913  0  2.328404  0
O  O282  1  0.20688062  0.17717142  0.67416716  1  -1.165675  0  -0.324995  -0.519136  0  2.3269  0
O  O283  1  0.55799390  0.32278844  0.82598343  1  -1.174161  0  -0.325628  -0.51993  0  2.32843  0
O  O284  1  0.80714876  0.91933005  0.40974523  1  -1.170139  0  -0.313476  -0.554909  0  2.174245  0
O  O285  1  0.63642458  0.58071847  0.08998655  1  -1.163321  0  -0.313228  -0.554577  0  2.171233  0
O  O286  1  0.19284947  0.08067051  0.59025629  1  -1.170159  0  -0.313505  -0.554943  0  2.174204  0
O  O287  1  0.36357686  0.41928064  0.91001231  1  -1.163327  0  -0.313219  -0.554579  0  2.171274  0
O  O288  1  0.62729024  0.05269422  0.54368615  1  -1.162806  0  -0.355203  -0.459652  0  2.326374  0
O  O289  1  0.72373804  0.44709075  0.95628445  1  -1.165691  0  -0.355276  -0.459493  0  2.327423  0
O  O290  1  0.37270584  0.94730856  0.45631443  1  -1.162733  0  -0.355247  -0.459648  0  2.326349  0
O  O291  1  0.27626056  0.55291056  0.04371492  1  -1.165814  0  -0.355263  -0.459485  0  2.327434  0
