# generated using pymatgen
data_HgH8C7SBrN5
_symmetry_space_group_name_H-M   'P 1'
_cell_length_a   7.48034640
_cell_length_b   8.56344235
_cell_length_c   16.84405141
_cell_angle_alpha   98.99636470
_cell_angle_beta   89.99971855
_cell_angle_gamma   89.99974090
_symmetry_Int_Tables_number   1
_chemical_formula_structural   HgH8C7SBrN5
_chemical_formula_sum   'Hg4 H32 C28 S4 Br4 N20'
_cell_volume   1065.71465156
_cell_formula_units_Z   4
loop_
 _symmetry_equiv_pos_site_id
 _symmetry_equiv_pos_as_xyz
  1  'x, y, z'
loop_
 _atom_site_type_symbol
 _atom_site_label
 _atom_site_symmetry_multiplicity
 _atom_site_fract_x
 _atom_site_fract_y
 _atom_site_fract_z
 _atom_site_occupancy
 _atom_site_hle17_bader_spin_density
 _atom_site_hle17_ddec_charge
 _atom_site_hle17_ddec_spin_density
 _atom_site_hle17_ddec_sum_bond_order
 _atom_site_hle17_magmom
 _atom_site_hse06_10hf_bader_spin_density
 _atom_site_hse06_10hf_ddec_charge
 _atom_site_hse06_10hf_ddec_spin_density
 _atom_site_hse06_10hf_ddec_sum_bond_order
 _atom_site_hse06_10hf_magmom
 _atom_site_hse06_bader_spin_density
 _atom_site_hse06_ddec_charge
 _atom_site_hse06_ddec_spin_density
 _atom_site_hse06_ddec_sum_bond_order
 _atom_site_hse06_magmom
 _atom_site_pbe_bader_spin_density
 _atom_site_pbe_cm5_charge
 _atom_site_pbe_ddec_charge
 _atom_site_pbe_ddec_spin_density
 _atom_site_pbe_ddec_sum_bond_order
 _atom_site_pbe_magmom
Hg  Hg0  1  0.34714593  0.75448867  0.81932700  1  0  0.580843  0  2.206286  0  0  0.431116  0  2.705992  0  0  0.476229  0  2.680754  0  0  0.459099  0.400454  0  2.722442  0
Hg  Hg1  1  0.84713693  0.74549691  0.68067060  1  0  0.580811  0  2.206179  0  0  0.431105  0  2.705873  0  0  0.476218  0  2.680635  0  0  0.459073  0.400445  0  2.722323  0
Hg  Hg2  1  0.65286654  0.24550005  0.18067045  1  0  0.580907  0  2.206213  0  0  0.431198  0  2.70592  0  0  0.476315  0  2.680677  0  0  0.459113  0.400537  0  2.722371  0
Hg  Hg3  1  0.15286217  0.25450126  0.31932940  1  0  0.580868  0  2.206214  0  0  0.431155  0  2.705932  0  0  0.476276  0  2.680691  0  0  0.459089  0.400496  0  2.72238  0
H  H4  1  0.69135752  0.26716397  0.75819683  1  0  0.324819  0  0.893279  0  0  0.309343  0  0.957641  0  0  0.316264  0  0.952646  0  0  0.29018  0.304378  0  0.961292  0
H  H5  1  0.19137016  0.23283180  0.74180468  1  0  0.324898  0  0.893397  0  0  0.309406  0  0.957734  0  0  0.316328  0  0.952736  0  0  0.290199  0.30444  0  0.961387  0
H  H6  1  0.30863624  0.73283420  0.24180259  1  0  0.32494  0  0.893357  0  0  0.309439  0  0.957725  0  0  0.31636  0  0.952727  0  0  0.290214  0.304475  0  0.961373  0
H  H7  1  0.80863162  0.76716636  0.25819651  1  0  0.324919  0  0.893369  0  0  0.309422  0  0.957721  0  0  0.316343  0  0.952723  0  0  0.290202  0.304457  0  0.961371  0
H  H8  1  0.77042549  0.11377718  0.68755379  1  0  0.30869  0  0.934754  0  0  0.288985  0  1.009839  0  0  0.295536  0  1.005102  0  0  0.277284  0.284348  0  1.013112  0
H  H9  1  0.27043523  0.38622179  0.81244425  1  0  0.308602  0  0.934763  0  0  0.288916  0  1.009836  0  0  0.295465  0  1.005106  0  0  0.277249  0.284279  0  1.013103  0
H  H10  1  0.22957495  0.88622454  0.31244532  1  0  0.308703  0  0.934692  0  0  0.288999  0  1.009763  0  0  0.295548  0  1.005027  0  0  0.277291  0.284363  0  1.013043  0
H  H11  1  0.72957056  0.61377520  0.18755507  1  0  0.30868  0  0.934729  0  0  0.288994  0  1.009808  0  0  0.295544  0  1.005072  0  0  0.277262  0.284358  0  1.013078  0
H  H12  1  0.44077049  0.30186065  0.93056605  1  0  0.318231  0  0.925323  0  0  0.29494  0  1.00425  0  0  0.303698  0  0.995964  0  0  0.286076  0.288738  0  1.010103  0
H  H13  1  0.94076296  0.19812918  0.56943502  1  0  0.318313  0  0.925249  0  0  0.29503  0  1.004159  0  0  0.303786  0  0.995877  0  0  0.286118  0.288829  0  1.010012  0
H  H14  1  0.55924064  0.69813279  0.06943238  1  0  0.318261  0  0.92537  0  0  0.294959  0  1.00427  0  0  0.303729  0  0.995983  0  0  0.286084  0.288749  0  1.010126  0
H  H15  1  0.05923080  0.80187133  0.43056696  1  0  0.318242  0  0.925316  0  0  0.294959  0  1.004231  0  0  0.303715  0  0.995951  0  0  0.286083  0.288758  0  1.010085  0
H  H16  1  0.35897446  0.29180338  0.02594707  1  0  0.306597  0  0.953845  0  0  0.288588  0  1.02605  0  0  0.295563  0  1.020593  0  0  0.272267  0.283688  0  1.029843  0
H  H17  1  0.85896644  0.20818510  0.47405365  1  0  0.306567  0  0.953887  0  0  0.288608  0  1.026026  0  0  0.295583  0  1.02057  0  0  0.272299  0.283708  0  1.029813  0
H  H18  1  0.64103534  0.70818653  0.97404988  1  0  0.306724  0  0.953687  0  0  0.288731  0  1.025876  0  0  0.295707  0  1.020412  0  0  0.272298  0.283828  0  1.029674  0
H  H19  1  0.14102464  0.79181660  0.52594783  1  0  0.30663  0  0.953729  0  0  0.288605  0  1.025954  0  0  0.29558  0  1.020497  0  0  0.272297  0.283707  0  1.029739  0
H  H20  1  0.15819292  0.61090974  0.98448383  1  0  0.073359  0  0.92673  0  0  0.081601  0  0.990943  0  0  0.084767  0  0.987968  0  0  0.107518  0.079235  0  0.993253  0
H  H21  1  0.65820103  0.88908617  0.51551860  1  0  0.073377  0  0.926687  0  0  0.081618  0  0.990901  0  0  0.084786  0  0.987924  0  0  0.107506  0.079251  0  0.99321  0
H  H22  1  0.84181688  0.38908842  0.01551736  1  0  0.073441  0  0.926605  0  0  0.081674  0  0.990826  0  0  0.08484  0  0.987852  0  0  0.107548  0.079307  0  0.993137  0
H  H23  1  0.34180476  0.11091672  0.48448298  1  0  0.073441  0  0.926674  0  0  0.081673  0  0.99089  0  0  0.084841  0  0.987914  0  0  0.107561  0.079306  0  0.993199  0
H  H24  1  0.02183608  0.70917579  0.12026508  1  0  0.106139  0  0.977438  0  0  0.112296  0  1.042199  0  0  0.116209  0  1.040274  0  0  0.097944  0.109414  0  1.043824  0
H  H25  1  0.52184605  0.79082493  0.37973763  1  0  0.106138  0  0.977346  0  0  0.112257  0  1.042124  0  0  0.11617  0  1.040196  0  0  0.097903  0.109359  0  1.043765  0
H  H26  1  0.97816971  0.29082474  0.87973453  1  0  0.106057  0  0.977521  0  0  0.11226  0  1.042243  0  0  0.116174  0  1.040317  0  0  0.097912  0.109362  0  1.043884  0
H  H27  1  0.47815172  0.20918149  0.62026602  1  0  0.106132  0  0.977256  0  0  0.112262  0  1.042033  0  0  0.116187  0  1.040092  0  0  0.09789  0.109351  0  1.043688  0
H  H28  1  0.03995586  0.99763880  0.17356274  1  0  0.082269  0  0.962844  0  0  0.089182  0  1.035981  0  0  0.091922  0  1.033703  0  0  0.089471  0.087167  0  1.037681  0
H  H29  1  0.53995453  0.50236064  0.32644041  1  0  0.082297  0  0.962835  0  0  0.089197  0  1.036002  0  0  0.091937  0  1.033722  0  0  0.089489  0.087183  0  1.037701  0
H  H30  1  0.96004458  0.00236295  0.82643340  1  0  0.082331  0  0.962759  0  0  0.089233  0  1.035904  0  0  0.091975  0  1.033625  0  0  0.089497  0.087218  0  1.037606  0
H  H31  1  0.46003655  0.49764340  0.67356364  1  0  0.082235  0  0.962869  0  0  0.089128  0  1.036021  0  0  0.091869  0  1.033741  0  0  0.089453  0.087112  0  1.037723  0
H  H32  1  0.18823497  0.17862237  0.09175557  1  0  0.098329  0  0.981781  0  0  0.10667  0  1.050617  0  0  0.109726  0  1.049537  0  0  0.093837  0.104426  0  1.051578  0
H  H33  1  0.68822709  0.32137282  0.40824786  1  0  0.098396  0  0.981723  0  0  0.10671  0  1.050587  0  0  0.109765  0  1.049508  0  0  0.093819  0.104461  0  1.051554  0
H  H34  1  0.81175745  0.82138056  0.90824008  1  0  0.098356  0  0.981847  0  0  0.106626  0  1.050732  0  0  0.109682  0  1.049652  0  0  0.093826  0.104382  0  1.051691  0
H  H35  1  0.31176132  0.67862769  0.59175530  1  0  0.098309  0  0.981806  0  0  0.106652  0  1.050629  0  0  0.109707  0  1.04955  0  0  0.093835  0.104387  0  1.051613  0
C  C36  1  0.16167773  0.73606997  0.01049787  1  0  0.13002  0  3.726796  0  0  0.099125  0  3.988058  0  0  0.105755  0  4.003126  0  0  0.042747  0.094651  0  3.977921  0
C  C37  1  0.66168797  0.76392536  0.48950350  1  0  0.13015  0  3.726691  0  0  0.09924  0  3.987933  0  0  0.105869  0  4.003002  0  0  0.042804  0.094765  0  3.977803  0
C  C38  1  0.83832672  0.26392703  0.98950085  1  0  0.129911  0  3.726876  0  0  0.099017  0  3.988157  0  0  0.105646  0  4.003226  0  0  0.042684  0.094544  0  3.978016  0
C  C39  1  0.33831515  0.23607870  0.51049818  1  0  0.13012  0  3.726813  0  0  0.099212  0  3.988083  0  0  0.105838  0  4.003148  0  0  0.042772  0.094737  0  3.977946  0
C  C40  1  0.08733302  0.79007052  0.08565471  1  0  -0.101753  0  3.702641  0  0  -0.117995  0  3.958377  0  0  -0.120692  0  3.974552  0  0  -0.087363  -0.116367  0  3.947722  0
C  C41  1  0.58733635  0.70992514  0.41434922  1  0  -0.101808  0  3.702503  0  0  -0.117963  0  3.958157  0  0  -0.120662  0  3.974337  0  0  -0.087281  -0.116318  0  3.947508  0
C  C42  1  0.91267143  0.20992883  0.91434479  1  0  -0.101692  0  3.70293  0  0  -0.117968  0  3.958653  0  0  -0.120665  0  3.974828  0  0  -0.087343  -0.116325  0  3.948002  0
C  C43  1  0.41265741  0.29007890  0.58565483  1  0  -0.10196  0  3.70285  0  0  -0.118162  0  3.958543  0  0  -0.120869  0  3.974712  0  0  -0.087414  -0.116509  0  3.9479  0
C  C44  1  0.09749107  0.95125844  0.11506473  1  0  0.003884  0  3.704662  0  0  -0.014828  0  3.958613  0  0  -0.012525  0  3.97608  0  0  -0.074725  -0.016304  0  3.946902  0
C  C45  1  0.59749020  0.54873720  0.38493621  1  0  0.003944  0  3.704779  0  0  -0.014786  0  3.958701  0  0  -0.012482  0  3.976162  0  0  -0.074767  -0.016266  0  3.946995  0
C  C46  1  0.90250670  0.04874331  0.88493141  1  0  0.00398  0  3.704832  0  0  -0.014762  0  3.958787  0  0  -0.012458  0  3.97625  0  0  -0.07465  -0.016238  0  3.947075  0
C  C47  1  0.40250089  0.45126566  0.61506774  1  0  0.004153  0  3.704873  0  0  -0.014523  0  3.958711  0  0  -0.012219  0  3.976178  0  0  -0.074556  -0.016001  0  3.946996  0
C  C48  1  0.18053257  0.05235971  0.06916549  1  0  -0.120716  0  3.669313  0  0  -0.142446  0  3.915593  0  0  -0.146932  0  3.936644  0  0  -0.085506  -0.139508  0  3.901705  0
C  C49  1  0.68052245  0.44763671  0.43083746  1  0  -0.120825  0  3.669554  0  0  -0.142495  0  3.915813  0  0  -0.146976  0  3.936861  0  0  -0.085502  -0.139588  0  3.901897  0
C  C50  1  0.81946653  0.94763969  0.93082927  1  0  -0.120879  0  3.669485  0  0  -0.142483  0  3.915704  0  0  -0.146968  0  3.936754  0  0  -0.08557  -0.139553  0  3.90181  0
C  C51  1  0.31946462  0.55236496  0.56916699  1  0  -0.120735  0  3.669401  0  0  -0.142446  0  3.915689  0  0  -0.146928  0  3.936737  0  0  -0.085541  -0.139519  0  3.901794  0
C  C52  1  0.25087878  0.98843985  0.99387695  1  0  0.13018  0  3.766198  0  0  0.135945  0  4.002593  0  0  0.138667  0  4.022678  0  0  0.116302  0.13374  0  3.989295  0
C  C53  1  0.75087557  0.51154852  0.50612525  1  0  0.130134  0  3.766283  0  0  0.135822  0  4.002752  0  0  0.138537  0  4.022856  0  0  0.116326  0.133719  0  3.989309  0
C  C54  1  0.74911899  0.01155482  0.00611802  1  0  0.130078  0  3.766041  0  0  0.135826  0  4.002456  0  0  0.138542  0  4.022545  0  0  0.116247  0.133643  0  3.98913  0
C  C55  1  0.24911685  0.48845317  0.49387801  1  0  0.13014  0  3.765978  0  0  0.135758  0  4.002515  0  0  0.138473  0  4.0226  0  0  0.116283  0.133638  0  3.989098  0
C  C56  1  0.33984652  0.08802874  0.94109712  1  0  0.381367  0  3.806714  0  0  0.34207  0  4.079839  0  0  0.364005  0  4.09004  0  0  0.234065  0.327631  0  4.072408  0
C  C57  1  0.83984201  0.41196039  0.55890471  1  0  0.381266  0  3.806643  0  0  0.342072  0  4.079764  0  0  0.364006  0  4.089967  0  0  0.233996  0.327604  0  4.072325  0
C  C58  1  0.66015259  0.91196828  0.05889923  1  0  0.381621  0  3.806387  0  0  0.342232  0  4.079671  0  0  0.364176  0  4.089856  0  0  0.234053  0.327785  0  4.072241  0
C  C59  1  0.16015175  0.58804011  0.44109787  1  0  0.381316  0  3.80656  0  0  0.342168  0  4.079606  0  0  0.364109  0  4.089795  0  0  0.233997  0.327704  0  4.072172  0
C  C60  1  0.56669002  0.05830214  0.76037794  1  0  0.422404  0  3.85167  0  0  0.390706  0  4.152756  0  0  0.414042  0  4.163253  0  0  0.220325  0.374699  0  4.145305  0
C  C61  1  0.06670027  0.44169306  0.73962023  1  0  0.422806  0  3.851234  0  0  0.391041  0  4.152373  0  0  0.414375  0  4.162872  0  0  0.220524  0.375033  0  4.144921  0
C  C62  1  0.43330507  0.94169488  0.23961781  1  0  0.422542  0  3.851462  0  0  0.390891  0  4.152472  0  0  0.414226  0  4.162968  0  0  0.220439  0.374884  0  4.145022  0
C  C63  1  0.93330685  0.55830863  0.26038125  1  0  0.422603  0  3.851417  0  0  0.390884  0  4.152505  0  0  0.414218  0  4.163007  0  0  0.220461  0.374877  0  4.145054  0
S  S64  1  0.53843955  0.86573184  0.70603280  1  0  -0.335409  0  2.330908  0  0  -0.283107  0  2.738747  0  0  -0.30406  0  2.73036  0  0  -0.145463  -0.268704  0  2.74426  0
S  S65  1  0.03844811  0.63426349  0.79396569  1  0  -0.335566  0  2.330869  0  0  -0.283237  0  2.738726  0  0  -0.304189  0  2.730335  0  0  -0.145511  -0.268836  0  2.744246  0
S  S66  1  0.46155955  0.13426515  0.29396592  1  0  -0.335501  0  2.33085  0  0  -0.283214  0  2.738673  0  0  -0.304166  0  2.730279  0  0  -0.14551  -0.268812  0  2.744192  0
S  S67  1  0.96156035  0.36573467  0.20603491  1  0  -0.33551  0  2.330874  0  0  -0.283215  0  2.738751  0  0  -0.304169  0  2.730361  0  0  -0.145522  -0.268816  0  2.744271  0
Br  Br68  1  0.57430695  0.52480080  0.85160947  1  0  -0.503647  0  1.003386  0  0  -0.447563  0  1.299682  0  0  -0.463511  0  1.279333  0  0  -0.24243  -0.436359  0  1.313781  0
Br  Br69  1  0.07426589  0.97521794  0.64839738  1  0  -0.503658  0  1.003374  0  0  -0.447582  0  1.299654  0  0  -0.463532  0  1.279303  0  0  -0.242402  -0.436378  0  1.313748  0
Br  Br70  1  0.42573226  0.47521039  0.14838922  1  0  -0.503684  0  1.003366  0  0  -0.447607  0  1.299666  0  0  -0.463554  0  1.279323  0  0  -0.242434  -0.436402  0  1.31376  0
Br  Br71  1  0.92571048  0.02480145  0.35161030  1  0  -0.503666  0  1.003345  0  0  -0.447606  0  1.299631  0  0  -0.463555  0  1.279279  0  0  -0.242437  -0.436404  0  1.313729  0
N  N72  1  0.24121801  0.83232444  0.96620854  1  0  -0.321541  0  3.238318  0  0  -0.26281  0  3.49913  0  0  -0.278795  0  3.519682  0  0  -0.315541  -0.251706  0  3.48496  0
N  N73  1  0.74121504  0.66766634  0.53379269  1  0  -0.321612  0  3.238417  0  0  -0.262874  0  3.499287  0  0  -0.278857  0  3.519839  0  0  -0.315578  -0.251803  0  3.485091  0
N  N74  1  0.75878644  0.16767021  0.03378762  1  0  -0.321466  0  3.238223  0  0  -0.262716  0  3.499032  0  0  -0.2787  0  3.519581  0  0  -0.315475  -0.251619  0  3.484852  0
N  N75  1  0.25878139  0.33233654  0.46620948  1  0  -0.321691  0  3.238349  0  0  -0.262878  0  3.499125  0  0  -0.278881  0  3.519727  0  0  -0.315578  -0.251801  0  3.48493  0
N  N76  1  0.39362401  0.02062646  0.86904518  1  0  -0.282185  0  3.301513  0  0  -0.215091  0  3.587459  0  0  -0.237535  0  3.611992  0  0  -0.240721  -0.200147  0  3.570298  0
N  N77  1  0.89362504  0.47936360  0.63095542  1  0  -0.282041  0  3.301377  0  0  -0.215047  0  3.587372  0  0  -0.237486  0  3.61189  0  0  -0.240668  -0.200108  0  3.570225  0
N  N78  1  0.60637376  0.97937173  0.13095127  1  0  -0.282354  0  3.301389  0  0  -0.215259  0  3.58743  0  0  -0.237705  0  3.611952  0  0  -0.240744  -0.200316  0  3.570278  0
N  N79  1  0.10637406  0.52063454  0.36904696  1  0  -0.282165  0  3.301371  0  0  -0.215179  0  3.587359  0  0  -0.23762  0  3.611878  0  0  -0.240704  -0.200238  0  3.57021  0
N  N80  1  0.48959948  0.11634448  0.82838167  1  0  -0.311343  0  3.133678  0  0  -0.278219  0  3.414099  0  0  -0.295876  0  3.436619  0  0  -0.242464  -0.265797  0  3.39837  0
N  N81  1  0.98960725  0.38364869  0.67161778  1  0  -0.311532  0  3.133365  0  0  -0.27838  0  3.413867  0  0  -0.296033  0  3.436384  0  0  -0.24256  -0.265957  0  3.398138  0
N  N82  1  0.51039828  0.88365253  0.17161527  1  0  -0.311274  0  3.133468  0  0  -0.278167  0  3.413907  0  0  -0.295822  0  3.436435  0  0  -0.242456  -0.265744  0  3.398175  0
N  N83  1  0.01039720  0.61635183  0.32838361  1  0  -0.311374  0  3.133437  0  0  -0.27823  0  3.413918  0  0  -0.295885  0  3.436442  0  0  -0.242484  -0.265807  0  3.398187  0
N  N84  1  0.66843257  0.15928361  0.72429644  1  0  -0.64834  0  3.137133  0  0  -0.605654  0  3.367348  0  0  -0.62886  0  3.36755  0  0  -0.576703  -0.589251  0  3.366774  0
N  N85  1  0.16844829  0.34071467  0.77570117  1  0  -0.648466  0  3.137245  0  0  -0.6058  0  3.367572  0  0  -0.629005  0  3.367771  0  0  -0.576764  -0.589398  0  3.367  0
N  N86  1  0.33156252  0.84071458  0.27570119  1  0  -0.64856  0  3.137259  0  0  -0.60588  0  3.367556  0  0  -0.62908  0  3.36775  0  0  -0.576787  -0.589485  0  3.366989  0
N  N87  1  0.83155883  0.65928587  0.22429844  1  0  -0.64852  0  3.137186  0  0  -0.605857  0  3.367473  0  0  -0.629061  0  3.367668  0  0  -0.576774  -0.589458  0  3.366908  0
N  N88  1  0.36312431  0.24396253  0.96656350  1  0  -0.642185  0  3.168065  0  0  -0.60282  0  3.400004  0  0  -0.623562  0  3.397191  0  0  -0.576186  -0.588384  0  3.401575  0
N  N89  1  0.86311954  0.25602767  0.53343777  1  0  -0.642199  0  3.167909  0  0  -0.602884  0  3.399781  0  0  -0.623624  0  3.396962  0  0  -0.576272  -0.588449  0  3.40136  0
N  N90  1  0.63687881  0.75603448  0.03343344  1  0  -0.642445  0  3.1679  0  0  -0.603013  0  3.399873  0  0  -0.623779  0  3.39702  0  0  -0.576236  -0.588563  0  3.401468  0
N  N91  1  0.13687555  0.74397284  0.46656421  1  0  -0.642167  0  3.167809  0  0  -0.602804  0  3.399733  0  0  -0.623547  0  3.39692  0  0  -0.576188  -0.588369  0  3.401308  0
