# generated using pymatgen
data_ThH60(C3O)16
_symmetry_space_group_name_H-M   'P 1'
_cell_length_a   7.47880427
_cell_length_b   12.38507663
_cell_length_c   12.38347879
_cell_angle_alpha   84.77542402
_cell_angle_beta   72.42761550
_cell_angle_gamma   72.42380420
_symmetry_Int_Tables_number   1
_chemical_formula_structural   ThH60(C3O)16
_chemical_formula_sum   'Th1 H60 C48 O16'
_cell_volume   1042.45335447
_cell_formula_units_Z   1
loop_
 _symmetry_equiv_pos_site_id
 _symmetry_equiv_pos_as_xyz
  1  'x, y, z'
loop_
 _atom_site_type_symbol
 _atom_site_label
 _atom_site_symmetry_multiplicity
 _atom_site_fract_x
 _atom_site_fract_y
 _atom_site_fract_z
 _atom_site_occupancy
 _atom_site_hle17_bader_spin_density
 _atom_site_hle17_ddec_charge
 _atom_site_hle17_ddec_spin_density
 _atom_site_hle17_ddec_sum_bond_order
 _atom_site_hle17_magmom
 _atom_site_hse06_10hf_bader_spin_density
 _atom_site_hse06_10hf_ddec_charge
 _atom_site_hse06_10hf_ddec_spin_density
 _atom_site_hse06_10hf_ddec_sum_bond_order
 _atom_site_hse06_10hf_magmom
 _atom_site_hse06_bader_spin_density
 _atom_site_hse06_ddec_charge
 _atom_site_hse06_ddec_spin_density
 _atom_site_hse06_ddec_sum_bond_order
 _atom_site_hse06_magmom
 _atom_site_pbe_bader_spin_density
 _atom_site_pbe_cm5_charge
 _atom_site_pbe_ddec_charge
 _atom_site_pbe_ddec_spin_density
 _atom_site_pbe_ddec_sum_bond_order
 _atom_site_pbe_magmom
Th  Th0  1  0.21094149  0.99998317  0.99998428  1  0  2.600671  0  2.711185  0  0  2.462376  0  3.342002  0  0  2.589889  0  3.22793  0  0  1.693532  2.368712  0  3.421533  0
H  H1  1  0.34371247  0.67552244  0.04102983  1  0  0.398785  0  0.898574  0  0  0.36119  0  0.986563  0  0  0.375955  0  0.971517  0  0  0.300974  0.350922  0  0.996938  0
H  H2  1  0.06062016  0.32454327  0.95893772  1  0  0.397603  0  0.899816  0  0  0.360622  0  0.987127  0  0  0.375368  0  0.972106  0  0  0.300457  0.350365  0  0.997483  0
H  H3  1  0.01933003  0.04100767  0.32446949  1  0  0.398222  0  0.89835  0  0  0.360795  0  0.986637  0  0  0.375543  0  0.971622  0  0  0.300869  0.350529  0  0.997004  0
H  H4  1  0.38491585  0.95888302  0.67553617  1  0  0.39717  0  0.898734  0  0  0.359572  0  0.98721  0  0  0.374331  0  0.972189  0  0  0.300293  0.349303  0  0.99757  0
H  H5  1  0.89646122  0.79561780  0.94798936  1  0  0.088356  0  0.939715  0  0  0.102449  0  1.004306  0  0  0.103929  0  1.003757  0  0  0.096346  0.101313  0  1.00486  0
H  H6  1  0.64026923  0.20445241  0.05211616  1  0  0.087007  0  0.940035  0  0  0.101446  0  1.004387  0  0  0.102814  0  1.003917  0  0  0.095915  0.100334  0  1.004944  0
H  H7  1  0.69220381  0.94794157  0.20429931  1  0  0.088012  0  0.939684  0  0  0.101825  0  1.004367  0  0  0.10322  0  1.003918  0  0  0.096289  0.100743  0  1.004875  0
H  H8  1  0.84450298  0.05200803  0.79560376  1  0  0.08741  0  0.941112  0  0  0.102039  0  1.005131  0  0  0.103428  0  1.004676  0  0  0.096374  0.100925  0  1.00568  0
H  H9  1  0.78061195  0.87580432  0.84966325  1  0  0.087228  0  0.954239  0  0  0.100189  0  1.020709  0  0  0.101774  0  1.020201  0  0  0.095446  0.098991  0  1.021225  0
H  H10  1  0.50623621  0.12422821  0.15037070  1  0  0.087042  0  0.953465  0  0  0.099487  0  1.020784  0  0  0.101109  0  1.020144  0  0  0.094927  0.098267  0  1.021368  0
H  H11  1  0.65657582  0.84958282  0.12409284  1  0  0.087235  0  0.954161  0  0  0.099526  0  1.021279  0  0  0.101146  0  1.020738  0  0  0.095131  0.098301  0  1.021845  0
H  H12  1  0.63031838  0.15029797  0.87586063  1  0  0.087432  0  0.953229  0  0  0.099931  0  1.020638  0  0  0.10151  0  1.020111  0  0  0.095224  0.098727  0  1.021173  0
H  H13  1  0.92456455  0.58454015  0.97347775  1  0  0.079839  0  0.934936  0  0  0.095587  0  0.997972  0  0  0.096977  0  0.997384  0  0  0.090605  0.094535  0  0.998495  0
H  H14  1  0.48302430  0.41535270  0.02651524  1  0  0.078847  0  0.935682  0  0  0.094947  0  0.998647  0  0  0.096352  0  0.998049  0  0  0.090176  0.093883  0  0.999183  0
H  H15  1  0.50920161  0.97345411  0.41540418  1  0  0.078719  0  0.935991  0  0  0.095008  0  0.998604  0  0  0.096349  0  0.998087  0  0  0.090107  0.093918  0  0.999174  0
H  H16  1  0.89808751  0.02651675  0.58460321  1  0  0.078981  0  0.935656  0  0  0.095264  0  0.998218  0  0  0.096588  0  0.997726  0  0  0.090615  0.094252  0  0.998689  0
H  H17  1  0.83112656  0.51866907  0.89067960  1  0  0.094212  0  0.950163  0  0  0.105977  0  1.018005  0  0  0.108298  0  1.016564  0  0  0.094142  0.104234  0  1.01921  0
H  H18  1  0.24086445  0.48133430  0.10916484  1  0  0.093647  0  0.951498  0  0  0.105651  0  1.01925  0  0  0.107972  0  1.017824  0  0  0.093825  0.103917  0  1.020427  0
H  H19  1  0.34976221  0.89071370  0.48124524  1  0  0.094542  0  0.950668  0  0  0.106655  0  1.017954  0  0  0.108976  0  1.016491  0  0  0.094456  0.10491  0  1.019157  0
H  H20  1  0.72193826  0.10924780  0.51868898  1  0  0.09458  0  0.951588  0  0  0.106519  0  1.019446  0  0  0.108911  0  1.017926  0  0  0.094659  0.104729  0  1.020702  0
H  H21  1  0.19321075  0.47416296  0.81768686  1  0  0.050501  0  0.929799  0  0  0.064911  0  0.987401  0  0  0.065337  0  0.988363  0  0  0.094064  0.064562  0  0.986829  0
H  H22  1  0.48525672  0.52587555  0.18226462  1  0  0.050694  0  0.931079  0  0  0.064804  0  0.989152  0  0  0.065224  0  0.990115  0  0  0.0939  0.064515  0  0.988506  0
H  H23  1  0.66724240  0.81767676  0.52584560  1  0  0.05134  0  0.929454  0  0  0.06575  0  0.987215  0  0  0.066135  0  0.988183  0  0  0.094594  0.065468  0  0.986567  0
H  H24  1  0.01086944  0.18228693  0.47419820  1  0  0.051066  0  0.929407  0  0  0.064979  0  0.988164  0  0  0.0654  0  0.989152  0  0  0.094063  0.064687  0  0.987503  0
H  H25  1  0.00428637  0.48647760  0.67948008  1  0  0.065251  0  0.952898  0  0  0.081885  0  1.018845  0  0  0.083153  0  1.018522  0  0  0.085824  0.080852  0  1.019242  0
H  H26  1  0.17041256  0.51358256  0.32042898  1  0  0.065902  0  0.953119  0  0  0.082364  0  1.019211  0  0  0.083706  0  1.018811  0  0  0.086107  0.081295  0  1.01964  0
H  H27  1  0.49068951  0.67948804  0.51339448  1  0  0.065902  0  0.952781  0  0  0.082479  0  1.018655  0  0  0.083857  0  1.018256  0  0  0.086086  0.081424  0  1.019049  0
H  H28  1  0.68374498  0.32036058  0.48655690  1  0  0.065098  0  0.954376  0  0  0.082014  0  1.019952  0  0  0.08338  0  1.019499  0  0  0.085759  0.080967  0  1.020363  0
H  H29  1  0.21433898  0.53325117  0.61516812  1  0  0.060554  0  0.940457  0  0  0.07793  0  1.004034  0  0  0.07914  0  1.003765  0  0  0.084371  0.076989  0  1.004289  0
H  H30  1  0.36282537  0.46690931  0.38481452  1  0  0.060104  0  0.941276  0  0  0.078004  0  1.004191  0  0  0.079179  0  1.003998  0  0  0.084597  0.07707  0  1.004422  0
H  H31  1  0.74754152  0.61516982  0.46668356  1  0  0.060669  0  0.940244  0  0  0.077914  0  1.003735  0  0  0.079118  0  1.003536  0  0  0.084443  0.076978  0  1.003965  0
H  H32  1  0.82940658  0.38478909  0.53321940  1  0  0.061019  0  0.939169  0  0  0.078526  0  1.002432  0  0  0.079705  0  1.002194  0  0  0.084526  0.077595  0  1.002687  0
H  H33  1  0.91882879  0.66785751  0.57320084  1  0  0.040328  0  0.941017  0  0  0.056376  0  0.998362  0  0  0.056349  0  0.999539  0  0  0.091365  0.056302  0  0.997661  0
H  H34  1  0.15989839  0.33230438  0.42681400  1  0  0.040872  0  0.940286  0  0  0.057236  0  0.99809  0  0  0.057204  0  0.999284  0  0  0.091832  0.057223  0  0.99731  0
H  H35  1  0.58670150  0.57323442  0.33197277  1  0  0.040131  0  0.940914  0  0  0.056738  0  0.998247  0  0  0.056723  0  0.999369  0  0  0.091275  0.056722  0  0.997482  0
H  H36  1  0.49201166  0.42675534  0.66794295  1  0  0.041393  0  0.940128  0  0  0.057371  0  0.998071  0  0  0.05733  0  0.999288  0  0  0.091639  0.057358  0  0.997288  0
H  H37  1  0.95157877  0.84448441  0.63667219  1  0  0.074105  0  0.936532  0  0  0.091019  0  0.99853  0  0  0.092034  0  0.998492  0  0  0.089419  0.090213  0  0.998689  0
H  H38  1  0.43279062  0.15563145  0.36347201  1  0  0.073894  0  0.935833  0  0  0.091196  0  0.997907  0  0  0.092239  0  0.997832  0  0  0.089599  0.090401  0  0.998038  0
H  H39  1  0.79630686  0.63666611  0.15537285  1  0  0.074653  0  0.937026  0  0  0.091846  0  0.998715  0  0  0.092876  0  0.998727  0  0  0.089647  0.091007  0  0.998863  0
H  H40  1  0.58835491  0.36338657  0.84456805  1  0  0.074196  0  0.936589  0  0  0.091213  0  0.998636  0  0  0.092223  0  0.998608  0  0  0.0895  0.090415  0  0.998774  0
H  H41  1  0.18290738  0.74344039  0.59035132  1  0  0.071942  0  0.959552  0  0  0.085594  0  1.02925  0  0  0.087103  0  1.028478  0  0  0.088899  0.084437  0  1.02993  0
H  H42  1  0.51670214  0.25671288  0.40975642  1  0  0.071577  0  0.960362  0  0  0.085733  0  1.029537  0  0  0.087293  0  1.028764  0  0  0.088903  0.084505  0  1.030268  0
H  H43  1  0.92640756  0.59037395  0.25652568  1  0  0.072944  0  0.959227  0  0  0.086685  0  1.028883  0  0  0.088287  0  1.028032  0  0  0.089097  0.085449  0  1.029603  0
H  H44  1  0.77338407  0.40958767  0.74340668  1  0  0.071865  0  0.961034  0  0  0.085742  0  1.03034  0  0  0.087223  0  1.029576  0  0  0.089135  0.084603  0  1.030979  0
H  H45  1  0.34748359  0.62813702  0.73493142  1  0  0.067247  0  0.942248  0  0  0.082898  0  1.00863  0  0  0.084102  0  1.008315  0  0  0.087602  0.081976  0  1.00891  0
H  H46  1  0.71063753  0.37193957  0.26514826  1  0  0.066032  0  0.941872  0  0  0.081465  0  1.009016  0  0  0.082669  0  1.008705  0  0  0.087069  0.080537  0  1.009304  0
H  H47  1  0.97556654  0.73483574  0.37188952  1  0  0.067449  0  0.940818  0  0  0.082655  0  1.008076  0  0  0.08383  0  1.007816  0  0  0.087622  0.08175  0  1.008338  0
H  H48  1  0.08237783  0.26507730  0.62819183  1  0  0.066876  0  0.943273  0  0  0.082531  0  1.009841  0  0  0.083674  0  1.009618  0  0  0.087436  0.08163  0  1.010089  0
H  H49  1  0.22682663  0.65010210  0.88185870  1  0  0.087877  0  0.941925  0  0  0.102154  0  1.005863  0  0  0.1038  0  1.005935  0  0  0.094218  0.100907  0  1.005948  0
H  H50  1  0.75904993  0.34988931  0.11820777  1  0  0.087501  0  0.941534  0  0  0.101912  0  1.005595  0  0  0.103596  0  1.005628  0  0  0.093844  0.100651  0  1.00569  0
H  H51  1  0.87706341  0.88180246  0.34994880  1  0  0.087145  0  0.941522  0  0  0.101912  0  1.005152  0  0  0.10363  0  1.005151  0  0  0.093814  0.100621  0  1.005298  0
H  H52  1  0.10884737  0.11812680  0.65011173  1  0  0.08805  0  0.942554  0  0  0.102141  0  1.006844  0  0  0.103882  0  1.006813  0  0  0.094051  0.100844  0  1.006986  0
H  H53  1  0.66690652  0.63324966  0.74785033  1  0  0.078614  0  0.936184  0  0  0.095732  0  0.997254  0  0  0.09679  0  0.997545  0  0  0.093453  0.094881  0  0.997165  0
H  H54  1  0.04822252  0.36684101  0.25208150  1  0  0.076073  0  0.936323  0  0  0.09376  0  0.997482  0  0  0.094853  0  0.997719  0  0  0.092327  0.092903  0  0.997392  0
H  H55  1  0.30018909  0.74792631  0.36670062  1  0  0.076939  0  0.93751  0  0  0.094597  0  0.998378  0  0  0.095691  0  0.998646  0  0  0.092835  0.093741  0  0.998274  0
H  H56  1  0.41476087  0.25210068  0.63330999  1  0  0.076262  0  0.937147  0  0  0.093544  0  0.998617  0  0  0.094637  0  0.998884  0  0  0.092418  0.092703  0  0.998503  0
H  H57  1  0.64641689  0.77979617  0.72920102  1  0  0.080505  0  0.939699  0  0  0.093511  0  1.007402  0  0  0.094952  0  1.007457  0  0  0.092249  0.092413  0  1.007487  0
H  H58  1  0.15562565  0.22028248  0.27077902  1  0  0.080114  0  0.940379  0  0  0.093456  0  1.007939  0  0  0.094882  0  1.008025  0  0  0.09232  0.092378  0  1.007988  0
H  H59  1  0.42620337  0.72925391  0.22009131  1  0  0.080155  0  0.93908  0  0  0.093547  0  1.006745  0  0  0.095083  0  1.006708  0  0  0.092143  0.092345  0  1.00694  0
H  H60  1  0.37562584  0.27074871  0.77988956  1  0  0.07954  0  0.939862  0  0  0.093073  0  1.007211  0  0  0.094603  0  1.007189  0  0  0.092198  0.091879  0  1.007416  0
C  C61  1  0.07348574  0.76506092  0.77307393  1  0  1.5e-05  0  3.576541  0  0  0.025646  0  3.80422  0  0  0.020226  0  3.821416  0  0  -0.015344  0.029295  0  3.792444  0
C  C62  1  0.61170351  0.23498956  0.22701066  1  0  -0.004452  0  3.578863  0  0  0.023406  0  3.803589  0  0  0.017992  0  3.820673  0  0  -0.017325  0.027056  0  3.791869  0
C  C63  1  0.83860626  0.77308024  0.23490951  1  0  0.000835  0  3.576778  0  0  0.027874  0  3.80182  0  0  0.022544  0  3.819016  0  0  -0.016066  0.031456  0  3.790045  0
C  C64  1  0.84654221  0.22688506  0.76515132  1  0  -0.001511  0  3.575934  0  0  0.02497  0  3.803212  0  0  0.019519  0  3.820381  0  0  -0.016319  0.028632  0  3.791427  0
C  C65  1  0.87419232  0.79211956  0.86483346  1  0  -0.185434  0  3.62418  0  0  -0.234212  0  3.863439  0  0  -0.234679  0  3.876268  0  0  -0.162292  -0.233694  0  3.854625  0
C  C66  1  0.53129180  0.20791730  0.13523573  1  0  -0.181637  0  3.620039  0  0  -0.230513  0  3.860695  0  0  -0.230741  0  3.873193  0  0  -0.159642  -0.230132  0  3.852103  0
C  C67  1  0.66639975  0.86480332  0.20779567  1  0  -0.184848  0  3.621458  0  0  -0.232452  0  3.860849  0  0  -0.232906  0  3.873621  0  0  -0.161092  -0.231931  0  3.852008  0
C  C68  1  0.73902324  0.13514090  0.79214900  1  0  -0.183997  0  3.622982  0  0  -0.233131  0  3.863824  0  0  -0.233478  0  3.87643  0  0  -0.161582  -0.23267  0  3.855119  0
C  C69  1  0.77278357  0.70096556  0.86532841  1  0  -0.00074  0  3.588602  0  0  0.025896  0  3.813891  0  0  0.020041  0  3.831264  0  0  -0.013261  0.029866  0  3.801944  0
C  C70  1  0.33930653  0.29906671  0.13466586  1  0  0.000661  0  3.585191  0  0  0.02451  0  3.816373  0  0  0.018595  0  3.833773  0  0  -0.013618  0.028507  0  3.804406  0
C  C71  1  0.47379820  0.86532840  0.29892414  1  0  -0.000522  0  3.583278  0  0  0.02451  0  3.812692  0  0  0.018639  0  3.830135  0  0  -0.013891  0.028498  0  3.800613  0
C  C72  1  0.63815193  0.13463201  0.70099728  1  0  -0.00142  0  3.586416  0  0  0.024466  0  3.81432  0  0  0.018636  0  3.831753  0  0  -0.014105  0.028448  0  3.802333  0
C  C73  1  0.90275719  0.58419799  0.88945130  1  0  -0.181703  0  3.615148  0  0  -0.23111  0  3.86237  0  0  -0.232395  0  3.875409  0  0  -0.166218  -0.229991  0  3.853275  0
C  C74  1  0.37674430  0.41578222  0.11051220  1  0  -0.179863  0  3.616187  0  0  -0.228658  0  3.863467  0  0  -0.230136  0  3.876956  0  0  -0.164904  -0.227433  0  3.854144  0
C  C75  1  0.48697318  0.88945727  0.41571729  1  0  -0.181195  0  3.617236  0  0  -0.230003  0  3.863722  0  0  -0.231291  0  3.876803  0  0  -0.165298  -0.228858  0  3.85458  0
C  C76  1  0.79228406  0.11053413  0.58424113  1  0  -0.182145  0  3.615655  0  0  -0.231135  0  3.863104  0  0  -0.232439  0  3.876162  0  0  -0.167292  -0.230031  0  3.854063  0
C  C77  1  0.10178864  0.55693545  0.79821948  1  0  0.045153  0  3.614327  0  0  0.048567  0  3.848954  0  0  0.048325  0  3.866365  0  0  -0.089502  0.048791  0  3.837012  0
C  C78  1  0.45719686  0.44308051  0.20176196  1  0  0.041911  0  3.617727  0  0  0.045212  0  3.853375  0  0  0.044979  0  3.870783  0  0  -0.090544  0.045394  0  3.841463  0
C  C79  1  0.65871688  0.79822403  0.44301328  1  0  0.043183  0  3.615781  0  0  0.045859  0  3.851824  0  0  0.045739  0  3.869032  0  0  -0.091302  0.046039  0  3.839877  0
C  C80  1  0.90005493  0.20176164  0.55702065  1  0  0.044192  0  3.613487  0  0  0.046572  0  3.850633  0  0  0.046285  0  3.868032  0  0  -0.089799  0.0468  0  3.838713  0
C  C81  1  0.07196617  0.55360669  0.68136224  1  0  -0.166154  0  3.647075  0  0  -0.214275  0  3.90144  0  0  -0.215947  0  3.915447  0  0  -0.164885  -0.212854  0  3.891673  0
C  C82  1  0.30711529  0.44645690  0.31861670  1  0  -0.166447  0  3.646107  0  0  -0.214035  0  3.901387  0  0  -0.215763  0  3.915414  0  0  -0.165432  -0.21262  0  3.891712  0
C  C83  1  0.62556653  0.68135822  0.44629286  1  0  -0.166574  0  3.646013  0  0  -0.21363  0  3.900377  0  0  -0.215508  0  3.914507  0  0  -0.164385  -0.212181  0  3.890644  0
C  C84  1  0.75328361  0.31858248  0.55368689  1  0  -0.166724  0  3.645459  0  0  -0.213798  0  3.899756  0  0  -0.215499  0  3.913773  0  0  -0.164596  -0.21241  0  3.890051  0
C  C85  1  0.94167696  0.66954858  0.65665648  1  0  0.040445  0  3.627486  0  0  0.041954  0  3.864776  0  0  0.041575  0  3.88275  0  0  -0.090459  0.042341  0  3.852257  0
C  C86  1  0.26798652  0.33054283  0.34338366  1  0  0.03923  0  3.623698  0  0  0.038773  0  3.865338  0  0  0.038372  0  3.883383  0  0  -0.091336  0.039163  0  3.852779  0
C  C87  1  0.61127652  0.65666531  0.33030775  1  0  0.039985  0  3.62522  0  0  0.040092  0  3.865066  0  0  0.039744  0  3.883165  0  0  -0.090831  0.040427  0  3.852487  0
C  C88  1  0.59829710  0.34330847  0.66965360  1  0  0.038468  0  3.623807  0  0  0.03858  0  3.864229  0  0  0.038139  0  3.882221  0  0  -0.091087  0.038973  0  3.851717  0
C  C89  1  0.04163056  0.76113864  0.65658255  1  0  -0.172195  0  3.640053  0  0  -0.222863  0  3.893131  0  0  -0.223661  0  3.906429  0  0  -0.163852  -0.22212  0  3.883909  0
C  C90  1  0.45946013  0.23895588  0.34351218  1  0  -0.170054  0  3.636993  0  0  -0.221487  0  3.890534  0  0  -0.22234  0  3.903833  0  0  -0.16294  -0.220726  0  3.881422  0
C  C91  1  0.80290805  0.65660113  0.23875068  1  0  -0.174696  0  3.639302  0  0  -0.225835  0  3.893  0  0  -0.226756  0  3.906289  0  0  -0.164381  -0.224971  0  3.883803  0
C  C92  1  0.69828440  0.34339054  0.76121356  1  0  -0.171995  0  3.637553  0  0  -0.222661  0  3.891406  0  0  -0.223366  0  3.904555  0  0  -0.164008  -0.221943  0  3.882253  0
C  C93  1  0.20293929  0.64751734  0.79892731  1  0  -0.174776  0  3.606049  0  0  -0.222669  0  3.853994  0  0  -0.22434  0  3.867418  0  0  -0.161029  -0.221287  0  3.844691  0
C  C94  1  0.64958584  0.35250559  0.20111635  1  0  -0.170102  0  3.60267  0  0  -0.218433  0  3.849928  0  0  -0.220153  0  3.86342  0  0  -0.158884  -0.217014  0  3.840587  0
C  C95  1  0.85050980  0.79890964  0.35247612  1  0  -0.17341  0  3.603866  0  0  -0.221803  0  3.852185  0  0  -0.223549  0  3.865575  0  0  -0.159635  -0.220396  0  3.842915  0
C  C96  1  0.00194777  0.20103573  0.64759125  1  0  -0.172602  0  3.606874  0  0  -0.2205  0  3.8553  0  0  -0.222178  0  3.868704  0  0  -0.159398  -0.219134  0  3.846043  0
C  C97  1  0.74179999  0.69746355  0.74709212  1  0  -0.16976  0  3.590736  0  0  -0.216992  0  3.839729  0  0  -0.218598  0  3.853428  0  0  -0.156447  -0.215672  0  3.830211  0
C  C98  1  0.18655853  0.30261388  0.25288010  1  0  -0.166427  0  3.590781  0  0  -0.213676  0  3.84165  0  0  -0.215306  0  3.855459  0  0  -0.155302  -0.21235  0  3.832102  0
C  C99  1  0.43928039  0.74712702  0.30243062  1  0  -0.166978  0  3.589104  0  0  -0.21449  0  3.839157  0  0  -0.216207  0  3.852954  0  0  -0.155471  -0.213092  0  3.829623  0
C  C100  1  0.48889815  0.25285674  0.69753906  1  0  -0.164764  0  3.589119  0  0  -0.212106  0  3.838815  0  0  -0.213848  0  3.852708  0  0  -0.154559  -0.210729  0  3.829247  0
C  C101  1  0.18007899  0.85120916  0.77680811  1  0  0.698605  0  3.754414  0  0  0.646458  0  4.059981  0  0  0.682892  0  4.049039  0  0  0.246571  0.621441  0  4.066913  0
C  C102  1  0.80808246  0.14870215  0.22321858  1  0  0.701143  0  3.751075  0  0  0.649265  0  4.055084  0  0  0.685638  0  4.044201  0  0  0.247525  0.624279  0  4.061994  0
C  C103  1  0.03134343  0.77683652  0.14875023  1  0  0.697658  0  3.754893  0  0  0.645371  0  4.060042  0  0  0.681708  0  4.049284  0  0  0.24652  0.620418  0  4.066863  0
C  C104  1  0.95680110  0.22315914  0.85134084  1  0  0.700266  0  3.752697  0  0  0.648205  0  4.05783  0  0  0.684606  0  4.046939  0  0  0.247108  0.623227  0  4.064691  0
C  C105  1  0.57180984  0.73038385  0.95055386  1  0  0.703795  0  3.693946  0  0  0.649373  0  3.996412  0  0  0.686446  0  3.984415  0  0  0.263098  0.623976  0  4.00404  0
C  C106  1  0.25301501  0.26963136  0.04940118  1  0  0.701543  0  3.696114  0  0  0.647822  0  3.999372  0  0  0.684819  0  3.987469  0  0  0.262047  0.622455  0  4.006964  0
C  C107  1  0.30230447  0.95058954  0.26950416  1  0  0.704375  0  3.690992  0  0  0.649243  0  3.99592  0  0  0.686196  0  3.984083  0  0  0.262994  0.623906  0  4.003458  0
C  C108  1  0.52242872  0.04939435  0.73044157  1  0  0.704109  0  3.691723  0  0  0.649395  0  3.995538  0  0  0.686251  0  3.983802  0  0  0.262594  0.624061  0  4.003095  0
O  O109  1  0.17203724  0.88170196  0.87472029  1  0  -0.722956  0  2.100944  0  0  -0.677071  0  2.379817  0  0  -0.712875  0  2.367869  0  0  -0.39062  -0.651469  0  2.387078  0
O  O110  1  0.92834610  0.11819741  0.12531696  1  0  -0.72295  0  2.101102  0  0  -0.677563  0  2.379959  0  0  -0.713402  0  2.368096  0  0  -0.391078  -0.651917  0  2.387146  0
O  O111  1  0.05379847  0.87471192  0.11830216  1  0  -0.721635  0  2.101027  0  0  -0.676451  0  2.380781  0  0  -0.712093  0  2.368667  0  0  -0.390795  -0.650888  0  2.388005  0
O  O112  1  0.04686725  0.12523600  0.88168260  1  0  -0.723484  0  2.100044  0  0  -0.677716  0  2.379031  0  0  -0.713434  0  2.366893  0  0  -0.390848  -0.652151  0  2.386396  0
O  O113  1  0.27636793  0.88476278  0.68415041  1  0  -0.578025  0  2.035006  0  0  -0.523137  0  2.268856  0  0  -0.548463  0  2.25835  0  0  -0.288273  -0.505726  0  2.275738  0
O  O114  1  0.84519938  0.11500618  0.31588553  1  0  -0.580116  0  2.030887  0  0  -0.524909  0  2.263765  0  0  -0.550257  0  2.253319  0  0  -0.288597  -0.507478  0  2.270624  0
O  O115  1  0.16111959  0.68415845  0.11513565  1  0  -0.579102  0  2.034552  0  0  -0.523683  0  2.267597  0  0  -0.549019  0  2.257188  0  0  -0.288305  -0.506263  0  2.274413  0
O  O116  1  0.96019622  0.31578869  0.88505277  1  0  -0.578507  0  2.034122  0  0  -0.523978  0  2.267405  0  0  -0.549322  0  2.25694  0  0  -0.287898  -0.506556  0  2.27425  0
O  O117  1  0.48529947  0.83054033  0.98534210  1  0  -0.679049  0  2.115828  0  0  -0.632292  0  2.389009  0  0  -0.665277  0  2.376824  0  0  -0.352497  -0.608862  0  2.396601  0
O  O118  1  0.30094577  0.16943193  0.01481806  1  0  -0.678605  0  2.115673  0  0  -0.631491  0  2.388307  0  0  -0.664394  0  2.37606  0  0  -0.352331  -0.608101  0  2.395954  0
O  O119  1  0.31585945  0.98540221  0.16938408  1  0  -0.680341  0  2.117681  0  0  -0.63233  0  2.390781  0  0  -0.66524  0  2.378568  0  0  -0.352855  -0.608939  0  2.398374  0
O  O120  1  0.47065445  0.01463757  0.83060583  1  0  -0.6797  0  2.115068  0  0  -0.632154  0  2.387977  0  0  -0.665027  0  2.375776  0  0  -0.352406  -0.608777  0  2.395627  0
O  O121  1  0.49318270  0.64847088  0.98317640  1  0  -0.532584  0  2.099153  0  0  -0.476364  0  2.324674  0  0  -0.500496  0  2.310822  0  0  -0.297725  -0.459885  0  2.333836  0
O  O122  1  0.12542329  0.35161527  0.01658930  1  0  -0.530806  0  2.102638  0  0  -0.47516  0  2.327955  0  0  -0.499216  0  2.314071  0  0  -0.296558  -0.458706  0  2.337139  0
O  O123  1  0.14179222  0.98325302  0.35149481  1  0  -0.531231  0  2.096182  0  0  -0.476118  0  2.323709  0  0  -0.500207  0  2.310001  0  0  -0.297286  -0.459622  0  2.332754  0
O  O124  1  0.47641687  0.01676304  0.64851484  1  0  -0.531274  0  2.098786  0  0  -0.475387  0  2.325338  0  0  -0.499427  0  2.311597  0  0  -0.296679  -0.45887  0  2.334371  0
