# generated using pymatgen
data_Zn4H6C25S4Cl2O15
_symmetry_space_group_name_H-M   'P 1'
_cell_length_a   19.63390012
_cell_length_b   19.68241663
_cell_length_c   33.28308097
_cell_angle_alpha   79.16664880
_cell_angle_beta   79.30941841
_cell_angle_gamma   64.07515425
_symmetry_Int_Tables_number   1
_chemical_formula_structural   Zn4H6C25S4Cl2O15
_chemical_formula_sum   'Zn16 H24 C100 S16 Cl8 O60'
_cell_volume   11283.51042827
_cell_formula_units_Z   4
loop_
 _symmetry_equiv_pos_site_id
 _symmetry_equiv_pos_as_xyz
  1  'x, y, z'
loop_
 _atom_site_type_symbol
 _atom_site_label
 _atom_site_symmetry_multiplicity
 _atom_site_fract_x
 _atom_site_fract_y
 _atom_site_fract_z
 _atom_site_occupancy
 _atom_site_pbe_bader_charge
 _atom_site_pbe_bader_spin_density
 _atom_site_pbe_cm5_charge
 _atom_site_pbe_ddec_charge
 _atom_site_pbe_ddec_spin_density
 _atom_site_pbe_ddec_sum_bond_order
 _atom_site_pbe_magmom
Zn  Zn0  1  0.05612515  0.40043372  0.47911309  1  1.320966  0  0.671981  0.972878  0  2.335328  0
Zn  Zn1  1  0.98501716  0.48382099  0.55998582  1  1.321249  0  0.673795  0.964906  0  2.387403  0
Zn  Zn2  1  0.05639050  0.56488203  0.48247464  1  1.321984  0  0.67941  0.978536  0  2.343168  0
Zn  Zn3  1  0.90002897  0.55501672  0.47888265  1  1.321956  0  0.679274  0.975685  0  2.357125  0
Zn  Zn4  1  0.69308875  0.35100671  0.27108528  1  1.316811  0  0.672264  0.969322  0  2.356148  0
Zn  Zn5  1  0.68610898  0.19337677  0.26684498  1  1.315251  0  0.671323  0.963366  0  2.37095  0
Zn  Zn6  1  0.77010126  0.26427817  0.18949008  1  1.322029  0  0.679835  0.980329  0  2.337978  0
Zn  Zn7  1  0.84611387  0.19622466  0.27311260  1  1.315484  0  0.671795  0.963002  0  2.377416  0
Zn  Zn8  1  0.26731648  0.76785090  0.68922880  1  1.309661  0  0.671847  0.961198  0  2.376066  0
Zn  Zn9  1  0.35026747  0.69697515  0.77042750  1  1.31603  0  0.673414  0.966978  0  2.374504  0
Zn  Zn10  1  0.19227573  0.84807232  0.77226622  1  1.322681  0  0.67915  0.97904  0  2.338854  0
Zn  Zn11  1  0.19330672  0.68668070  0.76646470  1  1.320531  0  0.672811  0.968722  0  2.364237  0
Zn  Zn12  1  0.56126929  0.05947207  0.98288318  1  1.316664  0  0.671973  0.964918  0  2.369289  0
Zn  Zn13  1  0.40103817  0.05600246  0.97793363  1  1.312625  0  0.672026  0.964202  0  2.363441  0
Zn  Zn14  1  0.55439638  0.90142038  0.97802984  1  1.320072  0  0.672368  0.966016  0  2.37489  0
Zn  Zn15  1  0.48450287  0.98184175  0.06030943  1  1.319293  0  0.672227  0.966914  0  2.363164  0
H  H16  1  0.95474262  0.25400585  0.34761578  1  0.079787  0  0.112655  0.118687  0  0.987666  0
H  H17  1  0.74069121  0.45003432  0.35699560  1  0.096449  0  0.115113  0.126523  0  0.98453  0
H  H18  1  0.00344397  0.30214694  0.39587280  1  0.130334  0  0.11432  0.120993  0  0.983589  0
H  H19  1  0.09333340  0.60277407  0.69955009  1  0.087147  0  0.114032  0.120511  0  0.985912  0
H  H20  1  0.21182254  0.69176383  0.59741105  1  0.12028  0  0.113808  0.126615  0  0.985752  0
H  H21  1  0.04564534  0.55559335  0.65032719  1  0.107997  0  0.11487  0.121835  0  0.984475  0
H  H22  1  0.46146970  0.24283690  0.34140528  1  0.084534  0  0.121066  0.146431  0  0.970058  0
H  H23  1  0.48041866  0.69524036  0.59937442  1  0.103605  0  0.123348  0.148895  0  0.966072  0
H  H24  1  0.20667739  0.98016944  0.60274198  1  0.122413  0  0.120782  0.146116  0  0.971805  0
H  H25  1  0.94576554  0.97010086  0.34534749  1  0.134902  0  0.121968  0.147858  0  0.968614  0
H  H26  1  0.55584682  0.04416226  0.15265495  1  0.125461  0  0.113894  0.119908  0  0.985684  0
H  H27  1  0.64224295  0.16200810  0.04895401  1  0.085873  0  0.114227  0.125978  0  0.988297  0
H  H28  1  0.60452919  0.09351183  0.20027234  1  0.108051  0  0.114707  0.121404  0  0.984093  0
H  H29  1  0.55163915  0.76841371  0.14820658  1  0.115964  0  0.121406  0.146817  0  0.969299  0
H  H30  1  0.16274984  0.14601051  0.04138022  1  0.11322  0  0.121986  0.148027  0  0.968353  0
H  H31  1  0.49655605  0.79431294  0.90206863  1  0.080863  0  0.114986  0.121494  0  0.983975  0
H  H32  1  0.30059601  0.00853987  0.89350338  1  0.104162  0  0.113326  0.125809  0  0.987743  0
H  H33  1  0.44744151  0.74762216  0.85335936  1  0.093115  0  0.1152  0.121887  0  0.981853  0
H  H34  1  0.30268527  0.28098334  0.90115910  1  0.118235  0  0.122385  0.147789  0  0.967718  0
H  H35  1  0.78568668  0.01009768  0.90556577  1  0.113392  0  0.122704  0.148479  0  0.96721  0
H  H36  1  0.78681424  0.57386526  0.36187850  1  0.606668  0  0.338347  0.371025  0  0.872349  0
H  H37  1  0.10807960  0.74840235  0.53372751  1  0.630796  0  0.338926  0.370973  0  0.872304  0
H  H38  1  0.78586492  0.14614549  0.07253933  1  0.587726  0  0.338924  0.370823  0  0.872127  0
H  H39  1  0.17697359  0.96670073  0.88976748  1  0.612566  0  0.337969  0.373729  0  0.86769  0
C  C40  1  0.06039043  0.31687588  0.56270485  1  1.581921  0  0.215291  0.620891  0  4.210072  0
C  C41  1  0.07006762  0.57053093  0.56844590  1  1.568403  0  0.230151  0.603995  0  4.169476  0
C  C42  1  0.18243264  0.44139881  0.43958617  1  1.583762  0  0.21688  0.623174  0  4.207572  0
C  C43  1  0.93370027  0.68576653  0.43829139  1  1.573716  0  0.214457  0.618243  0  4.219203  0
C  C44  1  0.93148847  0.43060191  0.43085917  1  1.576249  0  0.2307  0.60518  0  4.16799  0
C  C45  1  0.81800530  0.55992347  0.56208636  1  1.593247  0  0.216316  0.62129  0  4.209591  0
C  C46  1  0.56472707  0.31329512  0.31256565  1  1.568825  0  0.21844  0.611173  0  4.215366  0
C  C47  1  0.68111086  0.18069398  0.18072170  1  1.568316  0  0.230462  0.604806  0  4.171862  0
C  C48  1  0.68826751  0.43152108  0.18669237  1  1.552694  0  0.216441  0.622312  0  4.207221  0
C  C49  1  0.93678256  0.18907522  0.19130640  1  1.563158  0  0.214997  0.620436  0  4.21343  0
C  C50  1  0.81650560  0.32172635  0.32013862  1  1.566188  0  0.230163  0.604402  0  4.162982  0
C  C51  1  0.80792371  0.06658145  0.30992550  1  1.557829  0  0.218508  0.612112  0  4.213998  0
C  C52  1  0.43400466  0.68664110  0.68673295  1  1.583071  0  0.217878  0.609876  0  4.218885  0
C  C53  1  0.31841618  0.82054284  0.81863387  1  1.573764  0  0.230203  0.604696  0  4.170604  0
C  C54  1  0.19090560  0.93437521  0.68944615  1  1.552117  0  0.22014  0.612608  0  4.212338  0
C  C55  1  0.06525216  0.80645974  0.81012316  1  1.600904  0  0.215751  0.620738  0  4.211251  0
C  C56  1  0.18247966  0.67995389  0.68001527  1  1.55178  0  0.230109  0.605043  0  4.168285  0
C  C57  1  0.31607057  0.56750446  0.81237475  1  1.565539  0  0.214946  0.621616  0  4.208337  0
C  C58  1  0.43932372  0.18420536  0.93842396  1  1.600571  0  0.218587  0.613304  0  4.214732  0
C  C59  1  0.42938417  0.93212338  0.92993762  1  1.55786  0  0.230206  0.604667  0  4.16589  0
C  C60  1  0.68430117  0.93814950  0.93850807  1  1.568637  0  0.218152  0.610182  0  4.215265  0
C  C61  1  0.56151852  0.81514846  0.06116717  1  1.525001  0  0.218195  0.613064  0  4.214628  0
C  C62  1  0.56949183  0.06963571  0.06935627  1  1.557197  0  0.230138  0.605036  0  4.164918  0
C  C63  1  0.31642508  0.06067645  0.06127338  1  1.56256  0  0.218462  0.612198  0  4.215582  0
C  C64  1  0.89969407  0.40254001  0.40331622  1  -0.006996  0  -0.006139  -0.045795  0  3.936966  0
C  C65  1  0.84533105  0.34987986  0.34919336  1  -4.3e-05  0  -0.009375  -0.020323  0  3.964872  0
C  C66  1  0.82478956  0.44486171  0.39278722  1  -0.02345  0  -0.006076  -0.067002  0  3.974105  0
C  C67  1  0.91918989  0.30735024  0.36032963  1  0.010204  0  -0.074839  -0.084877  0  3.958067  0
C  C68  1  0.79844870  0.41837141  0.36546092  1  0.008104  0  -0.075499  -0.120488  0  3.93459  0
C  C69  1  0.94597097  0.33388217  0.38708839  1  -0.081146  0  -0.074273  -0.081739  0  3.962379  0
C  C70  1  0.10186674  0.59725482  0.59660208  1  0.014282  0  -0.004633  -0.042064  0  3.936701  0
C  C71  1  0.15444088  0.65080594  0.65110936  1  -0.027903  0  -0.009577  -0.019387  0  3.967626  0
C  C72  1  0.14935616  0.63538532  0.58113161  1  -0.083903  0  -0.006594  -0.069046  0  3.983114  0
C  C73  1  0.10832656  0.61173548  0.66641566  1  0.011593  0  -0.073941  -0.084822  0  3.954613  0
C  C74  1  0.17477586  0.66240026  0.60860776  1  -0.004418  0  -0.07634  -0.123995  0  3.943363  0
C  C75  1  0.08219860  0.58547357  0.63919695  1  -0.011646  0  -0.072539  -0.080435  0  3.956786  0
C  C76  1  0.30449012  0.45631082  0.40308184  1  0.191309  0  0.011731  0.100287  0  4.091119  0
C  C77  1  0.44488181  0.29916887  0.34984353  1  0.055791  0  -0.086912  -0.129964  0  3.958824  0
C  C78  1  0.25758429  0.41771707  0.41511753  1  -0.124319  0  -0.029975  -0.186216  0  3.941552  0
C  C79  1  0.49028736  0.33873283  0.33785721  1  -0.163778  0  -0.024685  -0.120044  0  3.978435  0
C  C80  1  0.37688059  0.34200580  0.37354338  1  -0.147888  0  -0.021266  0.002637  0  4.079894  0
C  C81  1  0.37242856  0.41306717  0.37920938  1  -0.165521  0  -0.027595  -0.082677  0  4.084424  0
C  C82  1  0.72649709  0.57531535  0.62995306  1  0.152229  0  0.008844  0.101025  0  4.090682  0
C  C83  1  0.52484831  0.66806628  0.61973935  1  0.08154  0  -0.084851  -0.127651  0  3.953737  0
C  C84  1  0.74366130  0.58272971  0.58725079  1  -0.148095  0  -0.028665  -0.189242  0  3.947411  0
C  C85  1  0.50912924  0.66040836  0.66222312  1  -0.211546  0  -0.024132  -0.118154  0  3.979277  0
C  C86  1  0.60430347  0.63645189  0.60780068  1  -0.123666  0  -0.019292  0.000838  0  4.074276  0
C  C87  1  0.64691732  0.60584152  0.64167542  1  -0.13278  0  -0.028952  -0.085091  0  4.095814  0
C  C88  1  0.07573349  0.22635624  0.63113521  1  0.208721  0  0.010786  0.102708  0  4.085147  0
C  C89  1  0.17689298  0.02491666  0.62263719  1  0.057015  0  -0.088503  -0.133838  0  3.965546  0
C  C90  1  0.08566871  0.24295780  0.58841327  1  -0.17069  0  -0.029713  -0.186008  0  3.943355  0
C  C91  1  0.16614609  0.00977298  0.66510858  1  -0.159302  0  -0.022597  -0.118541  0  3.974954  0
C  C92  1  0.14424668  0.10399629  0.61015743  1  -0.180368  0  -0.020554  0.003893  0  4.080318  0
C  C93  1  0.10928299  0.14703581  0.64355582  1  -0.148118  0  -0.028301  -0.087734  0  4.087178  0
C  C94  1  0.83876860  0.80168756  0.39590664  1  0.15506  0  0.009052  0.097692  0  4.093524  0
C  C95  1  0.90124953  0.94972263  0.35007679  1  0.066535  0  -0.086396  -0.129828  0  3.960735  0
C  C96  1  0.90767735  0.75951331  0.41240479  1  -0.143811  0  -0.03023  -0.1871  0  3.947434  0
C  C97  1  0.83228487  0.99116133  0.33420897  1  -0.196606  0  -0.024607  -0.117991  0  3.98004  0
C  C98  1  0.90395392  0.88032103  0.37238708  1  -0.191775  0  -0.021388  0.001453  0  4.079282  0
C  C99  1  0.83669153  0.87071692  0.37302715  1  -0.08473  0  -0.029128  -0.084591  0  4.087912  0
C  C100  1  0.65075928  0.15474579  0.15138638  1  -0.005752  0  -0.004991  -0.043155  0  3.935602  0
C  C101  1  0.59733645  0.09947643  0.09806303  1  0.024389  0  -0.00971  -0.019631  0  3.964245  0
C  C102  1  0.66144224  0.17502305  0.10852055  1  -0.030189  0  -0.006958  -0.067243  0  3.980604  0
C  C103  1  0.58565881  0.08052627  0.14071253  1  -0.030095  0  -0.073886  -0.083953  0  3.956239  0
C  C104  1  0.63499880  0.14672232  0.08218372  1  -0.012212  0  -0.076154  -0.123626  0  3.94279  0
C  C105  1  0.61241038  0.10801453  0.16702508  1  -0.064559  0  -0.073484  -0.081737  0  3.959876  0
C  C106  1  0.67068611  0.52243971  0.11830273  1  0.206952  0  0.011234  0.099097  0  4.092367  0
C  C107  1  0.57838695  0.72401149  0.12797090  1  -0.044235  0  -0.087356  -0.129757  0  3.960344  0
C  C108  1  0.66362352  0.50551449  0.16106456  1  -0.123839  0  -0.02915  -0.185811  0  3.941211  0
C  C109  1  0.58627134  0.73977219  0.08547654  1  -0.114049  0  -0.024792  -0.12143  0  3.98116  0
C  C110  1  0.60917800  0.64474244  0.14006182  1  -0.147423  0  -0.021304  0.001532  0  4.079094  0
C  C111  1  0.63966027  0.60203212  0.10638737  1  -0.100095  0  -0.027545  -0.082644  0  4.083338  0
C  C112  1  0.08461090  0.12222764  0.17955107  1  0.102841  0  0.009218  0.101145  0  4.090204  0
C  C113  1  0.17084946  0.12736251  0.07370754  1  0.040998  0  -0.087093  -0.131185  0  3.958399  0
C  C114  1  0.01218659  0.16364014  0.16693756  1  -0.075446  0  -0.030055  -0.187968  0  3.943604  0
C  C115  1  0.24222007  0.08590931  0.08692485  1  -0.18213  0  -0.02365  -0.1179  0  3.975563  0
C  C116  1  0.11315061  0.14081513  0.10748055  1  -0.178133  0  -0.021012  0.002093  0  4.0755  0
C  C117  1  0.14221534  0.10918092  0.14562396  1  -0.176109  0  -0.028741  -0.085313  0  4.09032  0
C  C118  1  0.34681098  0.85152086  0.84639858  1  0.023242  0  -0.004474  -0.042862  0  3.935814  0
C  C119  1  0.40074916  0.90382697  0.90088600  1  -0.038709  0  -0.009518  -0.021182  0  3.968218  0
C  C120  1  0.30471485  0.92581139  0.85736167  1  -0.05282  0  -0.006653  -0.067652  0  3.982111  0
C  C121  1  0.44296234  0.83039765  0.88947154  1  -0.011485  0  -0.072844  -0.082756  0  3.95204  0
C  C122  1  0.33190179  0.95114578  0.88480407  1  0.000589  0  -0.077164  -0.125093  0  3.945827  0
C  C123  1  0.41584410  0.80468152  0.86245649  1  0.007036  0  -0.072195  -0.07925  0  3.954366  0
C  C124  1  0.41015086  0.45007356  0.85456785  1  0.191749  0  0.009665  0.10127  0  4.089321  0
C  C125  1  0.34719135  0.30118894  0.89732426  1  0.075804  0  -0.086049  -0.127925  0  3.956148  0
C  C126  1  0.34199929  0.49286147  0.83742510  1  -0.14441  0  -0.029485  -0.188316  0  3.943629  0
C  C127  1  0.41545908  0.25941508  0.91387924  1  -0.199273  0  -0.023067  -0.119113  0  3.977664  0
C  C128  1  0.34513657  0.37081735  0.87561548  1  -0.175711  0  -0.019605  0.002838  0  4.075955  0
C  C129  1  0.41198726  0.38034721  0.87630809  1  -0.130957  0  -0.027931  -0.083189  0  4.085658  0
C  C130  1  0.94478396  0.79096734  0.84950646  1  0.125329  0  0.009256  0.100854  0  4.090589  0
C  C131  1  0.80303517  0.95237383  0.89900443  1  0.064176  0  -0.086879  -0.130317  0  3.957126  0
C  C132  1  0.99028153  0.83042908  0.83488152  1  -0.070813  0  -0.029885  -0.187388  0  3.944097  0
C  C133  1  0.75877578  0.91210165  0.91324086  1  -0.178734  0  -0.024033  -0.118826  0  3.978269  0
C  C134  1  0.87093572  0.90834846  0.87561216  1  -0.186381  0  -0.020593  0.002176  0  4.075553  0
C  C135  1  0.87661917  0.83548300  0.87271502  1  -0.14024  0  -0.029282  -0.086026  0  4.089293  0
C  C136  1  0.76849491  0.51485965  0.41231714  1  1.554901  0  0.229844  0.586066  0  4.132381  0
C  C137  1  0.17988479  0.64330573  0.53626671  1  1.551103  0  0.230021  0.586494  0  4.129662  0
C  C138  1  0.69455350  0.23154380  0.08943551  1  1.546028  0  0.229934  0.583953  0  4.132527  0
C  C139  1  0.23426973  0.98246709  0.83816787  1  1.57052  0  0.229167  0.58299  0  4.137872  0
S  S140  1  0.29706375  0.32883811  0.39745186  1  0.270318  0  0.081796  0.130372  0  2.7418  0
S  S141  1  0.45119315  0.42760998  0.35532263  1  0.301033  0  0.092424  0.145809  0  2.7618  0
S  S142  1  0.66250783  0.62627736  0.56167644  1  0.304848  0  0.105549  0.165377  0  2.731404  0
S  S143  1  0.58999612  0.61492466  0.68798364  1  0.296934  0  0.086795  0.139638  0  2.772967  0
S  S144  1  0.13615274  0.16144887  0.56372179  1  0.274334  0  0.085457  0.135827  0  2.740851  0
S  S145  1  0.11695825  0.09080737  0.69019356  1  0.299923  0  0.103668  0.164954  0  2.754523  0
S  S146  1  0.96966497  0.80407193  0.39962935  1  0.286642  0  0.091209  0.144476  0  2.741635  0
S  S147  1  0.77043846  0.94642885  0.34606387  1  0.295804  0  0.086225  0.138064  0  2.763858  0
S  S148  1  0.61887098  0.58672495  0.18632882  1  0.278589  0  0.085037  0.135761  0  2.742641  0
S  S149  1  0.63070908  0.65894645  0.05995985  1  0.290359  0  0.089978  0.143472  0  2.764407  0
S  S150  1  0.01500625  0.18646271  0.11363869  1  0.328093  0  0.091586  0.144579  0  2.739358  0
S  S151  1  0.24000200  0.06311225  0.14014802  1  0.337101  0  0.088234  0.142056  0  2.767264  0
S  S152  1  0.28062625  0.44754719  0.84798911  1  0.293656  0  0.090428  0.142993  0  2.741264  0
S  S153  1  0.47740801  0.30400075  0.90336236  1  0.284314  0  0.090516  0.14433  0  2.764034  0
S  S154  1  0.94943071  0.92174677  0.84956405  1  0.279818  0  0.09215  0.145271  0  2.739856  0
S  S155  1  0.79881847  0.82101453  0.89842417  1  0.290257  0  0.090199  0.144676  0  2.765872  0
Cl  Cl156  1  0.28655730  0.54356836  0.41482515  1  -0.1274  0  0.025296  -0.004845  0  1.529969  0
Cl  Cl157  1  0.79011922  0.53475415  0.66548356  1  -0.164933  0  0.00437  -0.033493  0  1.493548  0
Cl  Cl158  1  0.02979820  0.29024971  0.66604291  1  -0.144957  0  0.008673  -0.028538  0  1.495698  0
Cl  Cl159  1  0.76442888  0.77649817  0.40111004  1  -0.150769  0  0.013033  -0.021251  0  1.508798  0
Cl  Cl160  1  0.70985367  0.45864888  0.08329378  1  -0.141132  0  0.024067  -0.006088  0  1.526803  0
Cl  Cl161  1  0.10567318  0.08923459  0.22897154  1  -0.154856  0  0.00655  -0.030264  0  1.489343  0
Cl  Cl162  1  0.48466490  0.47453564  0.85078993  1  -0.1583  0  0.009309  -0.027389  0  1.490194  0
Cl  Cl163  1  0.96495206  0.70047363  0.84175986  1  -0.153089  0  0.007708  -0.029186  0  1.490557  0
O  O164  1  0.00012730  0.50034036  0.49958103  1  -1.234129  0  -0.571309  -1.034227  0  2.519894  0
O  O165  1  0.08073266  0.31514205  0.52384397  1  -1.15502  0  -0.320377  -0.548125  0  2.317191  0
O  O166  1  0.04278476  0.52233139  0.58465791  1  -1.16576  0  -0.308582  -0.533592  0  2.332494  0
O  O167  1  0.15445224  0.50619989  0.45254906  1  -1.156432  0  -0.311032  -0.532739  0  2.375365  0
O  O168  1  0.02065574  0.37585956  0.58098202  1  -1.161187  0  -0.314952  -0.53755  0  2.375471  0
O  O169  1  0.15183197  0.39391419  0.44549296  1  -1.176641  0  -0.323617  -0.553314  0  2.322029  0
O  O170  1  0.07174234  0.59924172  0.53077168  1  -1.160372  0  -0.303763  -0.539883  0  2.360773  0
O  O171  1  0.00250905  0.65846540  0.44681882  1  -1.167404  0  -0.318519  -0.543806  0  2.325032  0
O  O172  1  0.89461694  0.50039830  0.43662251  1  -1.163863  0  -0.30395  -0.538994  0  2.375825  0
O  O173  1  0.88633691  0.65587942  0.45007824  1  -1.155606  0  -0.314068  -0.538272  0  2.370015  0
O  O174  1  0.99280302  0.38328630  0.44559126  1  -1.168983  0  -0.308854  -0.537238  0  2.317988  0
O  O175  1  0.87713825  0.53409631  0.58079157  1  -1.165391  0  -0.317015  -0.542803  0  2.369198  0
O  O176  1  0.81615271  0.56891110  0.52308791  1  -1.159284  0  -0.314186  -0.535567  0  2.331364  0
O  O177  1  0.74858507  0.25150379  0.24999807  1  -1.23197  0  -0.570279  -1.031513  0  2.520619  0
O  O178  1  0.59587872  0.36026065  0.30379642  1  -1.164304  0  -0.31931  -0.546247  0  2.330661  0
O  O179  1  0.65419965  0.17537419  0.21848431  1  -1.171471  0  -0.308667  -0.535516  0  2.330497  0
O  O180  1  0.72208900  0.37197340  0.16839853  1  -1.156537  0  -0.310367  -0.532561  0  2.367208  0
O  O181  1  0.59163190  0.24670738  0.30155499  1  -1.167671  0  -0.317345  -0.538653  0  2.315561  0
O  O182  1  0.67326220  0.43427840  0.22572993  1  -1.163563  0  -0.321967  -0.550039  0  2.331009  0
O  O183  1  0.73229245  0.20472257  0.16544849  1  -1.161133  0  -0.304282  -0.540299  0  2.362704  0
O  O184  1  0.87986014  0.22572777  0.17049229  1  -1.168581  0  -0.318562  -0.545112  0  2.328908  0
O  O185  1  0.85954922  0.25543178  0.30988244  1  -1.170898  0  -0.312528  -0.543656  0  2.339896  0
O  O186  1  0.93421578  0.17286539  0.23031465  1  -1.13656  0  -0.314884  -0.539776  0  2.362315  0
O  O187  1  0.75179980  0.36606131  0.30804354  1  -1.173313  0  -0.310619  -0.539813  0  2.328839  0
O  O188  1  0.74238386  0.09366664  0.29709029  1  -1.171855  0  -0.32152  -0.549236  0  2.331042  0
O  O189  1  0.85416471  0.09818268  0.30397798  1  -1.155908  0  -0.315876  -0.537577  0  2.316247  0
O  O190  1  0.25036653  0.75019889  0.74965525  1  -1.22872  0  -0.570832  -1.031582  0  2.522738  0
O  O191  1  0.37563771  0.72294112  0.66722387  1  -1.17001  0  -0.315698  -0.536976  0  2.311119  0
O  O192  1  0.36702138  0.76139416  0.80261293  1  -1.164921  0  -0.308125  -0.533969  0  2.330638  0
O  O193  1  0.17458953  0.93344077  0.72853947  1  -1.144599  0  -0.313971  -0.537004  0  2.335539  0
O  O194  1  0.43426573  0.67056400  0.72585564  1  -1.169545  0  -0.319656  -0.545549  0  2.343599  0
O  O195  1  0.22602513  0.87685937  0.66936189  1  -1.168553  0  -0.317988  -0.542355  0  2.317001  0
O  O196  1  0.24778554  0.85521559  0.81396444  1  -1.170033  0  -0.303831  -0.540552  0  2.363487  0
O  O197  1  0.09272150  0.85647422  0.80128677  1  -1.166497  0  -0.31864  -0.544438  0  2.32997  0
O  O198  1  0.16799522  0.66146191  0.71840910  1  -1.162478  0  -0.311259  -0.54208  0  2.337818  0
O  O199  1  0.09615698  0.73931948  0.79980091  1  -1.16886  0  -0.315455  -0.540706  0  2.362466  0
O  O200  1  0.21831190  0.72087951  0.66378023  1  -1.166574  0  -0.312014  -0.542349  0  2.338625  0
O  O201  1  0.35925321  0.60245465  0.80593305  1  -1.141355  0  -0.314945  -0.540259  0  2.361927  0
O  O202  1  0.25120240  0.59064190  0.79924695  1  -1.170874  0  -0.319414  -0.545682  0  2.330218  0
O  O203  1  0.49990610  0.00011317  0.99984492  1  -1.230765  0  -0.570204  -1.029679  0  2.524306  0
O  O204  1  0.50602070  0.15604925  0.94992759  1  -1.173879  0  -0.320143  -0.547725  0  2.338678  0
O  O205  1  0.38595866  0.99771949  0.94102379  1  -1.168298  0  -0.313361  -0.544382  0  2.334276  0
O  O206  1  0.65263925  0.89164922  0.94672801  1  -1.155574  0  -0.318706  -0.544628  0  2.337337  0
O  O207  1  0.39184722  0.15385234  0.94605791  1  -1.181324  0  -0.316184  -0.539539  0  2.310777  0
O  O208  1  0.65802947  0.00428394  0.94997791  1  -1.169688  0  -0.31674  -0.538427  0  2.309875  0
O  O209  1  0.49484824  0.88815294  0.94119212  1  -1.170565  0  -0.31027  -0.540129  0  2.340189  0
O  O210  1  0.57463678  0.81580488  0.02197450  1  -1.1429  0  -0.319878  -0.54648  0  2.338395  0
O  O211  1  0.53153612  0.03082980  0.08578850  1  -1.151368  0  -0.311471  -0.543646  0  2.334204  0
O  O212  1  0.52934375  0.87302921  0.08106214  1  -1.169693  0  -0.317894  -0.54174  0  2.309458  0
O  O213  1  0.58632654  0.08536885  0.03089255  1  -1.174048  0  -0.312155  -0.542102  0  2.336033  0
O  O214  1  0.31555044  0.07779015  0.02234459  1  -1.141319  0  -0.315951  -0.538751  0  2.30943  0
O  O215  1  0.37519287  0.02367235  0.08059370  1  -1.178191  0  -0.319821  -0.547689  0  2.336332  0
O  O216  1  0.75221868  0.58245148  0.38746064  1  -1.094983  0  -0.341409  -0.480267  0  2.201057  0
O  O217  1  0.73432358  0.51246239  0.44646504  1  -1.110501  0  -0.279244  -0.439404  0  2.038273  0
O  O218  1  0.15032809  0.71530342  0.51590868  1  -1.122171  0  -0.341674  -0.47795  0  2.18701  0
O  O219  1  0.23147600  0.59187223  0.51948837  1  -1.095612  0  -0.277329  -0.440541  0  2.056926  0
O  O220  1  0.76568596  0.20162975  0.06816322  1  -1.078196  0  -0.340873  -0.476372  0  2.187307  0
O  O221  1  0.65946227  0.29974122  0.08957208  1  -1.086909  0  -0.277426  -0.439584  0  2.059231  0
O  O222  1  0.16743168  0.00040657  0.86387550  1  -1.098046  0  -0.34067  -0.480719  0  2.183616  0
O  O223  1  0.23570442  0.01529229  0.80357280  1  -1.107585  0  -0.278254  -0.438044  0  2.040331  0
