# generated using pymatgen
data_MnH6C9O7
_symmetry_space_group_name_H-M   'P 1'
_cell_length_a   8.50996088
_cell_length_b   9.63656726
_cell_length_c   11.09126476
_cell_angle_alpha   91.21028845
_cell_angle_beta   89.99726816
_cell_angle_gamma   90.00617355
_symmetry_Int_Tables_number   1
_chemical_formula_structural   MnH6C9O7
_chemical_formula_sum   'Mn4 H24 C36 O28'
_cell_volume   909.35632391
_cell_formula_units_Z   4
loop_
 _symmetry_equiv_pos_site_id
 _symmetry_equiv_pos_as_xyz
  1  'x, y, z'
loop_
 _atom_site_type_symbol
 _atom_site_label
 _atom_site_symmetry_multiplicity
 _atom_site_fract_x
 _atom_site_fract_y
 _atom_site_fract_z
 _atom_site_occupancy
 _atom_site_hle17_ddec_charge
 _atom_site_hle17_ddec_spin_density
 _atom_site_hle17_ddec_sum_bond_order
 _atom_site_hle17_magmom
 _atom_site_hse06_10hf_ddec_charge
 _atom_site_hse06_10hf_ddec_spin_density
 _atom_site_hse06_10hf_ddec_sum_bond_order
 _atom_site_hse06_10hf_magmom
 _atom_site_hse06_ddec_charge
 _atom_site_hse06_ddec_spin_density
 _atom_site_hse06_ddec_sum_bond_order
 _atom_site_hse06_magmom
 _atom_site_pbe_cm5_charge
 _atom_site_pbe_ddec_charge
 _atom_site_pbe_ddec_spin_density
 _atom_site_pbe_ddec_sum_bond_order
 _atom_site_pbe_magmom
Mn  Mn0  1  0.51042825  0.21265117  0.13348488  1  1.288048  4.806079  1.627812  4.693  1.129511  4.735043  2.124089  4.556  1.187589  4.775376  2.049224  4.616  0.618454  1.092024  4.678463  2.17758  4.479
Mn  Mn1  1  0.01040204  0.28728430  0.86651833  1  1.28807  4.806117  1.627553  4.693  1.129551  4.735151  2.123697  4.556  1.187645  4.77544  2.04884  4.616  0.618445  1.092045  4.678648  2.17718  4.479
Mn  Mn2  1  0.48952259  0.78741188  0.86651046  1  1.288286  4.805907  1.628652  4.693  1.129923  4.73458  2.125135  4.556  1.187946  4.775005  2.050244  4.616  0.618696  1.092608  4.677656  2.178608  4.478
Mn  Mn3  1  0.98957229  0.71264477  0.13348150  1  1.288076  4.806091  1.627861  4.693  1.129554  4.735033  2.124195  4.556  1.187619  4.775368  2.049336  4.616  0.618488  1.092081  4.678439  2.17768  4.479
H  H4  1  0.47915652  0.40662962  0.71029796  1  0.120847  -0.000265  0.93491  0.0  0.128712  -0.000209  0.994885  0.0  0.133074  -0.000251  0.991967  0.0  0.11344  0.124885  -0.000157  0.998032  0.0
H  H5  1  0.97914459  0.09330676  0.28970018  1  0.120857  -0.000276  0.934854  0.0  0.128697  -0.00021  0.994848  0.0  0.133024  -0.000251  0.991968  0.0  0.11355  0.124885  -0.000157  0.99795  0.0
H  H6  1  0.52087305  0.59335291  0.28974840  1  0.120997  -0.000261  0.935237  0.0  0.128864  -0.000209  0.995222  0.0  0.133218  -0.00025  0.992313  0.0  0.113563  0.125051  -0.000157  0.998332  0.0
H  H7  1  0.02081682  0.90670466  0.71027122  1  0.120787  -0.000263  0.935098  0.0  0.12862  -0.00021  0.995146  0.0  0.132959  -0.000251  0.992229  0.0  0.113409  0.12479  -0.000157  0.998299  0.0
H  H8  1  0.52328813  0.31697384  0.50233647  1  0.102587  -0.000189  0.949109  0.0  0.112422  -0.000121  1.008973  0.0  0.114806  -0.000166  1.009391  0.0  0.109027  0.1106  1.5e-05  1.008912  0.0
H  H9  1  0.02328141  0.18303053  0.49765008  1  0.102622  -0.000187  0.949242  0.0  0.112397  -0.000121  1.00913  0.0  0.114752  -0.000166  1.009629  0.0  0.109047  0.110576  1.6e-05  1.009067  0.0
H  H10  1  0.47673556  0.68305680  0.49767873  1  0.102535  -0.000189  0.948734  0.0  0.112391  -0.000121  1.008616  0.0  0.114759  -0.000166  1.009084  0.0  0.108999  0.110557  1.5e-05  1.008558  0.0
H  H11  1  0.97667765  0.81697163  0.50231386  1  0.102513  -0.000181  0.949554  0.0  0.112525  -0.000121  1.009207  0.0  0.114896  -0.000166  1.009656  0.0  0.109092  0.110701  1.6e-05  1.009143  0.0
H  H12  1  0.26077571  0.02020181  0.15016733  1  0.445844  -0.000426  0.84707  0.001  0.4125  0.000149  0.913522  0.002  0.423527  -0.000114  0.89766  0.001  0.303916  0.405543  0.000446  0.923432  0.002
H  H13  1  0.76079601  0.47980710  0.84984824  1  0.445794  -0.000425  0.847134  0.001  0.412423  0.00015  0.91364  0.002  0.423451  -0.000114  0.897775  0.001  0.303874  0.405466  0.000447  0.923549  0.002
H  H14  1  0.73920450  0.97976901  0.84981379  1  0.44586  -0.000425  0.847101  0.001  0.412566  0.000149  0.91347  0.002  0.423588  -0.000114  0.897617  0.001  0.30394  0.405622  0.000446  0.923362  0.002
H  H15  1  0.23922885  0.52021202  0.15017567  1  0.44592  -0.000425  0.847002  0.001  0.412616  0.000149  0.913389  0.002  0.423636  -0.000114  0.897535  0.001  0.303986  0.405668  0.000446  0.923286  0.002
H  H16  1  0.31026649  0.03569323  0.01017490  1  0.425551  -0.000757  0.880578  0.001  0.391682  -1.6e-05  0.94789  0.001  0.403505  -0.000346  0.930946  0.001  0.301012  0.383331  0.000284  0.959865  0.002
H  H17  1  0.81029041  0.46430590  0.98983493  1  0.425567  -0.000755  0.880561  0.001  0.391637  -1.6e-05  0.947984  0.001  0.403472  -0.000346  0.931017  0.001  0.300893  0.383285  0.000284  0.95996  0.002
H  H18  1  0.68971372  0.96429208  0.98980932  1  0.42552  -0.000754  0.880636  0.001  0.391662  -1.5e-05  0.947926  0.001  0.403489  -0.000345  0.930975  0.001  0.300975  0.383319  0.000285  0.959889  0.002
H  H19  1  0.18971917  0.53569251  0.01018481  1  0.425475  -0.000756  0.880702  0.001  0.391636  -1.6e-05  0.947948  0.001  0.403469  -0.000347  0.93099  0.001  0.300928  0.383283  0.000283  0.959924  0.002
H  H20  1  0.63466556  0.31722745  0.93250933  1  0.432797  -0.000586  0.86602  0.001  0.401978  0.000176  0.928647  0.002  0.413168  -0.000152  0.912459  0.002  0.299263  0.394437  0.00047  0.939443  0.002
H  H21  1  0.13464648  0.18277175  0.06749091  1  0.43281  -0.000587  0.866033  0.001  0.401953  0.000176  0.928688  0.002  0.41314  -0.000152  0.912508  0.002  0.299268  0.394409  0.00047  0.939485  0.002
H  H22  1  0.36536283  0.68275548  0.06750188  1  0.432732  -0.000587  0.86614  0.001  0.401899  0.000176  0.928745  0.002  0.413082  -0.000152  0.912572  0.002  0.299228  0.39437  0.00047  0.939518  0.002
H  H23  1  0.86534548  0.81720611  0.93250934  1  0.432896  -0.000587  0.865896  0.001  0.402059  0.000175  0.928541  0.002  0.413247  -0.000153  0.912357  0.002  0.299292  0.394519  0.000469  0.939335  0.002
H  H24  1  0.50825136  0.21154591  0.87745244  1  0.446222  0.000323  0.837049  0.002  0.416117  0.000931  0.898265  0.003  0.425116  0.000631  0.885164  0.002  0.314783  0.410826  0.001178  0.906066  0.003
H  H25  1  0.00825459  0.28844008  0.12256484  1  0.446188  0.000326  0.837082  0.002  0.416086  0.000932  0.898291  0.003  0.425091  0.000632  0.88518  0.002  0.314757  0.410798  0.001179  0.906086  0.003
H  H26  1  0.49175588  0.78846307  0.12255135  1  0.446564  0.000325  0.836598  0.002  0.416388  0.00093  0.897952  0.003  0.425392  0.00063  0.884838  0.002  0.314783  0.411113  0.001176  0.905728  0.003
H  H27  1  0.99175030  0.71156386  0.87742529  1  0.446266  0.000323  0.83705  0.002  0.416166  0.00093  0.898245  0.003  0.425168  0.00063  0.885138  0.002  0.314754  0.41088  0.001177  0.906038  0.003
C  C28  1  0.34702690  0.32586856  0.31395574  1  0.658129  0.005351  3.894761  0.003  0.603356  0.009878  4.195963  0.007  0.639259  0.007765  4.186813  0.005  0.215444  0.579552  0.012237  4.199575  0.008
C  C29  1  0.84700037  0.17412901  0.68604184  1  0.658676  0.005356  3.894152  0.003  0.60361  0.00988  4.195628  0.007  0.639505  0.007765  4.186471  0.005  0.21551  0.579852  0.01224  4.199256  0.008
C  C30  1  0.65302616  0.67416332  0.68604236  1  0.658619  0.005356  3.89417  0.003  0.603701  0.009901  4.195581  0.007  0.639613  0.007779  4.18642  0.005  0.215628  0.579922  0.012265  4.199188  0.008
C  C31  1  0.15299746  0.82584997  0.31395213  1  0.658876  0.00534  3.893481  0.003  0.603865  0.009879  4.194968  0.007  0.639755  0.007763  4.185812  0.005  0.215701  0.580092  0.012237  4.198606  0.008
C  C32  1  0.29671695  0.37720730  0.43670112  1  -0.04157  -0.003582  3.665993  -0.002  -0.030201  -0.002114  3.90613  -0.002  -0.032911  -0.003012  3.922703  -0.002  0.003057  -0.030229  -8e-05  3.896733  0.0
C  C33  1  0.79671879  0.12278870  0.56328840  1  -0.041735  -0.003577  3.666266  -0.002  -0.03003  -0.002112  3.906023  -0.002  -0.032688  -0.003011  3.922525  -0.002  0.003121  -0.030242  -7.7e-05  3.896872  0.0
C  C34  1  0.70332671  0.62278945  0.56328251  1  -0.041559  -0.003571  3.665588  -0.002  -0.030144  -0.002104  3.905624  -0.002  -0.032851  -0.003004  3.922192  -0.002  0.00322  -0.03029  -5.7e-05  3.896381  0.0
C  C35  1  0.20326612  0.87720366  0.43671494  1  -0.04176  -0.003511  3.666389  -0.002  -0.030209  -0.002111  3.906417  -0.002  -0.03283  -0.003001  3.922875  -0.002  0.003083  -0.030398  -7.4e-05  3.897234  0.0
C  C36  1  0.15135944  0.43821793  0.46759844  1  -0.042127  0.002242  3.699503  0.002  -0.044724  0.003749  3.944558  0.003  -0.047186  0.002208  3.962705  0.002  -0.002096  -0.043801  0.008821  3.93467  0.007
C  C37  1  0.65135346  0.06178498  0.53239766  1  -0.042342  0.002231  3.699522  0.002  -0.044981  0.003746  3.944512  0.003  -0.047463  0.002204  3.962659  0.002  -0.002132  -0.043994  0.0088  3.934635  0.007
C  C38  1  0.84867834  0.56175994  0.53240181  1  -0.042757  0.00222  3.69949  0.002  -0.04513  0.003757  3.944359  0.003  -0.0476  0.002206  3.962513  0.002  -0.002215  -0.044175  0.008839  3.934493  0.007
C  C39  1  0.34862205  0.93822422  0.46758630  1  -0.042464  0.002202  3.699214  0.002  -0.045124  0.003747  3.944465  0.003  -0.047617  0.002198  3.962604  0.002  -0.002224  -0.044145  0.008802  3.934593  0.007
C  C40  1  0.12822866  0.49406100  0.58526703  1  -0.043798  -0.00046  3.708355  0.0  -0.045457  0.000974  3.952228  0.0  -0.049271  4.7e-05  3.971864  0.0  -0.000213  -0.042887  0.003822  3.941442  0.002
C  C41  1  0.62821494  0.00592935  0.41472781  1  -0.043664  -0.000397  3.708094  0.0  -0.045365  0.000973  3.95201  0.0  -0.049179  5e-05  3.971655  0.0  -0.000304  -0.042793  0.003818  3.941199  0.002
C  C42  1  0.87180208  0.50592634  0.41472266  1  -0.043259  -0.000411  3.708152  0.0  -0.04518  0.000978  3.951983  0.001  -0.048984  5.5e-05  3.971603  0.0  -0.000298  -0.042615  0.003837  3.941192  0.002
C  C43  1  0.37176057  0.99405792  0.58526728  1  -0.04339  -0.000387  3.708146  0.0  -0.045163  0.000972  3.951921  0.0  -0.048973  5.8e-05  3.971555  0.0  -0.000214  -0.042602  0.003816  3.94112  0.002
C  C44  1  0.24723767  0.48404591  0.67239329  1  -0.041884  0.001513  3.676409  0.001  -0.031562  0.00268  3.920838  0.002  -0.033882  0.00198  3.936732  0.002  0.010288  -0.031401  0.00287  3.911815  0.002
C  C45  1  0.74721407  0.01596620  0.32759312  1  -0.041881  0.001457  3.676601  0.001  -0.03135  0.00268  3.920863  0.002  -0.033666  0.00198  3.936757  0.002  0.010356  -0.031189  0.002862  3.91184  0.002
C  C46  1  0.75280129  0.51595810  0.32759053  1  -0.041907  0.001482  3.676291  0.001  -0.031179  0.002676  3.920339  0.002  -0.033498  0.001975  3.936223  0.002  0.010486  -0.03101  0.002845  3.911315  0.002
C  C47  1  0.25275674  0.98405003  0.67241177  1  -0.042113  0.001457  3.67671  0.001  -0.031382  0.002679  3.920603  0.002  -0.033703  0.001978  3.936499  0.002  0.010343  -0.031209  0.00286  3.911573  0.002
C  C48  1  0.38742434  0.41650182  0.64273414  1  -0.044618  -0.000494  3.679598  0.0  -0.074874  0.000869  3.941534  0.001  -0.074785  -0.000192  3.957975  0.0  -0.070657  -0.077019  0.0039  3.93379  0.003
C  C49  1  0.88741060  0.08350274  0.35725850  1  -0.044738  -0.000424  3.679457  0.0  -0.07501  0.000868  3.941395  0.001  -0.074912  -0.00019  3.957828  0.0  -0.070823  -0.077121  0.003899  3.933596  0.003
C  C50  1  0.61263225  0.58352791  0.35727021  1  -0.045041  -0.000489  3.679981  0.0  -0.075505  0.000877  3.942058  0.001  -0.075424  -0.000187  3.958509  0.0  -0.071028  -0.07764  0.003922  3.934296  0.003
C  C51  1  0.11256961  0.91648974  0.64273403  1  -0.044501  -0.000431  3.679445  0.0  -0.074937  0.000872  3.941456  0.001  -0.07483  -0.000186  3.957894  0.0  -0.070697  -0.077069  0.003905  3.933676  0.003
C  C52  1  0.41163998  0.36527488  0.52622452  1  -0.052359  0.001571  3.713463  0.001  -0.077123  0.00194  3.968814  0.002  -0.07866  0.00169  3.98919  0.002  -0.071836  -0.075755  0.002034  3.956662  0.001
C  C53  1  0.91164406  0.13471853  0.47376509  1  -0.052275  0.001545  3.713604  0.001  -0.077039  0.00194  3.96884  0.002  -0.078604  0.001688  3.98919  0.002  -0.071816  -0.075603  0.002023  3.956709  0.001
C  C54  1  0.58839311  0.63476435  0.47376656  1  -0.051975  0.001571  3.712479  0.001  -0.076805  0.001935  3.967977  0.002  -0.078351  0.001688  3.988347  0.002  -0.071701  -0.075394  0.002002  3.955851  0.001
C  C55  1  0.08831030  0.86529167  0.52622251  1  -0.052287  0.001507  3.713943  0.001  -0.077188  0.00194  3.96922  0.002  -0.078751  0.001685  3.989568  0.002  -0.071918  -0.07575  0.00202  3.957082  0.001
C  C56  1  0.23202328  0.54092764  0.79907661  1  0.710975  0.010359  3.853352  0.012  0.650274  0.016757  4.156075  0.017  0.687984  0.012909  4.144117  0.014  0.242898  0.626254  0.020151  4.160714  0.02
C  C57  1  0.73200460  0.95908388  0.20091124  1  0.710708  0.010345  3.853179  0.012  0.649728  0.016753  4.156257  0.017  0.687421  0.012905  4.144324  0.014  0.242714  0.62569  0.020156  4.160918  0.02
C  C58  1  0.76798279  0.45908669  0.20091290  1  0.710762  0.010375  3.853481  0.012  0.649873  0.016771  4.156326  0.017  0.687571  0.012917  4.14438  0.014  0.242771  0.625842  0.020177  4.160973  0.02
C  C59  1  0.26797326  0.04089810  0.79909273  1  0.710489  0.010375  3.853802  0.012  0.649667  0.01679  4.156451  0.017  0.687356  0.012934  4.144521  0.014  0.242788  0.625633  0.0202  4.161095  0.02
C  C60  1  0.01980315  0.43526381  0.38130567  1  0.40891  0.000559  3.734289  0.0  0.38114  0.002763  4.007369  0.002  0.406192  0.000542  4.004862  0.0  0.1618  0.359551  0.011607  4.015789  0.008
C  C61  1  0.51978869  0.06474197  0.61871081  1  0.408743  0.000547  3.734192  0.0  0.380939  0.002759  4.007303  0.002  0.40598  0.000539  4.004823  0.0  0.161839  0.359366  0.011578  4.015684  0.008
C  C62  1  0.98020996  0.56473631  0.61874567  1  0.409527  0.000561  3.733071  0.0  0.381589  0.002777  4.006205  0.002  0.406651  0.000547  4.003715  0.0  0.162047  0.359986  0.011659  4.014639  0.008
C  C63  1  0.48017037  0.93526240  0.38124237  1  0.409711  0.000527  3.732435  0.0  0.381642  0.002763  4.00594  0.002  0.406685  0.000544  4.003467  0.0  0.162336  0.360068  0.011593  4.014336  0.008
O  O64  1  0.41038901  0.20542344  0.31038823  1  -0.649993  0.030439  2.019252  0.02  -0.587154  0.031395  2.28131  0.017  -0.622703  0.029406  2.274182  0.015  -0.303692  -0.55751  0.03026  2.283187  0.015
O  O65  1  0.91038268  0.29458024  0.68960081  1  -0.650073  0.030427  2.019082  0.02  -0.58713  0.031389  2.281179  0.017  -0.622687  0.029399  2.274079  0.015  -0.303642  -0.557476  0.030259  2.283034  0.015
O  O66  1  0.58955360  0.79456112  0.68966179  1  -0.650356  0.030479  2.019905  0.02  -0.587356  0.031413  2.282008  0.017  -0.622916  0.029438  2.274863  0.015  -0.3037  -0.557665  0.030221  2.283857  0.015
O  O67  1  0.08958695  0.70541540  0.31038910  1  -0.650231  0.030448  2.019107  0.02  -0.587314  0.031396  2.281315  0.017  -0.62285  0.02941  2.274148  0.015  -0.303691  -0.557649  0.030254  2.283171  0.015
O  O68  1  0.34780990  0.40189542  0.22164921  1  -0.644071  0.016819  1.994844  0.01  -0.587142  0.024838  2.234183  0.017  -0.61543  0.022021  2.22137  0.015  -0.296217  -0.56719  0.027478  2.242244  0.019
O  O69  1  0.84776380  0.09811966  0.77836594  1  -0.644437  0.016853  1.994686  0.011  -0.587429  0.024865  2.234192  0.017  -0.615708  0.022046  2.221344  0.015  -0.296323  -0.567467  0.027508  2.242239  0.019
O  O70  1  0.65217972  0.59818692  0.77838452  1  -0.644429  0.016827  1.994443  0.01  -0.587512  0.024838  2.233957  0.017  -0.615808  0.022026  2.22114  0.015  -0.296541  -0.567541  0.027471  2.242  0.019
O  O71  1  0.15220818  0.90186243  0.22162811  1  -0.644433  0.016835  1.994395  0.01  -0.587459  0.024846  2.23396  0.017  -0.615725  0.022029  2.221089  0.015  -0.296438  -0.567497  0.027485  2.242008  0.019
O  O72  1  0.16181744  0.46606530  0.87714634  1  -0.665228  0.036121  2.073413  0.023  -0.590844  0.045625  2.332872  0.029  -0.622556  0.040416  2.315595  0.025  -0.295117  -0.568727  0.050619  2.344005  0.034
O  O73  1  0.66177335  0.03392414  0.12284360  1  -0.664979  0.036142  2.072916  0.023  -0.590465  0.045628  2.332482  0.029  -0.622152  0.04042  2.315192  0.025  -0.29507  -0.568366  0.050627  2.34363  0.034
O  O74  1  0.83823915  0.53393541  0.12285453  1  -0.664964  0.036152  2.073299  0.023  -0.59052  0.045651  2.332901  0.029  -0.622213  0.040442  2.315595  0.025  -0.295049  -0.568413  0.050648  2.344046  0.034
O  O75  1  0.33823859  0.96602497  0.87712973  1  -0.664743  0.036193  2.073088  0.023  -0.590404  0.045696  2.332717  0.029  -0.622072  0.040484  2.315395  0.025  -0.295135  -0.568306  0.050699  2.343869  0.034
O  O76  1  0.29890153  0.65412427  0.82552178  1  -0.644589  0.032079  2.052244  0.018  -0.581071  0.041176  2.327446  0.024  -0.612793  0.03634  2.312394  0.02  -0.299749  -0.558229  0.046336  2.336273  0.029
O  O77  1  0.79886257  0.84588276  0.17450400  1  -0.644501  0.032052  2.052171  0.018  -0.580826  0.041148  2.32737  0.024  -0.612538  0.036311  2.312327  0.02  -0.299675  -0.557966  0.046299  2.336195  0.029
O  O78  1  0.70117856  0.34585623  0.17452002  1  -0.644551  0.032057  2.052363  0.018  -0.580829  0.041152  2.327376  0.024  -0.612534  0.036317  2.31232  0.02  -0.299646  -0.557972  0.046301  2.3362  0.029
O  O79  1  0.20114466  0.15409407  0.82549622  1  -0.644486  0.032067  2.0527  0.018  -0.580805  0.041161  2.32776  0.024  -0.612513  0.036324  2.312713  0.02  -0.299667  -0.557934  0.046311  2.336577  0.029
O  O80  1  0.02995718  0.36758688  0.28480566  1  -0.469879  0.000855  2.012461  0.001  -0.417467  0.003378  2.230027  0.004  -0.434101  0.001294  2.224383  0.002  -0.237454  -0.412282  0.012645  2.239047  0.014
O  O81  1  0.52992264  0.13244594  0.71520035  1  -0.469637  0.000865  2.012365  0.001  -0.417206  0.003367  2.229908  0.004  -0.433834  0.001295  2.224263  0.002  -0.23736  -0.412005  0.012596  2.238919  0.014
O  O82  1  0.97006650  0.63244547  0.71524205  1  -0.470141  0.000864  2.012136  0.001  -0.417622  0.003379  2.229702  0.004  -0.434249  0.001296  2.224036  0.002  -0.237543  -0.412405  0.012654  2.238637  0.014
O  O83  1  0.47005639  0.86752718  0.28476190  1  -0.470338  0.00088  2.012271  0.001  -0.417599  0.003368  2.229792  0.004  -0.434231  0.001295  2.22413  0.002  -0.237649  -0.412345  0.012597  2.238681  0.014
O  O84  1  0.29893932  0.08815849  0.08950733  1  -0.855295  0.030506  1.937066  0.019  -0.781789  0.039613  2.143317  0.025  -0.808457  0.035226  2.106352  0.022  -0.548532  -0.761722  0.043123  2.167938  0.028
O  O85  1  0.79895708  0.41184279  0.91049307  1  -0.855194  0.030486  1.936928  0.019  -0.781709  0.039596  2.143264  0.025  -0.808376  0.035211  2.106294  0.022  -0.548445  -0.761639  0.043109  2.167879  0.028
O  O86  1  0.70102679  0.91183209  0.91047072  1  -0.855354  0.030521  1.937247  0.019  -0.781935  0.039644  2.143538  0.025  -0.808594  0.035256  2.106556  0.022  -0.548576  -0.761874  0.043145  2.168145  0.028
O  O87  1  0.20105603  0.58815556  0.08953117  1  -0.855245  0.030499  1.937013  0.019  -0.781785  0.039611  2.14325  0.025  -0.808444  0.035224  2.106283  0.022  -0.548578  -0.761726  0.043121  2.167858  0.028
O  O88  1  0.53373677  0.26746279  0.94966875  1  -0.844726  0.031904  1.851721  0.018  -0.778643  0.040571  2.055386  0.023  -0.801848  0.036411  2.017647  0.02  -0.567894  -0.760721  0.043645  2.079945  0.025
O  O89  1  0.03372123  0.23251942  0.05034566  1  -0.844577  0.031887  1.851675  0.018  -0.778475  0.040555  2.055422  0.023  -0.801682  0.036396  2.017684  0.02  -0.56784  -0.760567  0.043633  2.079979  0.025
O  O90  1  0.46624344  0.73257961  0.05031791  1  -0.845084  0.031917  1.851407  0.018  -0.779024  0.040598  2.055261  0.023  -0.802222  0.036441  2.017515  0.02  -0.567973  -0.761115  0.043656  2.079787  0.025
O  O91  1  0.96626250  0.76746264  0.94965109  1  -0.844819  0.031891  1.851576  0.018  -0.778739  0.040563  2.055285  0.023  -0.801943  0.036405  2.017547  0.02  -0.567925  -0.760834  0.043634  2.07984  0.025
