# generated using pymatgen
data_GdH7C8NO8
_symmetry_space_group_name_H-M   'P 1'
_cell_length_a   7.49181138
_cell_length_b   9.87310871
_cell_length_c   14.76027606
_cell_angle_alpha   89.99993390
_cell_angle_beta   97.83241429
_cell_angle_gamma   89.99998431
_symmetry_Int_Tables_number   1
_chemical_formula_structural   GdH7C8NO8
_chemical_formula_sum   'Gd4 H28 C32 N4 O32'
_cell_volume   1081.59492663
_cell_formula_units_Z   4
loop_
 _symmetry_equiv_pos_site_id
 _symmetry_equiv_pos_as_xyz
  1  'x, y, z'
loop_
 _atom_site_type_symbol
 _atom_site_label
 _atom_site_symmetry_multiplicity
 _atom_site_fract_x
 _atom_site_fract_y
 _atom_site_fract_z
 _atom_site_occupancy
 _atom_site_hle17_bader_spin_density
 _atom_site_hle17_ddec_charge
 _atom_site_hle17_ddec_spin_density
 _atom_site_hle17_ddec_sum_bond_order
 _atom_site_hle17_magmom
 _atom_site_hse06_10hf_bader_spin_density
 _atom_site_hse06_10hf_ddec_charge
 _atom_site_hse06_10hf_ddec_spin_density
 _atom_site_hse06_10hf_ddec_sum_bond_order
 _atom_site_hse06_10hf_magmom
 _atom_site_hse06_bader_spin_density
 _atom_site_hse06_ddec_charge
 _atom_site_hse06_ddec_spin_density
 _atom_site_hse06_ddec_sum_bond_order
 _atom_site_hse06_magmom
 _atom_site_pbe_bader_spin_density
 _atom_site_pbe_cm5_charge
 _atom_site_pbe_ddec_charge
 _atom_site_pbe_ddec_spin_density
 _atom_site_pbe_ddec_sum_bond_order
 _atom_site_pbe_magmom
Gd  Gd0  1  0.14508626  0.95633474  0.35727538  1  0  2.233932  0  1.811458  0  0  2.150092  0  2.172876  0  0  2.198811  0  2.122196  0  0  1.472054  2.106953  0  2.221948  0
Gd  Gd1  1  0.35491163  0.45633230  0.14272537  1  0  2.233873  0  1.811334  0  0  2.150035  0  2.172668  0  0  2.198675  0  2.122107  0  0  1.472061  2.106861  0  2.221804  0
Gd  Gd2  1  0.85491011  0.04366747  0.64272212  1  0  2.233793  0  1.811369  0  0  2.149957  0  2.172692  0  0  2.198607  0  2.1221  0  0  1.472058  2.106782  0  2.221805  0
Gd  Gd3  1  0.64509007  0.54366383  0.85727793  1  0  2.233894  0  1.811364  0  0  2.150081  0  2.172728  0  0  2.198797  0  2.12204  0  0  1.472066  2.106911  0  2.221838  0
H  H4  1  0.78788655  0.05789727  0.36943366  1  0  0.439316  0  0.854431  0  0  0.407098  0  0.921179  0  0  0.41876  0  0.903972  0  0  0.303333  0.398718  0  0.933517  0
H  H5  1  0.71210851  0.55789401  0.13056487  1  0  0.439295  0  0.854475  0  0  0.407085  0  0.921205  0  0  0.418747  0  0.903997  0  0  0.303315  0.398705  0  0.933544  0
H  H6  1  0.21211114  0.94210595  0.63056664  1  0  0.439272  0  0.854542  0  0  0.407057  0  0.921254  0  0  0.41872  0  0.904045  0  0  0.303293  0.398677  0  0.933594  0
H  H7  1  0.28788516  0.44210415  0.86943243  1  0  0.4393  0  0.85447  0  0  0.407085  0  0.921194  0  0  0.418748  0  0.903987  0  0  0.303303  0.398706  0  0.933533  0
H  H8  1  0.75571519  0.94785513  0.29310679  1  0  0.43903  0  0.799152  0  0  0.424127  0  0.848055  0  0  0.431973  0  0.839577  0  0  0.334756  0.41847  0  0.8541  0
H  H9  1  0.74428234  0.44785362  0.20689161  1  0  0.43906  0  0.799078  0  0  0.424157  0  0.847984  0  0  0.432003  0  0.839506  0  0  0.334766  0.4185  0  0.854028  0
H  H10  1  0.24428386  0.05214809  0.70689225  1  0  0.439036  0  0.799083  0  0  0.424135  0  0.847984  0  0  0.431979  0  0.83951  0  0  0.33476  0.418477  0  0.854028  0
H  H11  1  0.25571401  0.55214757  0.79310792  1  0  0.439016  0  0.799108  0  0  0.424114  0  0.848014  0  0  0.43196  0  0.839536  0  0  0.334749  0.418456  0  0.854059  0
H  H12  1  0.92177456  0.86471220  0.17972250  1  0  0.392736  0  0.930971  0  0  0.349724  0  1.01513  0  0  0.361591  0  0.998264  0  0  0.28416  0.341311  0  1.02707  0
H  H13  1  0.57822435  0.36471357  0.32027743  1  0  0.392774  0  0.930915  0  0  0.349743  0  1.015103  0  0  0.36161  0  0.998237  0  0  0.284179  0.34133  0  1.027044  0
H  H14  1  0.07822448  0.13528798  0.82027722  1  0  0.392775  0  0.930919  0  0  0.34975  0  1.015099  0  0  0.361617  0  0.998234  0  0  0.28418  0.341338  0  1.02704  0
H  H15  1  0.42177468  0.63528965  0.67972297  1  0  0.392772  0  0.930919  0  0  0.349756  0  1.015083  0  0  0.361623  0  0.998216  0  0  0.284174  0.341343  0  1.027024  0
H  H16  1  0.03536859  0.72875509  0.20756910  1  0  0.449797  0  0.819388  0  0  0.423942  0  0.878001  0  0  0.433511  0  0.863863  0  0  0.313215  0.416918  0  0.888369  0
H  H17  1  0.46462674  0.22875541  0.29243096  1  0  0.449808  0  0.819391  0  0  0.423942  0  0.878009  0  0  0.433511  0  0.863869  0  0  0.313201  0.416914  0  0.888383  0
H  H18  1  0.96463314  0.27124611  0.79243149  1  0  0.449808  0  0.819432  0  0  0.423939  0  0.878022  0  0  0.433508  0  0.863883  0  0  0.313204  0.416909  0  0.888398  0
H  H19  1  0.53537094  0.77124679  0.70757002  1  0  0.449786  0  0.819377  0  0  0.423934  0  0.878002  0  0  0.433502  0  0.863866  0  0  0.313219  0.41691  0  0.88837  0
H  H20  1  0.39204315  0.71682541  0.52066000  1  0  0.08728  0  0.961093  0  0  0.094287  0  1.027466  0  0  0.09693  0  1.025052  0  0  0.120825  0.092156  0  1.029463  0
H  H21  1  0.10795464  0.21681940  0.97933868  1  0  0.087319  0  0.961157  0  0  0.094349  0  1.027492  0  0  0.096992  0  1.025078  0  0  0.120831  0.092216  0  1.029487  0
H  H22  1  0.60795861  0.28317579  0.47933721  1  0  0.087301  0  0.961121  0  0  0.094304  0  1.027483  0  0  0.096945  0  1.025071  0  0  0.120829  0.092171  0  1.029477  0
H  H23  1  0.89204443  0.78317369  0.02065833  1  0  0.087334  0  0.96108  0  0  0.094346  0  1.027422  0  0  0.096988  0  1.02501  0  0  0.120852  0.092214  0  1.02942  0
H  H24  1  0.16904666  0.38291656  0.35471067  1  0  0.12257  0  0.924244  0  0  0.129909  0  0.989327  0  0  0.134918  0  0.983556  0  0  0.126808  0.126143  0  0.993597  0
H  H25  1  0.33096072  0.88291426  0.14528879  1  0  0.122572  0  0.924235  0  0  0.129941  0  0.989292  0  0  0.134951  0  0.98352  0  0  0.126836  0.126173  0  0.993564  0
H  H26  1  0.83095507  0.61708261  0.64528925  1  0  0.122555  0  0.924271  0  0  0.129922  0  0.989327  0  0  0.134929  0  0.983558  0  0  0.126808  0.126156  0  0.993593  0
H  H27  1  0.66904237  0.11708390  0.85471055  1  0  0.122482  0  0.924289  0  0  0.129842  0  0.989361  0  0  0.134851  0  0.98359  0  0  0.126782  0.126075  0  0.993627  0
H  H28  1  0.21010312  0.38080957  0.64930346  1  0  0.101893  0  0.924421  0  0  0.10865  0  0.988898  0  0  0.112849  0  0.984115  0  0  0.124856  0.105462  0  0.992489  0
H  H29  1  0.28989860  0.88080692  0.85069605  1  0  0.101896  0  0.924421  0  0  0.108643  0  0.988919  0  0  0.112842  0  0.984135  0  0  0.124861  0.105455  0  0.992512  0
H  H30  1  0.78989862  0.61919466  0.35069578  1  0  0.101871  0  0.924439  0  0  0.108636  0  0.988922  0  0  0.112836  0  0.984136  0  0  0.124859  0.105451  0  0.992518  0
H  H31  1  0.71010179  0.11918921  0.14930376  1  0  0.101899  0  0.924343  0  0  0.108648  0  0.988844  0  0  0.11285  0  0.984055  0  0  0.124862  0.105463  0  0.992438  0
C  C32  1  0.33026737  0.61710708  0.51359209  1  0  0.134146  0  3.674679  0  0  0.0896  0  3.931361  0  0  0.099326  0  3.947462  0  0  0.059812  0.083271  0  3.920995  0
C  C33  1  0.16973452  0.11710510  0.98640629  1  0  0.134032  0  3.674675  0  0  0.089485  0  3.931278  0  0  0.099206  0  3.947384  0  0  0.059815  0.083158  0  3.920904  0
C  C34  1  0.66973572  0.38289209  0.48640725  1  0  0.134021  0  3.674639  0  0  0.089473  0  3.931261  0  0  0.099194  0  3.947372  0  0  0.059816  0.083144  0  3.920886  0
C  C35  1  0.83026994  0.88289406  0.01359112  1  0  0.133994  0  3.67474  0  0  0.089456  0  3.931368  0  0  0.099177  0  3.947473  0  0  0.059749  0.083127  0  3.921005  0
C  C36  1  0.28051370  0.56198876  0.42670551  1  0  -0.129996  0  3.743742  0  0  -0.104936  0  3.984686  0  0  -0.118768  0  4.008513  0  0  -0.007542  -0.096592  0  3.969424  0
C  C37  1  0.21948849  0.06198546  0.07329382  1  0  -0.130123  0  3.74361  0  0  -0.104945  0  3.984519  0  0  -0.118779  0  4.00834  0  0  -0.007557  -0.096595  0  3.969244  0
C  C38  1  0.71948940  0.43801345  0.57329315  1  0  -0.129994  0  3.743674  0  0  -0.104869  0  3.984526  0  0  -0.118706  0  4.00835  0  0  -0.007546  -0.096511  0  3.969241  0
C  C39  1  0.78051057  0.93801168  0.92670455  1  0  -0.130012  0  3.743806  0  0  -0.104843  0  3.984637  0  0  -0.118674  0  4.008461  0  0  -0.007524  -0.0965  0  3.969378  0
C  C40  1  0.20562365  0.43222214  0.42074218  1  0  -0.002651  0  3.647866  0  0  -0.045674  0  3.8987  0  0  -0.037791  0  3.913516  0  0  -0.04456  -0.050261  0  3.889072  0
C  C41  1  0.29438101  0.93222098  0.07925704  1  0  -0.002591  0  3.647717  0  0  -0.045677  0  3.898531  0  0  -0.037795  0  3.913345  0  0  -0.044546  -0.050265  0  3.888906  0
C  C42  1  0.79437944  0.56777804  0.57925716  1  0  -0.002666  0  3.647743  0  0  -0.04575  0  3.898559  0  0  -0.037867  0  3.913377  0  0  -0.044554  -0.050337  0  3.888927  0
C  C43  1  0.70561671  0.06777617  0.92074055  1  0  -0.002506  0  3.647849  0  0  -0.045571  0  3.898655  0  0  -0.037691  0  3.913471  0  0  -0.044525  -0.050156  0  3.889021  0
C  C44  1  0.17625317  0.36630464  0.50117129  1  0  -0.128849  0  3.725815  0  0  -0.102086  0  3.964473  0  0  -0.116276  0  3.989083  0  0  -0.011142  -0.093491  0  3.948364  0
C  C45  1  0.32375395  0.86630274  0.99882794  1  0  -0.129032  0  3.72574  0  0  -0.10218  0  3.964461  0  0  -0.116364  0  3.989074  0  0  -0.011197  -0.093593  0  3.94836  0
C  C46  1  0.82374993  0.63369655  0.49882669  1  0  -0.128897  0  3.725733  0  0  -0.102114  0  3.964372  0  0  -0.116296  0  3.988983  0  0  -0.01115  -0.093528  0  3.948276  0
C  C47  1  0.67624916  0.13369440  0.00116936  1  0  -0.12891  0  3.725868  0  0  -0.102135  0  3.964555  0  0  -0.116316  0  3.989171  0  0  -0.01116  -0.093546  0  3.948445  0
C  C48  1  0.22901699  0.43047787  0.58520811  1  0  0.141646  0  3.640748  0  0  0.097558  0  3.896993  0  0  0.106942  0  3.912402  0  0  0.06277  0.091592  0  3.886704  0
C  C49  1  0.27098605  0.93047612  0.91479213  1  0  0.141714  0  3.640928  0  0  0.097611  0  3.897188  0  0  0.106996  0  3.912593  0  0  0.062847  0.091643  0  3.886905  0
C  C50  1  0.77098475  0.56952434  0.41479180  1  0  0.141795  0  3.640773  0  0  0.097638  0  3.897065  0  0  0.107025  0  3.912463  0  0  0.062849  0.091663  0  3.886798  0
C  C51  1  0.72901436  0.06952203  0.08520633  1  0  0.141689  0  3.640753  0  0  0.097593  0  3.897027  0  0  0.106979  0  3.912427  0  0  0.062786  0.09162  0  3.886755  0
C  C52  1  0.30965735  0.64228775  0.34365647  1  0  0.742792  0  3.856868  0  0  0.696135  0  4.146399  0  0  0.732  0  4.135875  0  0  0.243008  0.671653  0  4.152417  0
C  C53  1  0.19034079  0.14229039  0.15633844  1  0  0.743173  0  3.856115  0  0  0.696316  0  4.145915  0  0  0.732193  0  4.135364  0  0  0.243034  0.671832  0  4.151935  0
C  C54  1  0.69033770  0.35770534  0.65633822  1  0  0.742986  0  3.856523  0  0  0.696309  0  4.146033  0  0  0.732191  0  4.135474  0  0  0.243031  0.671821  0  4.15205  0
C  C55  1  0.80966101  0.85771283  0.84365471  1  0  0.742885  0  3.856668  0  0  0.696145  0  4.146289  0  0  0.732018  0  4.135751  0  0  0.243014  0.67166  0  4.15231  0
C  C56  1  0.09185032  0.22833291  0.49869012  1  0  0.741117  0  3.861039  0  0  0.692472  0  4.154928  0  0  0.728448  0  4.144394  0  0  0.239487  0.668102  0  4.160452  0
C  C57  1  0.40815034  0.72832882  0.00131710  1  0  0.741395  0  3.860502  0  0  0.692523  0  4.154742  0  0  0.728476  0  4.144252  0  0  0.239537  0.668162  0  4.160255  0
C  C58  1  0.90814320  0.77167233  0.50132275  1  0  0.741181  0  3.860903  0  0  0.692594  0  4.154684  0  0  0.728546  0  4.14419  0  0  0.239535  0.668236  0  4.160194  0
C  C59  1  0.59185271  0.27166934  0.99868630  1  0  0.741134  0  3.86083  0  0  0.692467  0  4.154762  0  0  0.728417  0  4.144272  0  0  0.239519  0.668114  0  4.160256  0
C  C60  1  0.54501800  0.03176766  0.46086608  1  0  0.560334  0  3.909293  0  0  0.51718  0  4.210676  0  0  0.546735  0  4.201502  0  0  0.219949  0.497435  0  4.214805  0
C  C61  1  0.95500123  0.53176045  0.03914437  1  0  0.560242  0  3.909358  0  0  0.517175  0  4.210605  0  0  0.546731  0  4.201423  0  0  0.219948  0.497431  0  4.214736  0
C  C62  1  0.45501330  0.96823657  0.53914409  1  0  0.560133  0  3.909442  0  0  0.517154  0  4.210634  0  0  0.546709  0  4.201455  0  0  0.219902  0.497407  0  4.214767  0
C  C63  1  0.04500310  0.46822960  0.96086589  1  0  0.560063  0  3.909528  0  0  0.51709  0  4.210656  0  0  0.546643  0  4.201481  0  0  0.219802  0.497343  0  4.214788  0
N  N64  1  0.30772200  0.55291852  0.59125001  1  0  -0.312201  0  3.162375  0  0  -0.246151  0  3.416112  0  0  -0.262288  0  3.431104  0  0  -0.303755  -0.235526  0  3.40627  0
N  N65  1  0.19228128  0.05291262  0.90874851  1  0  -0.312146  0  3.16242  0  0  -0.246112  0  3.416175  0  0  -0.262247  0  3.431171  0  0  -0.303832  -0.235487  0  3.40633  0
N  N66  1  0.69228245  0.44708470  0.40874875  1  0  -0.312179  0  3.162305  0  0  -0.246092  0  3.416028  0  0  -0.262225  0  3.43102  0  0  -0.303811  -0.23547  0  3.406194  0
N  N67  1  0.80771912  0.94708249  0.09124995  1  0  -0.312148  0  3.162335  0  0  -0.246133  0  3.416091  0  0  -0.262266  0  3.431083  0  0  -0.303754  -0.235511  0  3.406259  0
O  O68  1  0.33421545  0.76944019  0.35295883  1  0  -0.740445  0  2.009943  0  0  -0.699695  0  2.254927  0  0  -0.725305  0  2.242994  0  0  -0.405048  -0.680462  0  2.262497  0
O  O69  1  0.16578391  0.26942867  0.14704014  1  0  -0.740488  0  2.009942  0  0  -0.699678  0  2.255024  0  0  -0.725272  0  2.24308  0  0  -0.405023  -0.680447  0  2.262596  0
O  O70  1  0.66577955  0.23056910  0.64703993  1  0  -0.740409  0  2.010144  0  0  -0.699658  0  2.255132  0  0  -0.725258  0  2.243187  0  0  -0.404995  -0.68043  0  2.262703  0
O  O71  1  0.83421649  0.73056138  0.85295832  1  0  -0.740449  0  2.00982  0  0  -0.699689  0  2.254841  0  0  -0.725304  0  2.242904  0  0  -0.405062  -0.680456  0  2.262413  0
O  O72  1  0.30636274  0.57958315  0.26884942  1  0  -0.72311  0  2.06122  0  0  -0.679999  0  2.317799  0  0  -0.705261  0  2.303502  0  0  -0.399865  -0.661049  0  2.327025  0
O  O73  1  0.19363805  0.07957452  0.23115385  1  0  -0.72329  0  2.060515  0  0  -0.680147  0  2.317259  0  0  -0.705432  0  2.30295  0  0  -0.399908  -0.661202  0  2.326487  0
O  O74  1  0.69363763  0.42042210  0.73115243  1  0  -0.723268  0  2.060652  0  0  -0.680181  0  2.317287  0  0  -0.705469  0  2.302978  0  0  -0.399931  -0.661235  0  2.326514  0
O  O75  1  0.80636500  0.92041857  0.76884954  1  0  -0.723167  0  2.061189  0  0  -0.680048  0  2.317822  0  0  -0.705314  0  2.303519  0  0  -0.399868  -0.6611  0  2.327047  0
O  O76  1  0.08896007  0.16037566  0.42575218  1  0  -0.722926  0  2.054713  0  0  -0.680634  0  2.309731  0  0  -0.706213  0  2.296948  0  0  -0.395661  -0.661486  0  2.317844  0
O  O77  1  0.41103939  0.66037650  0.07424416  1  0  -0.722912  0  2.055021  0  0  -0.680558  0  2.310177  0  0  -0.706109  0  2.297407  0  0  -0.395642  -0.661412  0  2.318293  0
O  O78  1  0.91103765  0.83962047  0.57424473  1  0  -0.72271  0  2.055402  0  0  -0.680455  0  2.31043  0  0  -0.706005  0  2.297663  0  0  -0.39556  -0.661307  0  2.318538  0
O  O79  1  0.58895561  0.33962368  0.92575527  1  0  -0.722895  0  2.054948  0  0  -0.680614  0  2.31002  0  0  -0.706181  0  2.297256  0  0  -0.395705  -0.661469  0  2.318125  0
O  O80  1  0.03020557  0.19020707  0.57031136  1  0  -0.743306  0  2.088988  0  0  -0.704778  0  2.352454  0  0  -0.730891  0  2.340653  0  0  -0.401987  -0.685001  0  2.359503  0
O  O81  1  0.46980437  0.69020020  0.92968617  1  0  -0.743473  0  2.08822  0  0  -0.704855  0  2.351784  0  0  -0.730982  0  2.340006  0  0  -0.402018  -0.685073  0  2.358819  0
O  O82  1  0.96979621  0.80980121  0.42968381  1  0  -0.743537  0  2.08803  0  0  -0.70502  0  2.351454  0  0  -0.731165  0  2.339711  0  0  -0.402103  -0.685244  0  2.358493  0
O  O83  1  0.53020813  0.30979491  0.07031587  1  0  -0.743326  0  2.088481  0  0  -0.704778  0  2.351946  0  0  -0.730905  0  2.340208  0  0  -0.401952  -0.685006  0  2.358981  0
O  O84  1  0.44780862  0.05139276  0.38497736  1  0  -0.655075  0  2.055305  0  0  -0.614883  0  2.295033  0  0  -0.637833  0  2.284887  0  0  -0.356727  -0.59762  0  2.301191  0
O  O85  1  0.05218144  0.55139056  0.11502110  1  0  -0.654912  0  2.05592  0  0  -0.614748  0  2.295598  0  0  -0.637679  0  2.285448  0  0  -0.356621  -0.597489  0  2.301761  0
O  O86  1  0.55217837  0.94861451  0.61501404  1  0  -0.654831  0  2.056326  0  0  -0.61467  0  2.295952  0  0  -0.637598  0  2.285803  0  0  -0.356571  -0.597411  0  2.30211  0
O  O87  1  0.94781753  0.44860759  0.88498539  1  0  -0.654906  0  2.055633  0  0  -0.614761  0  2.295261  0  0  -0.637705  0  2.285115  0  0  -0.356627  -0.597499  0  2.301419  0
O  O88  1  0.71108978  0.06047591  0.47904015  1  0  -0.660042  0  2.126235  0  0  -0.613973  0  2.362941  0  0  -0.638131  0  2.354385  0  0  -0.32938  -0.596229  0  2.368134  0
O  O89  1  0.78889584  0.56047079  0.02095838  1  0  -0.660154  0  2.125611  0  0  -0.614163  0  2.362286  0  0  -0.638342  0  2.353735  0  0  -0.329515  -0.596412  0  2.367482  0
O  O90  1  0.28888907  0.93952630  0.52095609  1  0  -0.6603  0  2.125353  0  0  -0.614294  0  2.361962  0  0  -0.638478  0  2.353411  0  0  -0.329603  -0.596544  0  2.36716  0
O  O91  1  0.21109908  0.43951926  0.97904918  1  0  -0.660112  0  2.125959  0  0  -0.614092  0  2.362559  0  0  -0.638257  0  2.354006  0  0  -0.329413  -0.596342  0  2.367755  0
O  O92  1  0.82977174  0.02689493  0.31157977  1  0  -0.853308  0  1.847635  0  0  -0.815863  0  2.029976  0  0  -0.833888  0  2.001864  0  0  -0.614503  -0.802086  0  2.049812  0
O  O93  1  0.67022603  0.52689562  0.18841898  1  0  -0.853325  0  1.84761  0  0  -0.815884  0  2.029921  0  0  -0.833899  0  2.001815  0  0  -0.614499  -0.802104  0  2.049759  0
O  O94  1  0.17022731  0.97310627  0.68841860  1  0  -0.853256  0  1.847666  0  0  -0.815826  0  2.02997  0  0  -0.833835  0  2.001851  0  0  -0.614475  -0.802051  0  2.049809  0
O  O95  1  0.32977165  0.47310760  0.81158132  1  0  -0.853247  0  1.847629  0  0  -0.815827  0  2.029976  0  0  -0.83384  0  2.00184  0  0  -0.614455  -0.802052  0  2.049815  0
O  O96  1  0.99911730  0.81543182  0.23153301  1  0  -0.914583  0  1.887788  0  0  -0.872019  0  2.091155  0  0  -0.890029  0  2.056694  0  0  -0.634845  -0.858267  0  2.115918  0
O  O97  1  0.50087623  0.31543026  0.26846928  1  0  -0.914623  0  1.887724  0  0  -0.872052  0  2.091098  0  0  -0.890051  0  2.05664  0  0  -0.634847  -0.858297  0  2.115868  0
O  O98  1  0.00087904  0.18457038  0.76846788  1  0  -0.91464  0  1.887793  0  0  -0.872064  0  2.091124  0  0  -0.890068  0  2.056666  0  0  -0.634846  -0.858312  0  2.115893  0
O  O99  1  0.49911874  0.68456891  0.73153354  1  0  -0.91459  0  1.887738  0  0  -0.872029  0  2.09112  0  0  -0.890042  0  2.056659  0  0  -0.634853  -0.858279  0  2.115888  0
