# generated using pymatgen
data_Zn2P2H16C13(NO3)2
_symmetry_space_group_name_H-M   'P 1'
_cell_length_a   5.11645639
_cell_length_b   11.27422366
_cell_length_c   15.28158862
_cell_angle_alpha   104.68750728
_cell_angle_beta   90.00003124
_cell_angle_gamma   90.00024763
_symmetry_Int_Tables_number   1
_chemical_formula_structural   Zn2P2H16C13(NO3)2
_chemical_formula_sum   'Zn4 P4 H32 C26 N4 O12'
_cell_volume   852.69941965
_cell_formula_units_Z   2
loop_
 _symmetry_equiv_pos_site_id
 _symmetry_equiv_pos_as_xyz
  1  'x, y, z'
loop_
 _atom_site_type_symbol
 _atom_site_label
 _atom_site_symmetry_multiplicity
 _atom_site_fract_x
 _atom_site_fract_y
 _atom_site_fract_z
 _atom_site_occupancy
 _atom_site_hle17_bader_spin_density
 _atom_site_hle17_ddec_charge
 _atom_site_hle17_ddec_spin_density
 _atom_site_hle17_ddec_sum_bond_order
 _atom_site_hle17_magmom
 _atom_site_hse06_10hf_bader_spin_density
 _atom_site_hse06_10hf_ddec_charge
 _atom_site_hse06_10hf_ddec_spin_density
 _atom_site_hse06_10hf_ddec_sum_bond_order
 _atom_site_hse06_10hf_magmom
 _atom_site_hse06_bader_spin_density
 _atom_site_hse06_ddec_charge
 _atom_site_hse06_ddec_spin_density
 _atom_site_hse06_ddec_sum_bond_order
 _atom_site_hse06_magmom
 _atom_site_pbe_bader_spin_density
 _atom_site_pbe_cm5_charge
 _atom_site_pbe_ddec_charge
 _atom_site_pbe_ddec_spin_density
 _atom_site_pbe_ddec_sum_bond_order
 _atom_site_pbe_magmom
Zn  Zn0  1  0.69971038  0.64242307  0.49663451  1  0  1.129294  0  1.862503  0  0  0.959097  0  2.34285  0  0  1.001057  0  2.284664  0  0  0.709191  0.929632  0  2.382885  0
Zn  Zn1  1  0.69971884  0.85757868  0.00336701  1  0  1.129346  0  1.862388  0  0  0.959149  0  2.342726  0  0  1.001113  0  2.284538  0  0  0.709245  0.929685  0  2.382786  0
Zn  Zn2  1  0.30028610  0.35757418  0.50336625  1  0  1.129254  0  1.862596  0  0  0.959067  0  2.342955  0  0  1.00102  0  2.284775  0  0  0.7092  0.9296  0  2.382993  0
Zn  Zn3  1  0.30028155  0.14242502  0.99663305  1  0  1.12929  0  1.86266  0  0  0.959103  0  2.343022  0  0  1.001063  0  2.284833  0  0  0.709204  0.929639  0  2.383088  0
P  P4  1  0.22583308  0.55544160  0.38808526  1  0  1.415454  0  5.004071  0  0  1.236281  0  5.505373  0  0  1.287391  0  5.467234  0  0  0.258634  1.200554  0  5.531159  0
P  P5  1  0.22584840  0.94455546  0.11191462  1  0  1.415582  0  5.003928  0  0  1.236381  0  5.505224  0  0  1.287491  0  5.467086  0  0  0.258653  1.200671  0  5.530995  0
P  P6  1  0.77415754  0.44455842  0.61191408  1  0  1.415458  0  5.004034  0  0  1.236285  0  5.505317  0  0  1.287432  0  5.467096  0  0  0.258664  1.200567  0  5.531083  0
P  P7  1  0.77414809  0.05543722  0.88808461  1  0  1.415555  0  5.003932  0  0  1.236382  0  5.505217  0  0  1.287508  0  5.467049  0  0  0.25873  1.200672  0  5.530972  0
H  H8  1  0.27947751  0.54522246  0.29591122  1  0  -0.169123  0  0.927256  0  0  -0.135052  0  1.012798  0  0  -0.140172  0  1.010235  0  0  0.077917  -0.131628  0  1.014758  0
H  H9  1  0.27949112  0.95478297  0.20409030  1  0  -0.169159  0  0.927289  0  0  -0.135041  0  1.012781  0  0  -0.140156  0  1.010214  0  0  0.077905  -0.131621  0  1.014736  0
H  H10  1  0.72051898  0.45477480  0.70408889  1  0  -0.169166  0  0.927281  0  0  -0.135066  0  1.012797  0  0  -0.140193  0  1.010232  0  0  0.077896  -0.131644  0  1.014751  0
H  H11  1  0.72052100  0.04522257  0.79590947  1  0  -0.169201  0  0.927307  0  0  -0.13509  0  1.012809  0  0  -0.140212  0  1.010242  0  0  0.07789  -0.131662  0  1.014748  0
H  H12  1  0.10835234  0.71629681  0.63249468  1  0  0.094119  0  0.918078  0  0  0.104598  0  0.975623  0  0  0.107181  0  0.973182  0  0  0.125905  0.102637  0  0.977511  0
H  H13  1  0.10835089  0.78370457  0.86750645  1  0  0.094152  0  0.917973  0  0  0.104632  0  0.975521  0  0  0.107215  0  0.97308  0  0  0.125906  0.102675  0  0.977406  0
H  H14  1  0.89165978  0.28370140  0.36750365  1  0  0.094106  0  0.918188  0  0  0.10458  0  0.975726  0  0  0.107164  0  0.973285  0  0  0.125868  0.102624  0  0.977614  0
H  H15  1  0.89164755  0.21629269  0.13249367  1  0  0.094225  0  0.917778  0  0  0.104694  0  0.975334  0  0  0.10728  0  0.97289  0  0  0.125929  0.102726  0  0.977232  0
H  H16  1  0.32977610  0.90912732  0.71743971  1  0  0.122627  0  0.930661  0  0  0.134815  0  0.984685  0  0  0.137986  0  0.984245  0  0  0.114668  0.132499  0  0.985241  0
H  H17  1  0.32977268  0.59087637  0.78256190  1  0  0.122557  0  0.930601  0  0  0.134714  0  0.984688  0  0  0.137903  0  0.984225  0  0  0.114635  0.13241  0  0.985228  0
H  H18  1  0.67022820  0.09087454  0.28255999  1  0  0.122605  0  0.930562  0  0  0.134742  0  0.984665  0  0  0.137929  0  0.984206  0  0  0.114647  0.132431  0  0.985209  0
H  H19  1  0.67022380  0.40912364  0.21743875  1  0  0.122573  0  0.930469  0  0  0.134696  0  0.984599  0  0  0.137893  0  0.984129  0  0  0.114638  0.132387  0  0.985141  0
H  H20  1  0.79658552  0.11084059  0.58964478  1  0  0.118518  0  0.950778  0  0  0.128204  0  1.011572  0  0  0.131466  0  1.01085  0  0  0.108686  0.125848  0  1.012257  0
H  H21  1  0.79658123  0.38915965  0.91035677  1  0  0.118536  0  0.950838  0  0  0.128225  0  1.011628  0  0  0.131489  0  1.010906  0  0  0.10871  0.125876  0  1.012306  0
H  H22  1  0.20341097  0.88915666  0.41035598  1  0  0.118547  0  0.950828  0  0  0.128255  0  1.011592  0  0  0.13151  0  1.010879  0  0  0.108718  0.125902  0  1.012278  0
H  H23  1  0.20341134  0.61084125  0.08964537  1  0  0.118538  0  0.950955  0  0  0.128294  0  1.011657  0  0  0.131496  0  1.011006  0  0  0.108722  0.125953  0  1.012337  0
H  H24  1  0.58822436  0.90985917  0.51403489  1  0  0.072856  0  0.948747  0  0  0.083681  0  1.012918  0  0  0.085554  0  1.011498  0  0  0.115592  0.082294  0  1.01393  0
H  H25  1  0.58822516  0.59014044  0.98596925  1  0  0.072822  0  0.948764  0  0  0.083656  0  1.012901  0  0  0.085531  0  1.011477  0  0  0.115578  0.082249  0  1.013939  0
H  H26  1  0.41177213  0.09013714  0.48596700  1  0  0.072868  0  0.948792  0  0  0.0837  0  1.012932  0  0  0.085573  0  1.011512  0  0  0.115613  0.082296  0  1.013957  0
H  H27  1  0.41176938  0.40986322  0.01403277  1  0  0.072825  0  0.948911  0  0  0.083668  0  1.013039  0  0  0.085542  0  1.011619  0  0  0.115587  0.082268  0  1.014064  0
H  H28  1  0.34488064  0.17069397  0.65084799  1  0  0.083003  0  0.930764  0  0  0.102055  0  0.992573  0  0  0.102812  0  0.992536  0  0  0.097601  0.101488  0  0.992682  0
H  H29  1  0.34487765  0.32930990  0.84915288  1  0  0.082999  0  0.93079  0  0  0.102001  0  0.992629  0  0  0.102759  0  0.992592  0  0  0.097572  0.101431  0  0.992741  0
H  H30  1  0.65511584  0.82930332  0.34915017  1  0  0.083047  0  0.930729  0  0  0.102063  0  0.99258  0  0  0.102822  0  0.99254  0  0  0.097597  0.101496  0  0.992695  0
H  H31  1  0.65511102  0.67069191  0.15085008  1  0  0.082987  0  0.930749  0  0  0.101998  0  0.992597  0  0  0.102757  0  0.992557  0  0  0.097574  0.101428  0  0.992715  0
H  H32  1  0.36932124  0.12255433  0.75193888  1  0  0.086004  0  0.946867  0  0  0.101421  0  1.011284  0  0  0.102684  0  1.011043  0  0  0.095782  0.100466  0  1.011524  0
H  H33  1  0.36931854  0.37744959  0.74806266  1  0  0.085906  0  0.946982  0  0  0.101319  0  1.01138  0  0  0.102583  0  1.011136  0  0  0.095724  0.100358  0  1.011624  0
H  H34  1  0.63068111  0.87744570  0.24806047  1  0  0.086045  0  0.946781  0  0  0.101451  0  1.011211  0  0  0.102714  0  1.010971  0  0  0.095818  0.100494  0  1.011452  0
H  H35  1  0.63067599  0.62255130  0.25194078  1  0  0.085887  0  0.946815  0  0  0.101337  0  1.011206  0  0  0.102599  0  1.01097  0  0  0.095757  0.100392  0  1.011436  0
H  H36  1  0.92934821  0.27692340  0.70044531  1  0  0.064514  0  0.97092  0  0  0.082886  0  1.034643  0  0  0.083738  0  1.034792  0  0  0.089785  0.082185  0  1.034652  0
H  H37  1  0.92934803  0.22307531  0.79955531  1  0  0.064472  0  0.970906  0  0  0.082845  0  1.034621  0  0  0.083695  0  1.034775  0  0  0.089754  0.082144  0  1.034629  0
H  H38  1  0.07065414  0.72307478  0.29955433  1  0  0.064483  0  0.970913  0  0  0.082835  0  1.034646  0  0  0.083687  0  1.034797  0  0  0.089774  0.082141  0  1.034652  0
H  H39  1  0.07065041  0.77692290  0.20044303  1  0  0.064452  0  0.970915  0  0  0.082841  0  1.034611  0  0  0.083692  0  1.034764  0  0  0.089754  0.082141  0  1.034624  0
C  C40  1  0.04535017  0.80597592  0.62559739  1  0  0.153472  0  3.681151  0  0  0.12223  0  3.930651  0  0  0.130375  0  3.94774  0  0  0.056368  0.116941  0  3.919085  0
C  C41  1  0.04534397  0.69402256  0.87440317  1  0  0.153376  0  3.681209  0  0  0.122128  0  3.930725  0  0  0.13027  0  3.947822  0  0  0.056366  0.116837  0  3.91917  0
C  C42  1  0.95465413  0.19402230  0.37439964  1  0  0.153455  0  3.68125  0  0  0.122213  0  3.930749  0  0  0.130358  0  3.947841  0  0  0.05643  0.116915  0  3.9192  0
C  C43  1  0.95465643  0.30598298  0.12559594  1  0  0.153339  0  3.681475  0  0  0.122096  0  3.930997  0  0  0.130239  0  3.948095  0  0  0.056381  0.116815  0  3.919435  0
C  C44  1  0.16863526  0.91327573  0.67165582  1  0  -0.166604  0  3.684828  0  0  -0.184949  0  3.933649  0  0  -0.193872  0  3.955321  0  0  -0.077898  -0.179239  0  3.919146  0
C  C45  1  0.16862601  0.58672578  0.82834535  1  0  -0.166441  0  3.684931  0  0  -0.184775  0  3.933758  0  0  -0.193712  0  3.955432  0  0  -0.077845  -0.179068  0  3.919248  0
C  C46  1  0.83137490  0.08672244  0.32834513  1  0  -0.166475  0  3.684976  0  0  -0.184811  0  3.93377  0  0  -0.193746  0  3.955441  0  0  -0.07784  -0.179105  0  3.919265  0
C  C47  1  0.83138025  0.41327155  0.17165020  1  0  -0.166478  0  3.68515  0  0  -0.184781  0  3.933984  0  0  -0.193723  0  3.955656  0  0  -0.077884  -0.17907  0  3.919466  0
C  C48  1  0.08600353  0.02637031  0.65899739  1  0  0.165775  0  3.705234  0  0  0.178357  0  3.946822  0  0  0.184168  0  3.968834  0  0  0.019704  0.174693  0  3.931751  0
C  C49  1  0.08599603  0.47363391  0.84100416  1  0  0.165702  0  3.705308  0  0  0.178303  0  3.946801  0  0  0.184107  0  3.968824  0  0  0.019687  0.174644  0  3.931731  0
C  C50  1  0.91400273  0.97363152  0.34100427  1  0  0.16564  0  3.705455  0  0  0.178328  0  3.946883  0  0  0.184137  0  3.968898  0  0  0.019632  0.174667  0  3.931814  0
C  C51  1  0.91399069  0.52636701  0.15899732  1  0  0.165658  0  3.705388  0  0  0.178254  0  3.946913  0  0  0.184059  0  3.968928  0  0  0.019677  0.17459  0  3.931849  0
C  C52  1  0.87053279  0.02576503  0.60206099  1  0  -0.181512  0  3.70409  0  0  -0.198011  0  3.953813  0  0  -0.207305  0  3.976393  0  0  -0.085912  -0.192028  0  3.938685  0
C  C53  1  0.87053125  0.47423538  0.89793995  1  0  -0.181481  0  3.704141  0  0  -0.198013  0  3.953876  0  0  -0.207305  0  3.976454  0  0  -0.085938  -0.192029  0  3.93874  0
C  C54  1  0.12945783  0.97423225  0.39793782  1  0  -0.181546  0  3.704146  0  0  -0.198105  0  3.95386  0  0  -0.20739  0  3.976438  0  0  -0.085948  -0.192124  0  3.93873  0
C  C55  1  0.12946524  0.52577750  0.10206059  1  0  -0.181452  0  3.703629  0  0  -0.197989  0  3.953311  0  0  -0.207228  0  3.975908  0  0  -0.085895  -0.19202  0  3.938185  0
C  C56  1  0.75511727  0.91482663  0.55918561  1  0  0.126292  0  3.7419  0  0  0.094171  0  3.996824  0  0  0.101588  0  4.016262  0  0  0.045136  0.089487  0  3.983509  0
C  C57  1  0.75511599  0.58517430  0.94081620  1  0  0.126333  0  3.741828  0  0  0.094228  0  3.99674  0  0  0.101646  0  4.016178  0  0  0.045213  0.089562  0  3.983432  0
C  C58  1  0.24488704  0.08516969  0.44081563  1  0  0.126386  0  3.741508  0  0  0.094278  0  3.996439  0  0  0.101698  0  4.015869  0  0  0.045224  0.089617  0  3.983109  0
C  C59  1  0.24489222  0.41482392  0.05918083  1  0  0.126275  0  3.741485  0  0  0.094126  0  3.996457  0  0  0.101547  0  4.015872  0  0  0.045133  0.089459  0  3.983139  0
C  C60  1  0.22911683  0.14210304  0.70305089  1  0  -0.160575  0  3.693279  0  0  -0.202363  0  3.941142  0  0  -0.204183  0  3.953984  0  0  -0.156984  -0.200957  0  3.932125  0
C  C61  1  0.22911403  0.35789873  0.79695086  1  0  -0.160581  0  3.693345  0  0  -0.202259  0  3.941022  0  0  -0.204083  0  3.953873  0  0  -0.156911  -0.200847  0  3.932004  0
C  C62  1  0.77088161  0.85789515  0.29694810  1  0  -0.160718  0  3.693163  0  0  -0.202486  0  3.94097  0  0  -0.204308  0  3.953809  0  0  -0.157042  -0.201082  0  3.931961  0
C  C63  1  0.77088832  0.64210224  0.20304736  1  0  -0.160477  0  3.693269  0  0  -0.202228  0  3.941077  0  0  -0.204053  0  3.953927  0  0  -0.156915  -0.200827  0  3.932061  0
C  C64  1  0.05598975  0.25000070  0.75000050  1  0  -0.08931  0  3.667324  0  0  -0.129045  0  3.917524  0  0  -0.130323  0  3.931612  0  0  -0.163579  -0.127905  0  3.907659  0
C  C65  1  0.94400478  0.74999840  0.24999932  1  0  -0.08926  0  3.667433  0  0  -0.128973  0  3.917657  0  0  -0.130248  0  3.931739  0  0  -0.16356  -0.127836  0  3.907807  0
N  N66  1  0.84269690  0.80656412  0.56928399  1  0  -0.346454  0  3.316775  0  0  -0.266219  0  3.598303  0  0  -0.28521  0  3.611512  0  0  -0.334254  -0.25347  0  3.58923  0
N  N67  1  0.84269469  0.69343701  0.93071721  1  0  -0.346445  0  3.316788  0  0  -0.266205  0  3.598308  0  0  -0.285196  0  3.611518  0  0  -0.334304  -0.253457  0  3.589238  0
N  N68  1  0.15731131  0.19343498  0.43071582  1  0  -0.346496  0  3.316444  0  0  -0.266271  0  3.597993  0  0  -0.285261  0  3.6112  0  0  -0.334363  -0.253519  0  3.588912  0
N  N69  1  0.15729788  0.30656298  0.06928474  1  0  -0.346406  0  3.316877  0  0  -0.266168  0  3.598429  0  0  -0.285157  0  3.611639  0  0  -0.334293  -0.253419  0  3.589348  0
O  O70  1  0.92748868  0.56544946  0.39611097  1  0  -0.843328  0  2.053144  0  0  -0.744514  0  2.355168  0  0  -0.772815  0  2.329748  0  0  -0.386494  -0.72444  0  2.372066  0
O  O71  1  0.92750780  0.93455559  0.10388731  1  0  -0.843342  0  2.05317  0  0  -0.744543  0  2.355244  0  0  -0.772852  0  2.329827  0  0  -0.38647  -0.724436  0  2.372047  0
O  O72  1  0.07250976  0.43455058  0.60388772  1  0  -0.843318  0  2.052975  0  0  -0.744517  0  2.355025  0  0  -0.772825  0  2.329597  0  0  -0.386526  -0.724444  0  2.371912  0
O  O73  1  0.07250627  0.06545087  0.89611263  1  0  -0.843399  0  2.052956  0  0  -0.744611  0  2.355014  0  0  -0.772917  0  2.329586  0  0  -0.386587  -0.724541  0  2.371907  0
O  O74  1  0.36527003  0.67294380  0.44276150  1  0  -0.856739  0  1.989396  0  0  -0.766096  0  2.291216  0  0  -0.793632  0  2.266554  0  0  -0.397968  -0.746571  0  2.307676  0
O  O75  1  0.36528024  0.82705808  0.05724392  1  0  -0.856752  0  1.989471  0  0  -0.766129  0  2.291332  0  0  -0.793661  0  2.26666  0  0  -0.397953  -0.746614  0  2.307795  0
O  O76  1  0.63473036  0.32705347  0.55723796  1  0  -0.856718  0  1.989452  0  0  -0.766078  0  2.291284  0  0  -0.793618  0  2.266615  0  0  -0.397969  -0.746555  0  2.307736  0
O  O77  1  0.63472016  0.17294466  0.94275857  1  0  -0.856731  0  1.989358  0  0  -0.766091  0  2.291184  0  0  -0.793631  0  2.266518  0  0  -0.397975  -0.746573  0  2.307647  0
O  O78  1  0.34073823  0.43765268  0.40512078  1  0  -0.862853  0  2.0644  0  0  -0.766014  0  2.363302  0  0  -0.793606  0  2.336528  0  0  -0.393649  -0.746402  0  2.381089  0
O  O79  1  0.34077138  0.06235031  0.09487752  1  0  -0.863001  0  2.064257  0  0  -0.76614  0  2.363151  0  0  -0.793728  0  2.336362  0  0  -0.393712  -0.746537  0  2.38094  0
O  O80  1  0.65924848  0.56234364  0.59488046  1  0  -0.862832  0  2.064443  0  0  -0.766014  0  2.363392  0  0  -0.793598  0  2.336583  0  0  -0.393644  -0.746407  0  2.381174  0
O  O81  1  0.65924465  0.93765620  0.90511916  1  0  -0.862832  0  2.064452  0  0  -0.766017  0  2.363399  0  0  -0.793597  0  2.33659  0  0  -0.393661  -0.746414  0  2.381185  0
