# generated using pymatgen
data_TbH14C18NO8F
_symmetry_space_group_name_H-M   'P 1'
_cell_length_a   11.83722987
_cell_length_b   13.51690010
_cell_length_c   15.34554229
_cell_angle_alpha   98.28997338
_cell_angle_beta   89.98683356
_cell_angle_gamma   115.94844988
_symmetry_Int_Tables_number   1
_chemical_formula_structural   TbH14C18NO8F
_chemical_formula_sum   'Tb4 H56 C72 N4 O32 F4'
_cell_volume   2179.27351959
_cell_formula_units_Z   4
loop_
 _symmetry_equiv_pos_site_id
 _symmetry_equiv_pos_as_xyz
  1  'x, y, z'
loop_
 _atom_site_type_symbol
 _atom_site_label
 _atom_site_symmetry_multiplicity
 _atom_site_fract_x
 _atom_site_fract_y
 _atom_site_fract_z
 _atom_site_occupancy
 _atom_site_pbe_bader_charge
 _atom_site_pbe_bader_spin_density
 _atom_site_pbe_cm5_charge
 _atom_site_pbe_ddec_charge
 _atom_site_pbe_ddec_spin_density
 _atom_site_pbe_ddec_sum_bond_order
 _atom_site_pbe_magmom
Tb  Tb0  1  0.46404678  0.34370165  0.45945198  1  2.176635  -0.00593  1.503105  2.062513  -0.011877  2.188857  -0.012
Tb  Tb1  1  0.12025880  0.65622781  0.04047140  1  2.175592  -0.005964  1.502963  2.064089  -0.011914  2.186719  -0.012
Tb  Tb2  1  0.53595778  0.65629530  0.54055103  1  2.176873  -0.005931  1.503127  2.062414  -0.01188  2.188706  -0.012
Tb  Tb3  1  0.87972898  0.34376264  0.95953804  1  2.175628  -0.005971  1.502937  2.064009  -0.011921  2.186786  -0.012
H  H4  1  0.34706938  0.25266725  0.71043750  1  0.123826  4.5e-05  0.107878  0.118346  9.9e-05  1.019124  0.0
H  H5  1  0.33945654  0.56691562  0.79284589  1  0.091575  4.9e-05  0.11767  0.132646  7.3e-05  0.979339  0.0
H  H6  1  0.16004105  0.29981805  0.94306550  1  0.090219  2.9e-05  0.114026  0.114066  4.2e-05  1.020675  0.0
H  H7  1  0.39759549  0.00824584  0.89281283  1  0.132371  0.000565  0.122839  0.155297  0.000655  0.974824  0.0
H  H8  1  0.03965060  0.10790690  0.88634483  1  0.102571  0.000543  0.110196  0.121053  0.000375  1.010231  0.0
H  H9  1  0.01425511  0.93669235  0.94490898  1  0.073922  9.7e-05  0.103218  0.102845  -1.3e-05  1.043047  0.0
H  H10  1  0.12800517  0.07106854  0.18005196  1  0.060633  0.000101  0.102869  0.115423  6.6e-05  1.010714  0.0
H  H11  1  0.24478334  0.08266767  0.10309507  1  0.065937  -9e-06  0.108899  0.126799  -8.4e-05  0.993945  0.0
H  H12  1  0.28206476  0.09650108  0.21899376  1  0.116529  -1e-05  0.123069  0.1476  -1.7e-05  0.973427  0.0
H  H13  1  0.29229963  0.37127625  0.12105478  1  0.032153  3e-06  0.115351  0.131308  -1.7e-05  0.980164  0.0
H  H14  1  0.29545271  0.25780763  0.04663147  1  0.074592  6.8e-05  0.105299  0.120689  5.5e-05  0.997886  0.0
H  H15  1  0.14968732  0.24822539  0.08708125  1  0.062342  4.9e-05  0.106839  0.124554  4.2e-05  0.998847  0.0
H  H16  1  0.35766458  0.38848005  0.25539034  1  0.100268  -1.2e-05  0.126041  0.043086  -6.1e-05  1.001382  0.0
H  H17  1  0.58780370  0.20507200  0.42826029  1  0.590883  -0.006779  0.30213  0.372463  -0.004008  0.927088  -0.003
H  H18  1  0.09318223  0.74697490  0.78957571  1  0.10277  4.5e-05  0.108043  0.118315  9.4e-05  1.019713  0.0
H  H19  1  0.77156723  0.43283197  0.70701391  1  0.136236  4.5e-05  0.1177  0.132634  7.3e-05  0.97947  0.0
H  H20  1  0.85959523  0.69985605  0.55674024  1  0.089235  2.9e-05  0.113983  0.114281  4.4e-05  1.020496  0.0
H  H21  1  0.38849436  0.99184037  0.60761150  1  0.122109  0.000581  0.122988  0.155599  0.00067  0.974392  0.0
H  H22  1  0.93094608  0.89206603  0.61404972  1  0.128698  0.000539  0.110135  0.120814  0.000377  1.010188  0.0
H  H23  1  0.07659771  0.06334819  0.55553849  1  0.083048  0.0001  0.102912  0.10225  -1.4e-05  1.043736  0.0
H  H24  1  0.05810572  0.92906348  0.32014621  1  0.066646  0.000104  0.102817  0.114958  6.8e-05  1.011207  0.0
H  H25  1  0.16287964  0.91723673  0.39724571  1  0.060709  -1.1e-05  0.108673  0.126247  -8.7e-05  0.994568  0.0
H  H26  1  0.18655615  0.90325677  0.28138824  1  0.108702  -8e-06  0.123135  0.147835  -1.2e-05  0.973257  0.0
H  H27  1  0.92168784  0.62877995  0.37930107  1  0.029523  3e-06  0.11535  0.13124  -1.7e-05  0.97973  0.0
H  H28  1  0.03852438  0.74198575  0.45368314  1  0.057446  7e-05  0.105327  0.120548  5.6e-05  0.997815  0.0
H  H29  1  0.90249548  0.75198993  0.41353414  1  0.039662  5.3e-05  0.106735  0.124396  4.4e-05  0.9995  0.0
H  H30  1  0.96905039  0.61153069  0.24485470  1  0.105214  -1.2e-05  0.125961  0.042891  -6.1e-05  1.000648  0.0
H  H31  1  0.38273216  0.79453257  0.07252333  1  0.604939  -0.00665  0.30198  0.372423  -0.003967  0.927534  -0.003
H  H32  1  0.65290193  0.74733584  0.28954209  1  0.123574  4.5e-05  0.107877  0.118311  9.9e-05  1.01917  0.0
H  H33  1  0.66052958  0.43308334  0.20717234  1  0.091554  4.9e-05  0.117666  0.132659  7.3e-05  0.979237  0.0
H  H34  1  0.83992845  0.70015101  0.05691609  1  0.08998  2.9e-05  0.114121  0.114203  4.2e-05  1.020632  0.0
H  H35  1  0.60244104  0.99178467  0.10720375  1  0.132443  0.000564  0.122894  0.155328  0.000654  0.974653  0.0
H  H36  1  0.96038509  0.89210333  0.11365707  1  0.102875  0.000543  0.110222  0.121096  0.000374  1.009927  0.0
H  H37  1  0.98577332  0.06331012  0.05508031  1  0.07409  9.7e-05  0.103185  0.102819  -1.4e-05  1.042998  0.0
H  H38  1  0.87199460  0.92897969  0.81997641  1  0.060808  0.000101  0.102849  0.115251  6.6e-05  1.010909  0.0
H  H39  1  0.75518319  0.91733940  0.89691365  1  0.06568  -9e-06  0.108854  0.12665  -8.4e-05  0.993984  0.0
H  H40  1  0.71793126  0.90351091  0.78101225  1  0.11617  -1e-05  0.123102  0.147593  -1.7e-05  0.973445  0.0
H  H41  1  0.70777045  0.62875378  0.87894024  1  0.032222  3e-06  0.115303  0.131387  -1.7e-05  0.980031  0.0
H  H42  1  0.70459352  0.74220340  0.95336921  1  0.075302  6.8e-05  0.105175  0.120359  5.5e-05  0.998038  0.0
H  H43  1  0.85036530  0.75182040  0.91291230  1  0.061668  5e-05  0.10696  0.124764  4.2e-05  0.998827  0.0
H  H44  1  0.64238312  0.61154913  0.74460393  1  0.100337  -1.2e-05  0.125903  0.042807  -6.1e-05  1.001306  0.0
H  H45  1  0.41219518  0.79492371  0.57172432  1  0.590759  -0.006779  0.302074  0.37232  -0.004005  0.927269  -0.003
H  H46  1  0.90679883  0.25301393  0.21043550  1  0.102693  4.5e-05  0.107971  0.118312  9.5e-05  1.019822  0.0
H  H47  1  0.22842128  0.56715654  0.29298293  1  0.136497  4.5e-05  0.117669  0.132592  7.3e-05  0.979478  0.0
H  H48  1  0.14036809  0.30013952  0.44327500  1  0.089127  2.9e-05  0.113991  0.114238  4.4e-05  1.020517  0.0
H  H49  1  0.61150105  0.00813490  0.39238839  1  0.122184  0.00058  0.122996  0.155646  0.00067  0.97439  0.0
H  H50  1  0.06904346  0.10794314  0.38594163  1  0.129007  0.000538  0.110163  0.120887  0.000377  1.010277  0.0
H  H51  1  0.92341803  0.93665591  0.44444968  1  0.083156  0.000101  0.102904  0.102287  -1.4e-05  1.043555  0.0
H  H52  1  0.94189506  0.07092592  0.67985333  1  0.066386  0.000104  0.102787  0.115027  6.8e-05  1.011229  0.0
H  H53  1  0.83713081  0.08274330  0.60274365  1  0.060359  -1.1e-05  0.108654  0.126268  -8.7e-05  0.994556  0.0
H  H54  1  0.81343990  0.09672484  0.71859739  1  0.108904  -8e-06  0.12311  0.147806  -1.2e-05  0.973201  0.0
H  H55  1  0.07831592  0.37121373  0.62070418  1  0.029978  3e-06  0.115359  0.131258  -1.7e-05  0.979625  0.0
H  H56  1  0.96148934  0.25801432  0.54631044  1  0.057582  7e-05  0.105384  0.120598  5.6e-05  0.997811  0.0
H  H57  1  0.09751661  0.24801027  0.58646532  1  0.041037  5.3e-05  0.106723  0.124401  4.4e-05  0.999566  0.0
H  H58  1  0.03093534  0.38846070  0.75512226  1  0.105271  -1.2e-05  0.126009  0.042962  -6.1e-05  1.00062  0.0
H  H59  1  0.61724790  0.20545423  0.92747136  1  0.604901  -0.00665  0.301914  0.372332  -0.00396  0.927633  -0.003
C  C60  1  0.25437691  0.26309443  0.83112078  1  -0.032054  0.00023  -0.008918  0.073437  0.000205  4.022975  0.0
C  C61  1  0.31798679  0.30386795  0.75748896  1  0.007849  0.001129  -0.073818  -0.123288  0.00113  3.903158  0.001
C  C62  1  0.34476348  0.41136533  0.74227182  1  -0.062268  -6e-06  -0.019353  -0.042124  -6.8e-05  3.982022  0.0
C  C63  1  0.31444809  0.48193555  0.80330993  1  -0.034584  0.001566  -0.071351  -0.108345  0.001604  3.915275  0.001
C  C64  1  0.24786358  0.44054615  0.87546182  1  0.013696  -0.000213  -0.013312  -0.028861  -0.000198  3.997197  0.0
C  C65  1  0.21493904  0.33114252  0.88770520  1  -0.043523  0.001686  -0.070729  -0.13007  0.001734  3.914333  0.001
C  C66  1  0.23181157  0.15388038  0.85415029  1  0.086914  0.005331  -0.009265  -0.030389  0.005431  4.005497  0.003
C  C67  1  0.32850266  0.12035987  0.85514262  1  0.375618  -0.000767  0.100468  0.238026  -0.001253  4.040293  -0.001
C  C68  1  0.31769196  0.02768110  0.88971140  1  0.034549  0.004066  -0.087021  -0.216634  0.004497  3.964702  0.002
C  C69  1  0.11691068  0.08427372  0.88584732  1  -0.046757  0.002146  -0.086191  -0.124299  0.002285  3.986668  0.001
C  C70  1  0.40487391  0.44893274  0.65925002  1  1.57589  6.9e-05  0.227278  0.637429  0.000126  4.165334  0.0
C  C71  1  0.19252813  0.86836615  0.96971457  1  1.555378  -0.000144  0.209149  0.543584  0.005563  4.211265  -0.005
C  C72  1  0.20360151  0.96220112  0.92357332  1  -0.019161  0.024059  -0.01282  -0.007223  0.026368  3.992301  0.019
C  C73  1  0.10244641  0.98926556  0.91907488  1  -0.060304  0.005788  -0.091865  -0.12155  0.005903  4.009079  0.004
C  C74  1  0.20612480  0.50977139  0.93889300  1  1.571159  -0.00025  0.215015  0.63136  -0.000217  4.175532  0.0
C  C75  1  0.22896892  0.11374155  0.16975087  1  0.239013  5e-06  -0.125258  -0.26048  -1.1e-05  3.8508  0.0
C  C76  1  0.25117876  0.28016915  0.10421915  1  0.304058  1.6e-05  -0.125691  -0.280553  2.2e-05  3.912987  0.0
C  C77  1  0.32431003  0.29864238  0.25637148  1  1.384472  -0.000225  0.188307  0.329082  -0.000133  4.104918  0.0
C  C78  1  0.99039963  0.73658935  0.66883587  1  -0.002425  0.000229  -0.008865  0.073458  0.000201  4.023514  0.0
C  C79  1  0.01305885  0.69576809  0.74247569  1  -0.093647  0.001129  -0.074719  -0.124327  0.001124  3.90426  0.001
C  C80  1  0.93236089  0.58831315  0.75771166  1  0.052712  -9e-06  -0.018583  -0.040588  -6.8e-05  3.980991  0.0
C  C81  1  0.83163273  0.51776954  0.69660871  1  -0.053273  0.001555  -0.071498  -0.108754  0.001593  3.916351  0.001
C  C82  1  0.80670372  0.55917470  0.62437771  1  0.028939  -0.000207  -0.013493  -0.02951  -0.000195  3.999568  0.0
C  C83  1  0.88311135  0.66857652  0.61214808  1  -0.070768  0.00165  -0.07032  -0.129768  0.001702  3.914891  0.001
C  C84  1  0.07712267  0.84591666  0.64599448  1  0.009346  0.005269  -0.009425  -0.031091  0.005338  4.003745  0.003
C  C85  1  0.20737157  0.87957932  0.64514248  1  0.378416  -0.00076  0.101374  0.239731  -0.001237  4.039378  -0.001
C  C86  1  0.28914271  0.97232653  0.61056988  1  0.062642  0.003991  -0.088127  -0.219399  0.004454  3.964916  0.002
C  C87  1  0.03182163  0.91562020  0.61442529  1  -0.074738  0.002156  -0.086071  -0.123713  0.002285  3.985391  0.001
C  C88  1  0.95497426  0.55085233  0.84078430  1  1.5936  6.8e-05  0.226577  0.636179  0.000125  4.16584  0.0
C  C89  1  0.32333006  0.13158917  0.53049613  1  1.539761  -4.3e-05  0.209233  0.543919  0.005518  4.209305  -0.005
C  C90  1  0.24049686  0.03778166  0.57664823  1  -0.035541  0.024077  -0.012812  -0.006252  0.02643  3.990871  0.019
C  C91  1  0.11226892  0.01069194  0.58123297  1  -0.008511  0.005699  -0.091434  -0.120726  0.005888  4.006305  0.004
C  C92  1  0.69604805  0.48990580  0.56083672  1  1.567151  -0.00025  0.215059  0.631427  -0.000216  4.177119  0.0
C  C93  1  0.11613462  0.88617964  0.33057062  1  0.242982  7e-06  -0.124953  -0.259645  -1e-05  3.851551  0.0
C  C94  1  0.97185526  0.71986273  0.39620213  1  0.344676  1.6e-05  -0.125897  -0.280685  2.4e-05  3.913843  0.0
C  C95  1  0.02571368  0.70134661  0.24382294  1  1.380002  -0.000229  0.188368  0.328772  -0.000135  4.106531  0.0
C  C96  1  0.74560127  0.73690046  0.16886374  1  -0.031636  0.00023  -0.008944  0.073375  0.000205  4.022864  0.0
C  C97  1  0.68199945  0.69613291  0.24250276  1  0.00778  0.00113  -0.073812  -0.123256  0.001131  3.903439  0.001
C  C98  1  0.65521143  0.58863315  0.25772484  1  -0.062172  -6e-06  -0.019306  -0.04222  -6.8e-05  3.98226  0.0
C  C99  1  0.68552266  0.51805799  0.19668878  1  -0.03434  0.001566  -0.071408  -0.108442  0.001605  3.914937  0.001
C  C100  1  0.75211232  0.55943572  0.12453557  1  0.013805  -0.000214  -0.013272  -0.028466  -0.000199  3.996571  0.0
C  C101  1  0.78503675  0.66883574  0.11227940  1  -0.043644  0.001688  -0.070852  -0.1304  0.001735  3.914131  0.001
C  C102  1  0.76821300  0.84612789  0.14583835  1  0.087224  0.005335  -0.009117  -0.030318  0.005436  4.005317  0.003
C  C103  1  0.67150975  0.87963759  0.14484545  1  0.375924  -0.000769  0.100305  0.237932  -0.001255  4.040051  -0.001
C  C104  1  0.68234709  0.97234260  0.11029854  1  0.034433  0.004068  -0.087063  -0.216694  0.0045  3.964885  0.002
C  C105  1  0.88311024  0.91573231  0.11415280  1  -0.048208  0.002143  -0.086282  -0.124162  0.002282  3.986376  0.001
C  C106  1  0.59511703  0.55107753  0.34075319  1  1.575895  6.9e-05  0.227206  0.637453  0.000126  4.16514  0.0
C  C107  1  0.80750163  0.13164744  0.03028902  1  1.555053  -0.00015  0.208795  0.543152  0.005566  4.211186  -0.005
C  C108  1  0.79642484  0.03781916  0.07643167  1  -0.020095  0.024039  -0.012646  -0.006831  0.026341  3.992389  0.019
C  C109  1  0.89757621  0.01074217  0.08092674  1  -0.059631  0.00579  -0.09188  -0.121815  0.005908  4.00894  0.004
C  C110  1  0.79385036  0.49021069  0.06111419  1  1.570329  -0.00025  0.215174  0.63155  -0.000217  4.175328  0.0
C  C111  1  0.77102748  0.88628303  0.83026048  1  0.239319  5e-06  -0.125261  -0.260165  -1.1e-05  3.851049  0.0
C  C112  1  0.74887745  0.71985846  0.89577950  1  0.303934  1.6e-05  -0.125715  -0.280584  2.3e-05  3.913165  0.0
C  C113  1  0.67570919  0.70139914  0.74361637  1  1.385038  -0.000225  0.188399  0.329363  -0.000133  4.105783  0.0
C  C114  1  0.00956286  0.26339274  0.33117132  1  -0.003519  0.00023  -0.008931  0.073538  0.000202  4.023474  0.0
C  C115  1  0.98691580  0.30422482  0.25753208  1  -0.092313  0.00113  -0.074726  -0.124544  0.001126  3.904335  0.001
C  C116  1  0.06762593  0.41168381  0.24229134  1  0.052456  -9e-06  -0.018611  -0.040366  -6.8e-05  3.980664  0.0
C  C117  1  0.16834581  0.48221594  0.30340147  1  -0.054882  0.001557  -0.071555  -0.109044  0.001595  3.916549  0.001
C  C118  1  0.19328918  0.44081077  0.37563182  1  0.031529  -0.000207  -0.013283  -0.02907  -0.000195  3.999282  0.0
C  C119  1  0.11686374  0.33141726  0.38786174  1  -0.07164  0.00165  -0.07034  -0.129887  0.001703  3.914686  0.001
C  C120  1  0.92285881  0.15406454  0.35401000  1  0.009056  0.00527  -0.009418  -0.03101  0.005339  4.004098  0.003
C  C121  1  0.79262170  0.12041365  0.35486789  1  0.378282  -0.00076  0.101397  0.239721  -0.001237  4.039802  -0.001
C  C122  1  0.71086050  0.02766604  0.38942285  1  0.062348  0.003993  -0.088152  -0.219631  0.004454  3.964902  0.002
C  C123  1  0.96818235  0.08438743  0.38557176  1  -0.075214  0.002157  -0.086059  -0.123708  0.002286  3.985515  0.001
C  C124  1  0.04500036  0.44914049  0.15921954  1  1.593771  6.8e-05  0.226708  0.636158  0.000124  4.165365  0.0
C  C125  1  0.67668568  0.86840818  0.46948736  1  1.539602  -3.4e-05  0.20908  0.543843  0.005528  4.209348  -0.005
C  C126  1  0.75951814  0.96221082  0.42334058  1  -0.035494  0.024059  -0.012669  -0.005847  0.026411  3.990795  0.019
C  C127  1  0.88773169  0.98930220  0.41875538  1  -0.008011  0.0057  -0.091466  -0.120851  0.005889  4.006305  0.004
C  C128  1  0.30394430  0.51009548  0.43917395  1  1.567329  -0.00025  0.215031  0.63132  -0.000216  4.177443  0.0
C  C129  1  0.88387460  0.11380634  0.66942528  1  0.243152  7e-06  -0.12485  -0.25969  -1e-05  3.851545  0.0
C  C130  1  0.02814970  0.28012659  0.60379415  1  0.342665  1.6e-05  -0.125926  -0.280774  2.4e-05  3.91389  0.0
C  C131  1  0.97427968  0.29864990  0.75615981  1  1.379661  -0.000229  0.188397  0.328674  -0.000136  4.105734  0.0
N  N132  1  0.27195025  0.23386256  0.17910076  1  -1.211463  0.000867  -0.275414  0.034448  0.000865  3.704068  0.001
N  N133  1  0.03871823  0.76612191  0.32124173  1  -1.198321  0.000896  -0.275503  0.034503  0.000894  3.704504  0.001
N  N134  1  0.72807316  0.76616873  0.82091396  1  -1.210955  0.000868  -0.275549  0.034147  0.000866  3.703562  0.001
N  N135  1  0.96128163  0.23386733  0.67875062  1  -1.198411  0.000896  -0.275479  0.034632  0.000894  3.704473  0.001
O  O136  1  0.42955863  0.54761789  0.64749121  1  -1.188694  0.001559  -0.393799  -0.670606  0.002273  2.282878  0.001
O  O137  1  0.42616180  0.37821943  0.60684339  1  -1.189042  0.001246  -0.396219  -0.65941  0.001252  2.344987  0.001
O  O138  1  0.27655636  0.61190062  0.96503706  1  -1.172483  -0.000691  -0.36715  -0.611915  -0.001307  2.159308  0.0
O  O139  1  0.09476689  0.46186198  0.96587543  1  -1.213699  8.9e-05  -0.436654  -0.75537  7.1e-05  2.454739  0.0
O  O140  1  0.28544309  0.84301116  0.96461507  1  -0.947951  0.340971  -0.22602  -0.388404  0.339718  2.030971  0.298
O  O141  1  0.09604844  0.81920264  0.01119823  1  -1.167999  0.013396  -0.362794  -0.601157  0.011925  2.224161  0.011
O  O142  1  0.33507703  0.26165443  0.32450858  1  -1.165125  0.001502  -0.361967  -0.538848  0.001785  2.383289  0.001
O  O143  1  0.50678972  0.19603790  0.40396786  1  -0.850423  0.605602  -0.505119  -0.641895  0.602772  1.568525  0.496
O  O144  1  0.88105107  0.45219645  0.85263342  1  -1.200021  0.001576  -0.393911  -0.670472  0.0023  2.281389  0.001
O  O145  1  0.04696259  0.62152459  0.89315987  1  -1.196073  0.001232  -0.395496  -0.659754  0.001237  2.342529  0.001
O  O146  1  0.66461075  0.38780093  0.53472415  1  -1.173906  -0.000678  -0.367474  -0.611985  -0.001288  2.158511  0.0
O  O147  1  0.63262833  0.53772509  0.53363910  1  -1.213089  9e-05  -0.436896  -0.754649  7.3e-05  2.456256  0.0
O  O148  1  0.44149876  0.15647689  0.53541750  1  -0.942645  0.341324  -0.225792  -0.388725  0.340113  2.029958  0.298
O  O149  1  0.27623855  0.18106959  0.48920534  1  -1.172955  0.013449  -0.362284  -0.601872  0.012002  2.222859  0.012
O  O150  1  0.07312566  0.73822940  0.17562124  1  -1.173942  0.001549  -0.361373  -0.537968  0.00184  2.383869  0.001
O  O151  1  0.31049175  0.80366160  0.09623684  1  -0.864862  0.605736  -0.505362  -0.642581  0.602962  1.56969  0.497
O  O152  1  0.57045851  0.45239411  0.35251545  1  -1.188486  0.00156  -0.393671  -0.670576  0.002274  2.282298  0.001
O  O153  1  0.57383127  0.62178496  0.39315720  1  -1.189347  0.001247  -0.396271  -0.65939  0.001253  2.34526  0.001
O  O154  1  0.72342566  0.38807660  0.03497544  1  -1.171796  -0.000692  -0.367347  -0.612096  -0.001308  2.159017  0.0
O  O155  1  0.90521180  0.53812210  0.03414698  1  -1.21368  8.9e-05  -0.436636  -0.755565  7.1e-05  2.455054  0.0
O  O156  1  0.71458803  0.15701698  0.03540711  1  -0.948154  0.340917  -0.225819  -0.388257  0.339667  2.03056  0.298
O  O157  1  0.90396898  0.18079808  0.98878695  1  -1.16717  0.013391  -0.362744  -0.601037  0.01192  2.224065  0.011
O  O158  1  0.66492375  0.73836709  0.67551481  1  -1.166264  0.001499  -0.361774  -0.53851  0.001782  2.385215  0.001
O  O159  1  0.49321495  0.80397447  0.59601799  1  -0.85034  0.605611  -0.505028  -0.641695  0.602776  1.568608  0.496
O  O160  1  0.11891484  0.54780093  0.14738854  1  -1.199889  0.001576  -0.393888  -0.670449  0.002301  2.281357  0.001
O  O161  1  0.95300785  0.37846328  0.10684537  1  -1.196174  0.001232  -0.395649  -0.659795  0.001237  2.342302  0.001
O  O162  1  0.33538543  0.61219278  0.46528240  1  -1.173881  -0.000679  -0.367451  -0.611954  -0.001289  2.158841  0.0
O  O163  1  0.36735735  0.46225438  0.46636257  1  -1.2131  9.1e-05  -0.43683  -0.754484  7.4e-05  2.455974  0.0
O  O164  1  0.55851932  0.84350487  0.46457531  1  -0.942303  0.341292  -0.22577  -0.388782  0.340071  2.029984  0.298
O  O165  1  0.72375539  0.81892301  0.51078870  1  -1.173187  0.013475  -0.362326  -0.601974  0.012028  2.222962  0.012
O  O166  1  0.92685137  0.26176994  0.82437682  1  -1.173256  0.001551  -0.361482  -0.538048  0.001843  2.383032  0.001
O  O167  1  0.68948551  0.19631791  0.90376679  1  -0.864667  0.605824  -0.50524  -0.642427  0.603031  1.569583  0.497
F  F168  1  0.44224395  0.18594689  0.82610725  1  -0.635329  0.001848  -0.088769  -0.134284  0.002  1.355048  0.001
F  F169  1  0.25566783  0.81421643  0.67440819  1  -0.638461  0.001868  -0.089195  -0.134399  0.002029  1.354709  0.001
F  F170  1  0.55775818  0.81404182  0.17386158  1  -0.635046  0.001846  -0.088675  -0.134246  0.001997  1.35504  0.001
F  F171  1  0.74432305  0.18577851  0.32561675  1  -0.638496  0.001867  -0.089181  -0.134378  0.002028  1.354829  0.001
