# generated using pymatgen
data_CuH2(CO)3
_symmetry_space_group_name_H-M   'P 1'
_cell_length_a   3.68598067
_cell_length_b   10.77180615
_cell_length_c   14.10614159
_cell_angle_alpha   89.99994317
_cell_angle_beta   89.99964318
_cell_angle_gamma   96.29128462
_symmetry_Int_Tables_number   1
_chemical_formula_structural   CuH2(CO)3
_chemical_formula_sum   'Cu6 H12 C18 O18'
_cell_volume   556.70668246
_cell_formula_units_Z   6
loop_
 _symmetry_equiv_pos_site_id
 _symmetry_equiv_pos_as_xyz
  1  'x, y, z'
loop_
 _atom_site_type_symbol
 _atom_site_label
 _atom_site_symmetry_multiplicity
 _atom_site_fract_x
 _atom_site_fract_y
 _atom_site_fract_z
 _atom_site_occupancy
 _atom_site_hle17_ddec_charge
 _atom_site_hle17_ddec_spin_density
 _atom_site_hle17_ddec_sum_bond_order
 _atom_site_hle17_magmom
 _atom_site_hse06_10hf_ddec_charge
 _atom_site_hse06_10hf_ddec_spin_density
 _atom_site_hse06_10hf_ddec_sum_bond_order
 _atom_site_hse06_10hf_magmom
 _atom_site_hse06_ddec_charge
 _atom_site_hse06_ddec_spin_density
 _atom_site_hse06_ddec_sum_bond_order
 _atom_site_hse06_magmom
 _atom_site_pbe_cm5_charge
 _atom_site_pbe_ddec_charge
 _atom_site_pbe_ddec_spin_density
 _atom_site_pbe_ddec_sum_bond_order
 _atom_site_pbe_magmom
Cu  Cu0  1  0.55639087  0.27610924  0.63122027  1  1.06099  0.708525  1.698542  0.545  1.077549  0.803286  2.085458  0.668  1.163716  0.860056  2.019665  0.75  0.695438  1.014715  0.76507  2.145038  0.617
Cu  Cu1  1  0.44361437  0.72388794  0.13121954  1  1.061093  0.708508  1.698397  0.545  1.077625  0.803272  2.085294  0.668  1.163826  0.860061  2.019511  0.75  0.69546  1.014791  0.765052  2.144894  0.617
Cu  Cu2  1  0.44360288  0.72388676  0.36878840  1  1.06115  0.708611  1.698857  0.545  1.077752  0.80334  2.085741  0.668  1.163835  0.860081  2.020027  0.75  0.695562  1.014893  0.765125  2.145385  0.617
Cu  Cu3  1  0.55639965  0.27611173  0.86878984  1  1.06123  0.708602  1.698777  0.545  1.077779  0.803326  2.085638  0.668  1.163867  0.860089  2.019966  0.75  0.695585  1.014931  0.765114  2.145284  0.617
Cu  Cu4  1  0.00000784  0.50000810  0.49999551  1  1.060786  0.701289  1.740247  0.537  1.069191  0.790355  2.158573  0.655  1.161753  0.847561  2.077448  0.735  0.683262  1.001638  0.747394  2.225731  0.601
Cu  Cu5  1  0.99999534  0.49999381  0.99999396  1  1.06086  0.701294  1.740172  0.537  1.069278  0.790369  2.158532  0.655  1.161797  0.847557  2.077424  0.735  0.683261  1.001675  0.747407  2.225717  0.601
H  H6  1  0.65652139  0.44588192  0.74999889  1  0.389749  -0.002806  0.869464  -0.003  0.382077  0.00057  0.916918  0.001  0.392343  0.000103  0.9079  0.0  0.292913  0.374299  0.00107  0.924041  0.001
H  H7  1  0.34348450  0.55411778  0.24999631  1  0.38973  -0.002808  0.869424  -0.003  0.382059  0.00057  0.91688  0.001  0.392323  0.000103  0.907867  0.0  0.292925  0.374285  0.00107  0.924003  0.001
H  H8  1  0.10882470  0.42243080  0.65635359  1  0.388808  -0.002054  0.903117  -0.002  0.371609  0.000926  0.971926  0.001  0.384662  0.000363  0.95327  0.001  0.276908  0.362218  0.001398  0.981282  0.002
H  H9  1  0.89118359  0.57756912  0.15635369  1  0.388833  -0.002055  0.902956  -0.002  0.371636  0.000926  0.97177  0.001  0.384688  0.000363  0.953201  0.001  0.276923  0.36225  0.001398  0.981125  0.002
H  H10  1  0.89119236  0.57756980  0.34365012  1  0.388817  -0.002051  0.90306  -0.002  0.371611  0.000929  0.971886  0.001  0.384665  0.000365  0.953255  0.001  0.276954  0.362224  0.0014  0.981243  0.002
H  H11  1  0.10881321  0.42242781  0.84365002  1  0.388825  -0.002051  0.903029  -0.002  0.371623  0.000929  0.971851  0.001  0.384676  0.000365  0.953231  0.001  0.276961  0.362231  0.0014  0.981206  0.002
H  H12  1  0.67814938  0.36073256  0.25000676  1  0.098943  0.000291  0.957501  0.0  0.108911  0.000403  1.020474  0.0  0.113089  0.000266  1.015942  0.0  0.099492  0.105498  0.00056  1.024435  0.0
H  H13  1  0.32184664  0.63926997  0.75000050  1  0.09896  0.00029  0.957461  0.0  0.10892  0.000403  1.02043  0.0  0.1131  0.000266  1.015895  0.0  0.099482  0.105508  0.000559  1.02438  0.0
H  H14  1  0.13637221  0.04780596  0.40283151  1  0.135628  0.000239  0.91097  0.0  0.146048  0.00017  0.965173  0.0  0.149972  9.7e-05  0.961531  0.0  0.121993  0.142938  0.00026  0.968225  0.0
H  H15  1  0.86364583  0.95218492  0.90283055  1  0.135678  0.000238  0.910919  0.0  0.146078  0.000169  0.965137  0.0  0.150001  9.7e-05  0.961498  0.0  0.122024  0.142965  0.000259  0.968184  0.0
H  H16  1  0.86364129  0.95218437  0.59716511  1  0.135681  0.000239  0.910985  0.0  0.146129  0.00017  0.965136  0.0  0.150049  9.7e-05  0.9615  0.0  0.122057  0.143019  0.00026  0.968189  0.0
H  H17  1  0.13633523  0.04782140  0.09716465  1  0.135701  0.000239  0.910975  0.0  0.146112  0.00017  0.965196  0.0  0.150034  9.7e-05  0.961559  0.0  0.12203  0.142997  0.00026  0.968245  0.0
C  C18  1  0.54286161  0.27380558  0.42699576  1  0.659629  -0.00932  3.848984  -0.009  0.619055  0.000367  4.143422  -0.001  0.659416  -0.00074  4.13898  -0.001  0.217651  0.59135  0.001809  4.144949  0.0
C  C19  1  0.45714376  0.72619744  0.92699702  1  0.659864  -0.009307  3.848815  -0.009  0.619166  0.000367  4.143322  -0.001  0.659528  -0.000743  4.138874  -0.001  0.217688  0.591467  0.001807  4.144839  0.0
C  C20  1  0.45714222  0.72619600  0.57300440  1  0.659611  -0.009321  3.848736  -0.009  0.619006  0.000365  4.143142  -0.001  0.659371  -0.000743  4.138692  -0.001  0.217688  0.591298  0.001806  4.144669  0.0
C  C21  1  0.54283665  0.27380702  0.07300598  1  0.659625  -0.009309  3.848552  -0.009  0.619072  0.000365  4.142842  -0.001  0.659435  -0.000743  4.138393  -0.001  0.217773  0.591376  0.001806  4.144364  0.0
C  C22  1  0.41968285  0.21133935  0.33603337  1  -0.080269  0.017573  3.755365  0.02  -0.05484  0.009845  3.990622  0.012  -0.069783  0.006953  4.016672  0.009  -0.018917  -0.045433  0.011876  3.973702  0.014
C  C23  1  0.58031922  0.78865548  0.83603085  1  -0.080539  0.017552  3.755627  0.02  -0.054931  0.009847  3.990673  0.012  -0.069879  0.006957  4.01673  0.009  -0.018984  -0.045523  0.011877  3.973751  0.014
C  C24  1  0.58031361  0.78865664  0.66396679  1  -0.080479  0.017553  3.755446  0.02  -0.054889  0.009845  3.990465  0.012  -0.069835  0.006954  4.016521  0.009  -0.018961  -0.045482  0.011874  3.973547  0.014
C  C25  1  0.41967171  0.21134800  0.16396718  1  -0.080494  0.017564  3.75571  0.02  -0.054876  0.009844  3.990682  0.012  -0.069822  0.006954  4.016736  0.009  -0.018999  -0.045477  0.011874  3.973771  0.014
C  C26  1  0.51554002  0.27024692  0.24999486  1  -0.046566  -0.003609  3.69317  -0.002  -0.083138  0.000815  3.937233  0.001  -0.076831  -0.00027  3.955545  0.0  -0.074559  -0.08707  0.001999  3.925295  0.002
C  C27  1  0.48444040  0.72975754  0.74999892  1  -0.046428  -0.003571  3.693016  -0.002  -0.083007  0.000814  3.937005  0.001  -0.076704  -0.000271  3.955321  0.0  -0.074482  -0.086941  0.001997  3.925059  0.002
C  C28  1  0.86797083  0.91493905  0.25000215  1  0.637888  -0.008272  3.902576  -0.008  0.592754  -0.000454  4.215961  -0.001  0.633725  -0.001093  4.208043  0.0  0.215145  0.564895  0.000477  4.218424  -0.001
C  C29  1  0.13202997  0.08506160  0.75000510  1  0.637811  -0.008266  3.902648  -0.008  0.5927  -0.000454  4.216007  -0.001  0.633671  -0.001096  4.20809  0.0  0.215114  0.564843  0.000476  4.218474  -0.001
C  C30  1  0.10595211  0.03711585  0.25000023  1  -0.076543  0.01644  3.737571  0.019  -0.046492  0.008747  3.964702  0.011  -0.062835  0.006208  3.992654  0.008  -0.014328  -0.036444  0.010647  3.947079  0.012
C  C31  1  0.89404120  0.96288670  0.75000064  1  -0.076461  0.016425  3.737543  0.019  -0.046495  0.008748  3.96473  0.011  -0.062822  0.006208  3.992638  0.008  -0.014363  -0.036453  0.010647  3.947115  0.012
C  C32  1  0.21421026  0.09415889  0.33614700  1  -0.02168  -0.00439  3.621782  -0.002  -0.060933  0.000468  3.864883  0.001  -0.053223  -0.000467  3.88137  0.0  -0.057099  -0.066232  0.001369  3.854785  0.002
C  C33  1  0.78580795  0.90584337  0.83614337  1  -0.02172  -0.004357  3.621867  -0.002  -0.060998  0.000467  3.86492  0.001  -0.053289  -0.000467  3.881414  0.0  -0.05712  -0.06629  0.001368  3.854818  0.002
C  C34  1  0.78580603  0.90584732  0.66385529  1  -0.021684  -0.00437  3.62166  -0.002  -0.060973  0.000467  3.864689  0.001  -0.053267  -0.000466  3.881191  0.0  -0.057096  -0.066271  0.001368  3.854597  0.002
C  C35  1  0.21418722  0.09414888  0.16385750  1  -0.021632  -0.004394  3.621699  -0.002  -0.060988  0.000467  3.86479  0.001  -0.053284  -0.000469  3.881288  0.0  -0.057065  -0.066277  0.001368  3.854685  0.002
O  O36  1  0.48823571  0.36935358  0.75000330  1  -0.891516  0.160025  1.907349  0.226  -0.873597  0.108623  2.18497  0.163  -0.927838  0.08054  2.15617  0.131  -0.577121  -0.835945  0.126478  2.206363  0.179
O  O37  1  0.51177496  0.63064423  0.25000395  1  -0.891499  0.160031  1.907282  0.226  -0.873576  0.108627  2.1849  0.163  -0.927823  0.080544  2.15611  0.131  -0.577137  -0.835928  0.12648  2.206296  0.179
O  O38  1  0.99706227  0.38109057  0.59994840  1  -0.924904  0.164972  2.046413  0.235  -0.943167  0.101294  2.403199  0.154  -1.001966  0.074348  2.363654  0.123  -0.601231  -0.898222  0.120292  2.426146  0.174
O  O39  1  0.00295049  0.61891040  0.09994702  1  -0.92496  0.164967  2.04628  0.235  -0.943206  0.101294  2.403078  0.154  -1.002005  0.074347  2.363618  0.123  -0.601221  -0.898266  0.120292  2.426053  0.174
O  O40  1  0.00299868  0.61891924  0.40004538  1  -0.924991  0.164929  2.046659  0.235  -0.94329  0.101277  2.403596  0.154  -1.00206  0.074339  2.364063  0.123  -0.601311  -0.898325  0.120266  2.426515  0.174
O  O41  1  0.99700880  0.38108009  0.90004605  1  -0.924993  0.164937  2.046613  0.235  -0.943321  0.101278  2.403573  0.154  -1.00208  0.07434  2.364042  0.123  -0.601336  -0.898362  0.12027  2.426527  0.174
O  O42  1  0.65333104  0.39113830  0.42087347  1  -0.659439  0.064756  2.11139  0.095  -0.636276  0.045668  2.421374  0.073  -0.677641  0.033091  2.403769  0.058  -0.335894  -0.607002  0.053715  2.433214  0.08
O  O43  1  0.34666029  0.60886291  0.92087216  1  -0.659607  0.064776  2.111168  0.095  -0.63644  0.045677  2.421218  0.073  -0.677799  0.033097  2.4036  0.058  -0.335981  -0.607149  0.053727  2.433046  0.08
O  O44  1  0.34664354  0.60884935  0.57912456  1  -0.659461  0.064808  2.111048  0.095  -0.636346  0.045698  2.421131  0.073  -0.677727  0.033112  2.403543  0.058  -0.335998  -0.607066  0.05375  2.432968  0.08
O  O45  1  0.65333517  0.39115365  0.07912800  1  -0.659513  0.064804  2.111017  0.095  -0.636434  0.045695  2.421039  0.073  -0.677798  0.033112  2.403437  0.058  -0.33603  -0.607136  0.053744  2.432866  0.08
O  O46  1  0.52472124  0.20711702  0.50118192  1  -0.539158  0.071696  2.035486  0.101  -0.506517  0.047636  2.295899  0.073  -0.546914  0.034193  2.286639  0.057  -0.29502  -0.47831  0.0568  2.301943  0.083
O  O47  1  0.47529818  0.79288043  0.00117968  1  -0.539217  0.071671  2.035684  0.101  -0.50653  0.047628  2.296124  0.073  -0.546931  0.034188  2.286867  0.057  -0.295006  -0.478328  0.056794  2.302167  0.083
O  O48  1  0.47530678  0.79287607  0.49881328  1  -0.539151  0.071681  2.035698  0.101  -0.50655  0.047635  2.296183  0.073  -0.546921  0.034196  2.286915  0.057  -0.295055  -0.478342  0.056798  2.302234  0.083
O  O49  1  0.52468592  0.20712682  0.99881552  1  -0.53924  0.071674  2.035622  0.101  -0.506524  0.047634  2.295926  0.073  -0.546896  0.034195  2.286667  0.057  -0.295098  -0.478322  0.056795  2.30198  0.083
O  O50  1  0.77735669  0.86936052  0.33106693  1  -0.605988  0.056269  2.125748  0.081  -0.587369  0.035774  2.431136  0.056  -0.624918  0.025422  2.414822  0.044  -0.316278  -0.559448  0.043065  2.4406  0.063
O  O51  1  0.22264886  0.13063618  0.83106757  1  -0.606013  0.056255  2.125898  0.081  -0.58738  0.03577  2.43126  0.056  -0.624934  0.025419  2.41496  0.044  -0.316233  -0.559459  0.043061  2.440719  0.063
O  O52  1  0.22259730  0.13062252  0.66893111  1  -0.605815  0.056299  2.125521  0.081  -0.587282  0.035793  2.430997  0.056  -0.624813  0.025435  2.414595  0.044  -0.316173  -0.559355  0.043087  2.440444  0.063
O  O53  1  0.77740493  0.86937645  0.16893259  1  -0.605928  0.056289  2.125607  0.081  -0.587371  0.035787  2.431084  0.056  -0.624904  0.02543  2.414679  0.044  -0.31619  -0.559445  0.043082  2.44053  0.063
