# generated using pymatgen
data_CdH6C10(NCl3)2
_symmetry_space_group_name_H-M   'P 1'
_cell_length_a   3.77098462
_cell_length_b   14.08421467
_cell_length_c   14.08421157
_cell_angle_alpha   89.99998509
_cell_angle_beta   90.00000036
_cell_angle_gamma   90.00000831
_symmetry_Int_Tables_number   1
_chemical_formula_structural   CdH6C10(NCl3)2
_chemical_formula_sum   'Cd2 H12 C20 N4 Cl12'
_cell_volume   748.03158717
_cell_formula_units_Z   2
loop_
 _symmetry_equiv_pos_site_id
 _symmetry_equiv_pos_as_xyz
  1  'x, y, z'
loop_
 _atom_site_type_symbol
 _atom_site_label
 _atom_site_symmetry_multiplicity
 _atom_site_fract_x
 _atom_site_fract_y
 _atom_site_fract_z
 _atom_site_occupancy
 _atom_site_hle17_bader_spin_density
 _atom_site_hle17_ddec_charge
 _atom_site_hle17_ddec_spin_density
 _atom_site_hle17_ddec_sum_bond_order
 _atom_site_hle17_magmom
 _atom_site_hse06_10hf_bader_spin_density
 _atom_site_hse06_10hf_ddec_charge
 _atom_site_hse06_10hf_ddec_spin_density
 _atom_site_hse06_10hf_ddec_sum_bond_order
 _atom_site_hse06_10hf_magmom
 _atom_site_hse06_bader_spin_density
 _atom_site_hse06_ddec_charge
 _atom_site_hse06_ddec_spin_density
 _atom_site_hse06_ddec_sum_bond_order
 _atom_site_hse06_magmom
 _atom_site_pbe_bader_spin_density
 _atom_site_pbe_cm5_charge
 _atom_site_pbe_ddec_charge
 _atom_site_pbe_ddec_spin_density
 _atom_site_pbe_ddec_sum_bond_order
 _atom_site_pbe_magmom
Cd  Cd0  1  0.49999953  0.50000007  0.99999982  1  0  0.925625  0  2.003225  0  0  0.763641  0  2.457184  0  0  0.808398  0  2.419904  0  0  0.595088  0.73247  0  2.48211  0
Cd  Cd1  1  0.49999966  0.99999961  0.50000017  1  0  0.925621  0  2.003245  0  0  0.763637  0  2.457205  0  0  0.808392  0  2.419929  0  0  0.595091  0.732466  0  2.482134  0
H  H2  1  0.68085681  0.52451911  0.22159345  1  0  0.097287  0  0.958435  0  0  0.098691  0  1.035038  0  0  0.102359  0  1.03121  0  0  0.102465  0.095978  0  1.037901  0
H  H3  1  0.68085680  0.47548116  0.77840702  1  0  0.09736  0  0.958452  0  0  0.09873  0  1.035085  0  0  0.102398  0  1.031258  0  0  0.102487  0.096017  0  1.037949  0
H  H4  1  0.31914218  0.22159341  0.47548062  1  0  0.097363  0  0.958458  0  0  0.098733  0  1.035096  0  0  0.102401  0  1.031267  0  0  0.10249  0.09602  0  1.037958  0
H  H5  1  0.31913968  0.77840685  0.52451914  1  0  0.097397  0  0.958414  0  0  0.098744  0  1.035067  0  0  0.102411  0  1.03124  0  0  0.102486  0.096031  0  1.037932  0
H  H6  1  0.68085932  0.02451963  0.27840678  1  0  0.097366  0  0.958413  0  0  0.098733  0  1.035049  0  0  0.102401  0  1.031221  0  0  0.102474  0.096021  0  1.037915  0
H  H7  1  0.68085693  0.97548065  0.72159369  1  0  0.097306  0  0.958429  0  0  0.098695  0  1.035039  0  0  0.102362  0  1.031212  0  0  0.102462  0.095983  0  1.0379  0
H  H8  1  0.31913966  0.72159366  0.02451956  1  0  0.097365  0  0.958452  0  0  0.098728  0  1.035088  0  0  0.102397  0  1.031259  0  0  0.102485  0.096016  0  1.037952  0
H  H9  1  0.31913955  0.27840660  0.97548091  1  0  0.097387  0  0.958432  0  0  0.098736  0  1.035088  0  0  0.102402  0  1.031263  0  0  0.102487  0.096022  0  1.037953  0
H  H10  1  0.49999961  0.81396513  0.31396493  1  0  0.140276  0  0.964575  0  0  0.148785  0  1.027836  0  0  0.152287  0  1.024762  0  0  0.09535  0.146119  0  1.030293  0
H  H11  1  0.49999945  0.18603514  0.68603483  1  0  0.140257  0  0.964583  0  0  0.148767  0  1.027848  0  0  0.152269  0  1.024773  0  0  0.095351  0.1461  0  1.030301  0
H  H12  1  0.49999947  0.31396495  0.18603451  1  0  0.140381  0  0.964467  0  0  0.148864  0  1.02773  0  0  0.152366  0  1.024655  0  0  0.095392  0.146198  0  1.030183  0
H  H13  1  0.49999958  0.68603460  0.81396525  1  0  0.140394  0  0.964455  0  0  0.148875  0  1.02772  0  0  0.152378  0  1.024644  0  0  0.095407  0.146209  0  1.030174  0
C  C14  1  0.60072656  0.59764211  0.20808115  1  0  0.05581  0  3.686493  0  0  0.010224  0  3.947514  0  0  0.016958  0  3.964048  0  0  0.031081  0.00586  0  3.936462  0
C  C15  1  0.60072651  0.40235887  0.79191932  1  0  0.055835  0  3.686405  0  0  0.010287  0  3.947429  0  0  0.017022  0  3.963962  0  0  0.031115  0.005921  0  3.936376  0
C  C16  1  0.39927244  0.20808113  0.40235902  1  0  0.055865  0  3.686387  0  0  0.010308  0  3.947423  0  0  0.017041  0  3.963955  0  0  0.031123  0.005945  0  3.936371  0
C  C17  1  0.39927260  0.79191913  0.59764145  1  0  0.055771  0  3.686394  0  0  0.010246  0  3.947419  0  0  0.016981  0  3.963952  0  0  0.031115  0.005878  0  3.936373  0
C  C18  1  0.60072643  0.09764120  0.29191906  1  0  0.055821  0  3.686353  0  0  0.010276  0  3.947393  0  0  0.017009  0  3.963926  0  0  0.031119  0.005908  0  3.936348  0
C  C19  1  0.60072665  0.90235836  0.70808141  1  0  0.055803  0  3.686487  0  0  0.010236  0  3.94752  0  0  0.016969  0  3.964057  0  0  0.031084  0.005869  0  3.936467  0
C  C20  1  0.39927257  0.70808136  0.09764116  1  0  0.055799  0  3.686408  0  0  0.01026  0  3.947416  0  0  0.016994  0  3.963948  0  0  0.031129  0.005895  0  3.936366  0
C  C21  1  0.39927247  0.29191890  0.90235860  1  0  0.055831  0  3.686388  0  0  0.010294  0  3.947405  0  0  0.01703  0  3.963938  0  0  0.031125  0.005932  0  3.936351  0
C  C22  1  0.60570406  0.66650359  0.27933113  1  0  0.106566  0  3.787224  0  0  0.124065  0  4.055122  0  0  0.122987  0  4.077237  0  0  0.016458  0.124277  0  4.040398  0
C  C23  1  0.60570397  0.33349597  0.72066863  1  0  0.106505  0  3.787222  0  0  0.123993  0  4.055137  0  0  0.122914  0  4.077252  0  0  0.016441  0.124205  0  4.040406  0
C  C24  1  0.39429763  0.27933112  0.33349609  1  0  0.106484  0  3.787265  0  0  0.123947  0  4.055164  0  0  0.122869  0  4.077278  0  0  0.016385  0.124153  0  4.040446  0
C  C25  1  0.39429510  0.72066914  0.66650438  1  0  0.106541  0  3.787226  0  0  0.123997  0  4.05511  0  0  0.122919  0  4.077225  0  0  0.016441  0.124209  0  4.040384  0
C  C26  1  0.60570392  0.16650412  0.22066906  1  0  0.106526  0  3.787225  0  0  0.12397  0  4.055147  0  0  0.122892  0  4.077261  0  0  0.016422  0.124182  0  4.040422  0
C  C27  1  0.60570411  0.83349615  0.77933141  1  0  0.106528  0  3.787317  0  0  0.123988  0  4.055208  0  0  0.122911  0  4.077323  0  0  0.016446  0.124201  0  4.040479  0
C  C28  1  0.39429511  0.77933133  0.16650336  1  0  0.106547  0  3.787197  0  0  0.124039  0  4.055089  0  0  0.122961  0  4.077204  0  0  0.016433  0.124251  0  4.040367  0
C  C29  1  0.39429762  0.22066893  0.83349640  1  0  0.10648  0  3.787248  0  0  0.123989  0  4.05513  0  0  0.122911  0  4.077244  0  0  0.016406  0.124196  0  4.040408  0
C  C30  1  0.49999960  0.75931743  0.25931722  1  0  -0.128206  0  3.669067  0  0  -0.166732  0  3.916546  0  0  -0.165363  0  3.93401  0  0  -0.085284  -0.167302  0  3.904929  0
C  C31  1  0.49999946  0.24068284  0.74068254  1  0  -0.128095  0  3.669071  0  0  -0.166622  0  3.916545  0  0  -0.165254  0  3.93401  0  0  -0.085248  -0.16719  0  3.90492  0
C  C32  1  0.49999946  0.25931724  0.24068224  1  0  -0.12825  0  3.669023  0  0  -0.166685  0  3.916449  0  0  -0.165316  0  3.933913  0  0  -0.085243  -0.167252  0  3.904827  0
C  C33  1  0.49999960  0.74068303  0.75931752  1  0  -0.128285  0  3.669038  0  0  -0.166729  0  3.916471  0  0  -0.16536  0  3.933935  0  0  -0.085317  -0.167297  0  3.904847  0
N  N34  1  0.49999956  0.61946300  0.11946348  1  0  -0.278278  0  3.302599  0  0  -0.198602  0  3.565135  0  0  -0.218731  0  3.588286  0  0  -0.324111  -0.184915  0  3.549095  0
N  N35  1  0.49999950  0.38053726  0.88053699  1  0  -0.2784  0  3.302596  0  0  -0.198721  0  3.56513  0  0  -0.218849  0  3.588278  0  0  -0.324163  -0.185035  0  3.54909  0
N  N36  1  0.49999942  0.11946278  0.38053673  1  0  -0.278395  0  3.302611  0  0  -0.198698  0  3.565109  0  0  -0.218825  0  3.58826  0  0  -0.324151  -0.185011  0  3.549074  0
N  N37  1  0.49999963  0.88053678  0.61946303  1  0  -0.278293  0  3.30263  0  0  -0.198614  0  3.565144  0  0  -0.21874  0  3.588293  0  0  -0.32412  -0.184926  0  3.549108  0
Cl  Cl38  1  0.00000011  0.40696269  0.09303675  1  0  -0.55429  0  1.025292  0  0  -0.495084  0  1.313796  0  0  -0.512775  0  1.293929  0  0  -0.295603  -0.482161  0  1.327222  0
Cl  Cl39  1  0.00000017  0.59303685  0.90696301  1  0  -0.554298  0  1.025304  0  0  -0.495091  0  1.31381  0  0  -0.512782  0  1.293942  0  0  -0.295605  -0.482168  0  1.327236  0
Cl  Cl40  1  0.00000003  0.09303599  0.59303709  1  0  -0.554279  0  1.0253  0  0  -0.495086  0  1.313816  0  0  -0.512776  0  1.29395  0  0  -0.295611  -0.482161  0  1.327241  0
Cl  Cl41  1  0.00000025  0.90696283  0.40696338  1  0  -0.554287  0  1.025305  0  0  -0.49508  0  1.313803  0  0  -0.512771  0  1.293936  0  0  -0.295596  -0.482155  0  1.327231  0
Cl  Cl42  1  0.74378735  0.63531263  0.39187631  1  0  -0.080857  0  1.388954  0  0  -0.068108  0  1.620854  0  0  -0.072147  0  1.617963  0  0  0.00602  -0.065135  0  1.623009  0
Cl  Cl43  1  0.74378463  0.36468765  0.60812345  1  0  -0.080841  0  1.388972  0  0  -0.068089  0  1.620883  0  0  -0.072129  0  1.617994  0  0  0.006028  -0.065119  0  1.623037  0
Cl  Cl44  1  0.25621171  0.39187626  0.36468703  1  0  -0.080844  0  1.388943  0  0  -0.068095  0  1.620869  0  0  -0.072135  0  1.617978  0  0  0.006021  -0.065122  0  1.623026  0
Cl  Cl45  1  0.25621177  0.60812329  0.63531273  1  0  -0.080843  0  1.388927  0  0  -0.068089  0  1.620846  0  0  -0.072128  0  1.617956  0  0  0.006026  -0.065117  0  1.623001  0
Cl  Cl46  1  0.74378721  0.13531248  0.10812389  1  0  -0.080839  0  1.388943  0  0  -0.068081  0  1.620861  0  0  -0.072121  0  1.617971  0  0  0.006032  -0.065109  0  1.623017  0
Cl  Cl47  1  0.74378742  0.86468780  0.89187658  1  0  -0.080836  0  1.388946  0  0  -0.068085  0  1.620864  0  0  -0.072124  0  1.617973  0  0  0.006022  -0.065114  0  1.623018  0
Cl  Cl48  1  0.25621449  0.89187648  0.13531239  1  0  -0.080832  0  1.388954  0  0  -0.068084  0  1.62086  0  0  -0.072123  0  1.61797  0  0  0.00604  -0.065111  0  1.623016  0
Cl  Cl49  1  0.25621429  0.10812378  0.86468737  1  0  -0.080848  0  1.388963  0  0  -0.068103  0  1.620859  0  0  -0.072142  0  1.617969  0  0  0.006025  -0.065131  0  1.623015  0
