# generated using pymatgen
data_Zn6H28C51(NO13)2
_symmetry_space_group_name_H-M   'P 1'
_cell_length_a   18.70150114
_cell_length_b   18.61462451
_cell_length_c   18.62639110
_cell_angle_alpha   109.28043516
_cell_angle_beta   109.99148720
_cell_angle_gamma   109.39288184
_symmetry_Int_Tables_number   1
_chemical_formula_structural   Zn6H28C51(NO13)2
_chemical_formula_sum   'Zn6 H28 C51 N2 O26'
_cell_volume   4975.87734402
_cell_formula_units_Z   1
loop_
 _symmetry_equiv_pos_site_id
 _symmetry_equiv_pos_as_xyz
  1  'x, y, z'
loop_
 _atom_site_type_symbol
 _atom_site_label
 _atom_site_symmetry_multiplicity
 _atom_site_fract_x
 _atom_site_fract_y
 _atom_site_fract_z
 _atom_site_occupancy
 _atom_site_pbe_bader_charge
 _atom_site_pbe_bader_spin_density
 _atom_site_pbe_cm5_charge
 _atom_site_pbe_ddec_charge
 _atom_site_pbe_ddec_spin_density
 _atom_site_pbe_ddec_sum_bond_order
 _atom_site_pbe_magmom
Zn  Zn0  1  0.00990897  0.06602460  0.56480732  1  1.313471  0  0.72192  0.959641  0  2.174602  0
Zn  Zn1  1  0.99782555  0.93385290  0.43487096  1  1.300127  0  0.716186  0.945839  0  2.108761  0
Zn  Zn2  1  0.43795230  0.93361051  0.99715736  1  1.303779  0  0.716596  0.951161  0  2.149103  0
Zn  Zn3  1  0.56211419  0.06331193  0.00203308  1  1.309469  0  0.71942  0.953499  0  2.137616  0
Zn  Zn4  1  0.43917172  0.50816264  0.43981295  1  1.313782  0  0.725779  0.963041  0  2.12782  0
Zn  Zn5  1  0.56652388  0.50588927  0.56146027  1  1.308445  0  0.722553  0.957351  0  2.140518  0
H  H6  1  0.24710513  0.82580292  0.66754296  1  0.080563  0  0.101322  0.085218  0  0.991862  0
H  H7  1  0.27906761  0.95730671  0.61842324  1  0.081426  0  0.102806  0.090444  0  0.987831  0
H  H8  1  0.37381875  0.08826700  0.80009697  1  0.050059  0  0.100113  0.09103  0  0.990523  0
H  H9  1  0.21456706  0.08340499  0.78369917  1  0.099048  0  0.099477  0.091302  0  0.99275  0
H  H10  1  0.18180415  0.94995063  0.83097392  1  0.049837  0  0.100677  0.08827  0  0.989786  0
H  H11  1  0.08824624  0.82063740  0.64901010  1  0.067957  0  0.09957  0.082763  0  0.99597  0
H  H12  1  0.11744753  0.12445169  0.36739395  1  0.075937  0  0.110581  0.11557  0  0.984534  0
H  H13  1  0.21656364  0.24021019  0.35213811  1  0.095299  0  0.109869  0.113445  0  0.98477  0
H  H14  1  0.37424374  0.40147722  0.63512190  1  0.10252  0  0.108814  0.113032  0  0.985945  0
H  H15  1  0.26587747  0.29295649  0.64951585  1  0.080863  0  0.109579  0.113674  0  0.985176  0
H  H16  1  0.74153819  0.83722206  0.19691599  1  0.090079  0  0.103172  0.111955  0  1.001072  0
H  H17  1  0.61264444  0.84433872  0.10502679  1  0.054045  0  0.105411  0.109871  0  0.987734  0
H  H18  1  0.86024740  0.10917391  0.38729236  1  0.077456  0  0.105861  0.11639  0  1.004896  0
H  H19  1  0.88446073  0.82040931  0.58849145  1  0.111869  0  0.114885  0.119672  0  0.972879  0
H  H20  1  0.76284013  0.69394877  0.57042757  1  0.120167  0  0.11467  0.121817  0  0.984315  0
H  H21  1  0.57566829  0.75420941  0.43132034  1  0.148749  0  0.12444  0.1408  0  0.984109  0
H  H22  1  0.69039213  0.91156283  0.89354795  1  0.106398  0  0.111937  0.115716  0  0.982874  0
H  H23  1  0.68835828  0.78233746  0.79100358  1  0.073997  0  0.10938  0.112527  0  0.986446  0
H  H24  1  0.40519447  0.64320459  0.64978549  1  0.090969  0  0.108726  0.114427  0  0.986903  0
H  H25  1  0.40794741  0.76614849  0.76120547  1  0.08024  0  0.108378  0.113374  0  0.99039  0
H  H26  1  0.54534694  0.30078873  0.14605597  1  0.085897  0  0.110448  0.115275  0  0.984492  0
H  H27  1  0.54634756  0.41054500  0.26880709  1  0.074016  0  0.109368  0.113188  0  0.983313  0
H  H28  1  0.49185942  0.22892191  0.36444905  1  0.081627  0  0.110771  0.115107  0  0.982144  0
H  H29  1  0.47464605  0.11407875  0.23229205  1  0.088604  0  0.11034  0.112974  0  0.991061  0
H  H30  1  0.79363935  0.18355889  0.36714923  1  0.430199  0  0.315939  0.253618  0  0.941683  0
H  H31  1  0.68096125  0.20915274  0.34385429  1  0.044528  0  0.104624  0.110018  0  0.982013  0
H  H32  1  0.60667565  0.09508786  0.26712155  1  0.051951  0  0.100172  0.105325  0  0.993491  0
H  H33  1  0.65154606  0.16696348  0.23106346  1  0.070006  0  0.092673  0.104804  0  1.032717  0
C  C34  1  0.12452912  0.13423179  0.51768461  1  1.541178  0  0.221516  0.608183  0  4.13673  0
C  C35  1  0.10673900  0.96052666  0.58997841  1  1.513259  0  0.220507  0.606653  0  4.137052  0
C  C36  1  0.87538399  0.92486028  0.52434562  1  1.612535  0  0.216226  0.599688  0  4.200471  0
C  C37  1  0.88465028  0.97464168  0.35890804  1  1.515901  0  0.221869  0.609649  0  4.109524  0
C  C38  1  0.25845834  0.95661524  0.66664203  1  -0.034579  0  -0.070044  -0.062134  0  3.622234  0
C  C39  1  0.23926819  0.88313033  0.69223862  1  -0.032118  0  -0.067112  -0.05556  0  3.620484  0
C  C40  1  0.29165721  0.95667645  0.79318211  1  0.012535  0  -0.007037  -0.027697  0  3.635993  0
C  C41  1  0.30975457  0.02911600  0.76630236  1  -0.002735  0  -0.077639  -0.0669  0  3.638877  0
C  C42  1  0.22275017  0.02646010  0.75868839  1  -0.062104  0  -0.079557  -0.069342  0  3.645391  0
C  C43  1  0.20316569  0.95236205  0.78358062  1  -0.006085  0  -0.073077  -0.065724  0  3.633757  0
C  C44  1  0.15218815  0.88038285  0.68387939  1  -0.041072  0  -0.069289  -0.05943  0  3.627396  0
C  C45  1  0.17133563  0.95562200  0.65883445  1  0.032816  0  -0.007601  -0.030323  0  3.630545  0
C  C46  1  0.17228336  0.18656025  0.42551740  1  -0.021461  0  -0.079281  -0.091466  0  3.968849  0
C  C47  1  0.22801076  0.25052504  0.41708383  1  0.008551  0  -0.081047  -0.102107  0  3.978209  0
C  C48  1  0.30140872  0.32745944  0.49281773  1  -0.02425  0  -0.010526  -0.014092  0  3.96362  0
C  C49  1  0.31622482  0.34197668  0.57671989  1  -0.035473  0  -0.081707  -0.098701  0  3.977839  0
C  C50  1  0.25682449  0.28110646  0.58484311  1  -0.01598  0  -0.081044  -0.096075  0  3.977593  0
C  C51  1  0.18583938  0.20214999  0.50930369  1  -0.052143  0  -0.010109  -0.019339  0  3.962452  0
C  C52  1  0.73954278  0.89811777  0.21707247  1  0.024978  0  -0.103747  -0.139085  0  4.018885  0
C  C53  1  0.66818053  0.90245940  0.16692275  1  -0.06944  0  -0.085726  -0.083099  0  4.012708  0
C  C54  1  0.66587542  0.98145399  0.19163456  1  0.023681  0  -0.024351  -0.130088  0  3.912326  0
C  C55  1  0.73619175  0.05847374  0.27254214  1  0.404755  0  0.107345  0.221856  0  4.063629  0
C  C56  1  0.80668267  0.05208150  0.32355190  1  -0.008131  0  -0.093656  -0.203543  0  3.953857  0
C  C57  1  0.80932152  0.97444878  0.29668293  1  0.005547  0  -0.019659  -0.009564  0  4.020812  0
C  C58  1  0.81678617  0.80604151  0.55498993  1  -0.023201  0  -0.076027  -0.095343  0  3.966659  0
C  C59  1  0.74929406  0.73537455  0.54449195  1  0.030798  0  -0.066171  -0.066047  0  3.945928  0
C  C60  1  0.66161130  0.71437177  0.49788532  1  -0.032362  0  -0.011169  -0.024977  0  3.964657  0
C  C61  1  0.64282985  0.76784591  0.46605406  1  0.017365  0  -0.061426  -0.118375  0  3.917599  0
C  C62  1  0.71167935  0.83913217  0.47794017  1  0.242686  0  0.083553  0.043741  0  3.906174  0
C  C63  1  0.79903069  0.85831788  0.52011065  1  -0.027373  0  0.013581  -0.022781  0  3.901073  0
C  C64  1  0.54509644  0.91583013  0.89753654  1  1.527501  0  0.220821  0.604505  0  4.136534  0
C  C65  1  0.35987272  0.96119619  0.86772817  1  1.520421  0  0.219019  0.605441  0  4.14043  0
C  C66  1  0.50780357  0.13362505  0.10893227  1  1.531196  0  0.220178  0.594495  0  4.162661  0
C  C67  1  0.59473069  0.98235354  0.12486979  1  1.542126  0  0.218379  0.612908  0  4.143774  0
C  C68  1  0.54102146  0.62963794  0.64722055  1  1.537184  0  0.219561  0.601247  0  4.137194  0
C  C69  1  0.36755935  0.39258424  0.48610488  1  1.544075  0  0.223979  0.609053  0  4.133223  0
C  C70  1  0.52222291  0.39329056  0.39787077  1  1.550043  0  0.225666  0.612948  0  4.131555  0
C  C71  1  0.59117846  0.63444839  0.48399055  1  1.538927  0  0.219184  0.599815  0  4.144286  0
C  C72  1  0.62830252  0.85186267  0.84117819  1  -0.029542  0  -0.078199  -0.095954  0  3.966607  0
C  C73  1  0.62716134  0.78007001  0.78379698  1  -0.045714  0  -0.078988  -0.097624  0  3.969201  0
C  C74  1  0.54666256  0.70511009  0.71490839  1  -0.014404  0  -0.012205  -0.017838  0  3.965488  0
C  C75  1  0.46731964  0.70115047  0.70477520  1  0.015678  0  -0.081682  -0.094641  0  3.980781  0
C  C76  1  0.46872472  0.76995988  0.76534796  1  -0.029914  0  -0.08196  -0.096476  0  3.983676  0
C  C77  1  0.54911542  0.84613058  0.83315060  1  -0.035385  0  -0.00821  -0.01412  0  3.958051  0
C  C78  1  0.53169007  0.28497746  0.19295597  1  -0.007855  0  -0.078854  -0.090483  0  3.974815  0
C  C79  1  0.53380438  0.34650896  0.26218353  1  -0.006428  0  -0.082361  -0.102713  0  3.973686  0
C  C80  1  0.52087593  0.32681247  0.32474782  1  -0.048213  0  -0.007699  -0.006166  0  3.957903  0
C  C81  1  0.50177470  0.24380675  0.31553826  1  0.023907  0  -0.082139  -0.110269  0  3.975777  0
C  C82  1  0.49306337  0.18014545  0.24250486  1  -0.07268  0  -0.076507  -0.082867  0  3.967642  0
C  C83  1  0.51009086  0.20102904  0.18213139  1  -0.019573  0  -0.013787  -0.031691  0  3.968393  0
C  C84  1  0.66614987  0.15294398  0.28552461  1  0.295613  0  -0.141272  -0.21602  0  3.99287  0
N  N85  1  0.74022899  0.13842973  0.30650166  1  -1.200597  0  -0.442405  -0.279392  0  3.589094  0
N  N86  1  0.68935739  0.89261188  0.44090356  1  0.373141  0  0.05967  0.513965  0  4.211889  0
O  O87  1  0.10586561  0.16284357  0.57806986  1  -1.131365  0  -0.321418  -0.538033  0  2.244057  0
O  O88  1  0.09508115  0.05398596  0.46506747  1  -1.177128  0  -0.311939  -0.566965  0  2.294077  0
O  O89  1  0.08632686  0.01857881  0.61744289  1  -1.173139  0  -0.31309  -0.572035  0  2.337509  0
O  O90  1  0.07575807  0.90733413  0.50783547  1  -1.133052  0  -0.322474  -0.533542  0  2.221007  0
O  O91  1  0.91282835  0.00676996  0.58069737  1  -1.126962  0  -0.317388  -0.523849  0  2.223877  0
O  O92  1  0.90089505  0.89099980  0.47475931  1  -1.159619  0  -0.303368  -0.559835  0  2.291463  0
O  O93  1  0.92797116  0.03627372  0.43888644  1  -1.190773  0  -0.314832  -0.57684  0  2.370481  0
O  O94  1  0.90279227  0.91349579  0.33050755  1  -1.125197  0  -0.319381  -0.526419  0  2.213499  0
O  O95  1  0.48677324  0.88773900  0.91703387  1  -1.167303  0  -0.312168  -0.576083  0  2.346121  0
O  O96  1  0.59777301  0.99765466  0.92827299  1  -1.12399  0  -0.318554  -0.528303  0  2.196582  0
O  O97  1  0.33475654  0.90888099  0.89651225  1  -1.133923  0  -0.325447  -0.53901  0  2.219555  0
O  O98  1  0.43927159  0.01758957  0.89878375  1  -1.170596  0  -0.313304  -0.569803  0  2.322349  0
O  O99  1  0.45791284  0.05335641  0.08196792  1  -1.171331  0  -0.312646  -0.569203  0  2.329119  0
O  O100  1  0.55875483  0.16172306  0.08032254  1  -1.12712  0  -0.319691  -0.53635  0  2.241533  0
O  O101  1  0.51423264  0.92206976  0.08933471  1  -1.135753  0  -0.322911  -0.538547  0  2.231873  0
O  O102  1  0.61848101  0.04103516  0.10388742  1  -1.171291  0  -0.3114  -0.568598  0  2.333735  0
O  O103  1  0.47798849  0.59331722  0.56891918  1  -1.178023  0  -0.313665  -0.57775  0  2.346032  0
O  O104  1  0.59800777  0.60526446  0.67029951  1  -1.124405  0  -0.319314  -0.529978  0  2.20835  0
O  O105  1  0.33987604  0.41531190  0.42859587  1  -1.129619  0  -0.317453  -0.532912  0  2.223949  0
O  O106  1  0.44770086  0.42080777  0.53878890  1  -1.167838  0  -0.312904  -0.567969  0  2.325664  0
O  O107  1  0.47271688  0.42406839  0.37483825  1  -1.161383  0  -0.311129  -0.56606  0  2.315699  0
O  O108  1  0.57217817  0.41415170  0.47757906  1  -1.133417  0  -0.317608  -0.533378  0  2.225205  0
O  O109  1  0.51009316  0.60908090  0.43380939  1  -1.126719  0  -0.314601  -0.522736  0  2.210046  0
O  O110  1  0.61687735  0.59600025  0.52328543  1  -1.175378  0  -0.313247  -0.577967  0  2.354086  0
O  O111  1  0.74300023  0.93636942  0.42619371  1  -0.444365  0  -0.113312  -0.308235  0  1.95688  0
O  O112  1  0.61850340  0.88998438  0.42655449  1  -0.441272  0  -0.140993  -0.33784  0  1.861042  0
