# generated using pymatgen
data_CuH4C7N5
_symmetry_space_group_name_H-M   'P 1'
_cell_length_a   28.02366705
_cell_length_b   30.86781236
_cell_length_c   31.69328761
_cell_angle_alpha   87.72435571
_cell_angle_beta   83.86516138
_cell_angle_gamma   86.55700142
_symmetry_Int_Tables_number   1
_chemical_formula_structural   CuH4C7N5
_chemical_formula_sum   'Cu12 H48 C84 N60'
_cell_volume   27194.10645067
_cell_formula_units_Z   12
loop_
 _symmetry_equiv_pos_site_id
 _symmetry_equiv_pos_as_xyz
  1  'x, y, z'
loop_
 _atom_site_type_symbol
 _atom_site_label
 _atom_site_symmetry_multiplicity
 _atom_site_fract_x
 _atom_site_fract_y
 _atom_site_fract_z
 _atom_site_occupancy
 _atom_site_pbe_bader_charge
 _atom_site_pbe_bader_spin_density
 _atom_site_pbe_cm5_charge
 _atom_site_pbe_ddec_charge
 _atom_site_pbe_ddec_spin_density
 _atom_site_pbe_ddec_sum_bond_order
 _atom_site_pbe_magmom
Cu  Cu0  1  0.95099194  0.83798268  0.89474247  1  0.554219  0  0.498107  0.221813  0  2.081448  0
Cu  Cu1  1  0.87996941  0.87717769  0.82953340  1  0.550081  0  0.497015  0.219545  0  2.097023  0
Cu  Cu2  1  0.83963617  0.85658943  0.92338151  1  0.54976  0  0.49195  0.21033  0  2.102544  0
Cu  Cu3  1  0.59147459  0.31029202  0.11346751  1  0.550717  0  0.4961  0.217187  0  2.092027  0
Cu  Cu4  1  0.62874838  0.39388157  0.15018935  1  0.549882  0  0.492534  0.211339  0  2.096587  0
Cu  Cu5  1  0.68509950  0.35265878  0.06678234  1  0.550871  0  0.494944  0.221586  0  2.066357  0
Cu  Cu6  1  0.04363362  0.69170431  0.37622011  1  0.551436  0  0.493035  0.216328  0  2.084465  0
Cu  Cu7  1  0.09248905  0.59723531  0.36502132  1  0.550623  0  0.496226  0.219606  0  2.092034  0
Cu  Cu8  1  0.15296860  0.67297993  0.38979843  1  0.551006  0  0.497586  0.218941  0  2.10431  0
Cu  Cu9  1  0.38690728  0.19006976  0.65008981  1  0.554974  0  0.496552  0.222517  0  2.072729  0
Cu  Cu10  1  0.38310667  0.08792853  0.66620860  1  0.54939  0  0.493256  0.211324  0  2.106525  0
Cu  Cu11  1  0.36825961  0.12838730  0.57621556  1  0.549829  0  0.497057  0.219046  0  2.097029  0
H  H12  1  0.40389327  0.31379925  0.38982280  1  0.104332  0  0.101637  0.107317  0  1.012795  0
H  H13  1  0.31322419  0.41945439  0.44457750  1  0.066609  0  0.103009  0.109489  0  1.016647  0
H  H14  1  0.38488966  0.43382785  0.31798385  1  0.06868  0  0.101856  0.107833  0  1.011505  0
H  H15  1  0.07155911  0.84953091  0.61985529  1  0.087054  0  0.101626  0.107381  0  1.015348  0
H  H16  1  0.18775088  0.88901003  0.52900977  1  0.089384  0  0.10292  0.109676  0  1.014413  0
H  H17  1  0.18656799  0.91815793  0.66112331  1  0.094236  0  0.101485  0.10594  0  1.021486  0
H  H18  1  0.56876085  0.17819153  0.89214578  1  0.099167  0  0.10237  0.108288  0  1.019677  0
H  H19  1  0.68309036  0.08329119  0.91447727  1  0.089443  0  0.101081  0.10594  0  1.019545  0
H  H20  1  0.58544756  0.05987889  0.82286186  1  0.07405  0  0.10213  0.107804  0  1.017245  0
H  H21  1  0.84839375  0.55083995  0.18142415  1  0.081177  0  0.101984  0.108169  0  1.016653  0
H  H22  1  0.84161846  0.62654869  0.06466632  1  0.080667  0  0.102253  0.10905  0  1.015574  0
H  H23  1  0.92269640  0.66935695  0.16155350  1  0.088543  0  0.102077  0.106988  0  1.020152  0
H  H24  1  0.05248696  0.85086384  0.83885505  1  0.133427  0  0.133415  0.135206  0  0.976507  0
H  H25  1  0.95184894  0.88525257  0.74621193  1  0.116373  0  0.12852  0.128084  0  0.983803  0
H  H26  1  0.82732397  0.79462497  0.00602340  1  0.122197  0  0.128165  0.128001  0  0.981032  0
H  H27  1  0.98144474  0.77765919  0.97260000  1  0.111871  0  0.134024  0.135606  0  0.971925  0
H  H28  1  0.79069484  0.93117192  0.79495858  1  0.107227  0  0.133658  0.135283  0  0.971608  0
H  H29  1  0.74275089  0.91863116  0.92957183  1  0.134527  0  0.128972  0.129276  0  0.979458  0
H  H30  1  0.50500986  0.28903851  0.18437797  1  0.124306  0  0.132456  0.133915  0  0.976322  0
H  H31  1  0.55594884  0.40495310  0.23399108  1  0.107185  0  0.127518  0.126784  0  0.983444  0
H  H32  1  0.71595791  0.28275849  0.99508897  1  0.152192  0  0.133991  0.135585  0  0.970854  0
H  H33  1  0.58267384  0.23214573  0.05386990  1  0.116289  0  0.128722  0.129013  0  0.978827  0
H  H34  1  0.68774595  0.47709151  0.15737618  1  0.091249  0  0.12773  0.127605  0  0.982411  0
H  H35  1  0.76268430  0.42387623  0.04223316  1  0.153756  0  0.13347  0.135437  0  0.972929  0
H  H36  1  0.95844864  0.68681551  0.31669160  1  0.112442  0  0.129215  0.129431  0  0.979527  0
H  H37  1  0.01703821  0.55337669  0.31496701  1  0.115315  0  0.132998  0.133993  0  0.973572  0
H  H38  1  0.17196546  0.75168579  0.44386290  1  0.089422  0  0.127207  0.126355  0  0.985194  0
H  H39  1  0.01805816  0.77186749  0.43817697  1  0.109014  0  0.133161  0.134839  0  0.978811  0
H  H40  1  0.16943424  0.51686282  0.37083107  1  0.10864  0  0.128812  0.128522  0  0.979827  0
H  H41  1  0.25864190  0.62555025  0.38068054  1  0.140689  0  0.133225  0.134426  0  0.973996  0
H  H42  1  0.43819805  0.21538742  0.73038487  1  0.115922  0  0.133188  0.13436  0  0.976445  0
H  H43  1  0.43808708  0.07519547  0.74843975  1  0.116792  0  0.127783  0.127341  0  0.983911  0
H  H44  1  0.35871625  0.19737630  0.50078579  1  0.107915  0  0.128503  0.128197  0  0.981441  0
H  H45  1  0.36135592  0.28315665  0.60575240  1  0.122908  0  0.133545  0.135481  0  0.973485  0
H  H46  1  0.33369593  0.99732559  0.66108661  1  0.113726  0  0.128715  0.128701  0  0.981274  0
H  H47  1  0.33008258  0.04851102  0.53174283  1  0.13991  0  0.133248  0.134775  0  0.974788  0
H  H48  1  0.02782697  0.86284989  0.69054292  1  0.14675  0  0.133735  0.139482  0  0.988697  0
H  H49  1  0.46406974  0.40879457  0.27593275  1  0.118119  0  0.133821  0.140827  0  0.985973  0
H  H50  1  0.94797475  0.65987611  0.23008863  1  0.120062  0  0.13381  0.140074  0  0.98733  0
H  H51  1  0.51814065  0.08655869  0.78526442  1  0.108222  0  0.133469  0.13975  0  0.988166  0
H  H52  1  0.84894977  0.70446685  0.03317584  1  0.135479  0  0.132757  0.138481  0  0.987504  0
H  H53  1  0.38648649  0.27220468  0.45557680  1  0.138981  0  0.133417  0.139263  0  0.988226  0
H  H54  1  0.58600196  0.20997622  0.96187120  1  0.121753  0  0.134241  0.141494  0  0.985767  0
H  H55  1  0.16467829  0.81975433  0.49002097  1  0.111904  0  0.133896  0.140924  0  0.98532  0
H  H56  1  0.71405953  0.00874418  0.90733720  1  0.123036  0  0.133262  0.139466  0  0.989276  0
H  H57  1  0.24817589  0.47482861  0.41014852  1  0.13011  0  0.134257  0.141275  0  0.984751  0
H  H58  1  0.24832879  0.96608726  0.64151433  1  0.119902  0  0.134108  0.140078  0  0.98808  0
H  H59  1  0.77944342  0.51113607  0.15865470  1  0.114333  0  0.133503  0.14079  0  0.98693  0
C  C60  1  0.39825517  0.37165206  0.35042159  1  0.046526  0  -0.007965  0.070412  0  4.059978  0
C  C61  1  0.38753283  0.34666431  0.38774795  1  -0.061009  0  -0.086758  -0.167347  0  3.910594  0
C  C62  1  0.35723210  0.36393702  0.42182580  1  -0.003202  0  -0.00788  0.070728  0  4.054289  0
C  C63  1  0.33643532  0.40620503  0.41777822  1  -0.047874  0  -0.086796  -0.168131  0  3.907574  0
C  C64  1  0.34635043  0.43119921  0.38034248  1  0.032858  0  -0.007123  0.073127  0  4.05366  0
C  C65  1  0.37783653  0.41404560  0.34701487  1  -0.013641  0  -0.08749  -0.170425  0  3.916523  0
C  C66  1  0.12664428  0.88429337  0.64543460  1  -0.006136  0  -0.007728  0.070694  0  4.064295  0
C  C67  1  0.10515502  0.86575545  0.61304553  1  -0.024337  0  -0.087505  -0.169331  0  3.915385  0
C  C68  1  0.12730485  0.86649794  0.57123562  1  0.008967  0  -0.007573  0.072062  0  4.060102  0
C  C69  1  0.17073426  0.88681743  0.56156258  1  -0.059897  0  -0.087679  -0.170731  0  3.911229  0
C  C70  1  0.19226612  0.90588687  0.59365274  1  0.065414  0  -0.007505  0.073304  0  4.05745  0
C  C71  1  0.17032291  0.90402699  0.63550647  1  -0.093149  0  -0.087792  -0.168149  0  3.914518  0
C  C72  1  0.57193052  0.12066713  0.85575551  1  0.006111  0  -0.008629  0.068586  0  4.058306  0
C  C73  1  0.58733930  0.14657808  0.88646357  1  -0.012496  0  -0.088106  -0.168102  0  3.911377  0
C  C74  1  0.62716060  0.13287216  0.90778368  1  -0.04489  0  -0.008073  0.070334  0  4.061096  0
C  C75  1  0.65132834  0.09278834  0.89849956  1  -0.015311  0  -0.088043  -0.169375  0  3.916364  0
C  C76  1  0.63598054  0.06632545  0.86823349  1  -0.027984  0  -0.008097  0.071477  0  4.060504  0
C  C77  1  0.59621819  0.08042821  0.84698101  1  0.007942  0  -0.087992  -0.168462  0  3.912449  0
C  C78  1  0.88617993  0.60967687  0.17682263  1  -0.003635  0  -0.007971  0.070976  0  4.059023  0
C  C79  1  0.85690239  0.57971169  0.16175164  1  -0.020684  0  -0.086978  -0.167826  0  3.906964  0
C  C80  1  0.84070020  0.58600897  0.12144562  1  0.023754  0  -0.00798  0.071327  0  4.05276  0
C  C81  1  0.85366190  0.62270236  0.09626295  1  -0.059987  0  -0.088117  -0.169827  0  3.913257  0
C  C82  1  0.88300750  0.65277235  0.11097823  1  -0.001636  0  -0.008459  0.069554  0  4.064079  0
C  C83  1  0.89904002  0.64604639  0.15119993  1  0.012063  0  -0.088023  -0.168537  0  3.917308  0
C  C84  1  0.02121209  0.85811750  0.82189815  1  0.470839  0  0.015613  -0.075913  0  3.941888  0
C  C85  1  0.01867265  0.87031491  0.77920206  1  0.369166  0  0.077535  0.062775  0  4.098782  0
C  C86  1  0.96973295  0.87554834  0.77407551  1  0.431626  0  0.005096  -0.095945  0  3.973896  0
C  C87  1  0.86415636  0.79533575  0.99156386  1  0.448385  0  0.008192  -0.090977  0  3.972727  0
C  C88  1  0.90581353  0.77327124  0.00364355  1  0.351949  0  0.076399  0.051797  0  4.098138  0
C  C89  1  0.94334164  0.78685240  0.97445081  1  0.496542  0  0.016524  -0.073233  0  3.943051  0
C  C90  1  0.78608405  0.92301744  0.82868778  1  0.504485  0  0.016861  -0.070755  0  3.942338  0
C  C91  1  0.75018557  0.93747629  0.85980952  1  0.300912  0  0.07741  0.053512  0  4.094079  0
C  C92  1  0.76151354  0.91690386  0.89786457  1  0.446022  0  0.007942  -0.092063  0  3.968019  0
C  C93  1  0.52338964  0.31781033  0.19009838  1  0.455359  0  0.015378  -0.0753  0  3.941763  0
C  C94  1  0.51539695  0.34591035  0.22396709  1  0.373169  0  0.076494  0.061725  0  4.095549  0
C  C95  1  0.54927734  0.37742722  0.21564889  1  0.442237  0  0.006697  -0.093798  0  3.971668  0
C  C96  1  0.68262505  0.27651467  0.01444824  1  0.438573  0  0.016851  -0.072211  0  3.943914  0
C  C97  1  0.65119106  0.24344584  0.01191861  1  0.329688  0  0.075902  0.05073  0  4.098235  0
C  C98  1  0.61403354  0.25058741  0.04436722  1  0.45248  0  0.009462  -0.089571  0  3.971257  0
C  C99  1  0.70106470  0.45781130  0.13027436  1  0.435687  0  0.006534  -0.094399  0  3.971484  0
C  C100  1  0.73825844  0.46519292  0.09824495  1  0.413873  0  0.075924  0.059213  0  4.099725  0
C  C101  1  0.73931468  0.43050022  0.07104479  1  0.425385  0  0.016721  -0.072489  0  3.939165  0
C  C102  1  0.97877670  0.65618435  0.32079790  1  0.436398  0  0.008032  -0.090641  0  3.965393  0
C  C103  1  0.97404746  0.61578122  0.30369475  1  0.376202  0  0.075693  0.049661  0  4.093931  0
C  C104  1  0.00876542  0.58761211  0.32029597  1  0.487933  0  0.016572  -0.069624  0  3.944974  0
C  C105  1  0.13487204  0.75143000  0.43704461  1  0.464442  0  0.003848  -0.097162  0  3.97036  0
C  C106  1  0.09402245  0.77573447  0.45376285  1  0.383175  0  0.078009  0.06498  0  4.090255  0
C  C107  1  0.05581629  0.76141630  0.43400252  1  0.469945  0  0.013888  -0.077092  0  3.93779  0
C  C108  1  0.18392247  0.54824565  0.37401630  1  0.424012  0  0.008207  -0.090246  0  3.97072  0
C  C109  1  0.23140985  0.55907071  0.37567469  1  0.373169  0  0.07581  0.050026  0  4.10112  0
C  C110  1  0.22971386  0.60417051  0.37874959  1  0.451562  0  0.015916  -0.071607  0  3.947682  0
C  C111  1  0.43357843  0.18092398  0.72849738  1  0.510197  0  0.015898  -0.074368  0  3.938838  0
C  C112  1  0.45008545  0.14625185  0.75381467  1  0.3187  0  0.078831  0.065232  0  4.095845  0
C  C113  1  0.43382588  0.10891330  0.73782893  1  0.44848  0  0.005271  -0.095823  0  3.973112  0
C  C114  1  0.36121893  0.21207473  0.53094113  1  0.425855  0  0.005663  -0.094059  0  3.971979  0
C  C115  1  0.35661161  0.25566765  0.54178333  1  0.398982  0  0.077927  0.061637  0  4.096582  0
C  C116  1  0.36229003  0.25590494  0.58507846  1  0.449681  0  0.015884  -0.074275  0  3.937581  0
C  C117  1  0.33673390  0.01624250  0.63142592  1  0.426887  0  0.007617  -0.092306  0  3.968135  0
C  C118  1  0.32132212  0.00781794  0.59218352  1  0.39414  0  0.07757  0.061862  0  4.096437  0
C  C119  1  0.33533889  0.04249880  0.56491043  1  0.453464  0  0.015382  -0.07456  0  3.941606  0
C  C120  1  0.10440354  0.88298766  0.68930544  1  0.453094  0  0.085402  0.09962  0  4.078352  0
C  C121  1  0.05839624  0.87256301  0.70533428  1  0.330443  0  0.019141  -0.155345  0  3.879299  0
C  C122  1  0.43046921  0.35352253  0.31533810  1  0.491039  0  0.085501  0.100908  0  4.080227  0
C  C123  1  0.45863760  0.37477996  0.28332494  1  0.3071  0  0.018676  -0.158297  0  3.881702  0
C  C124  1  0.90509615  0.60241838  0.21793971  1  0.438832  0  0.084599  0.097337  0  4.082369  0
C  C125  1  0.93333947  0.62860690  0.23828629  1  0.341815  0  0.019465  -0.162756  0  3.876523  0
C  C126  1  0.53250384  0.13699265  0.83169806  1  0.435185  0  0.085237  0.09863  0  4.07854  0
C  C127  1  0.51171876  0.11773530  0.79993011  1  0.360164  0  0.019034  -0.155322  0  3.877248  0
C  C128  1  0.89853768  0.69037678  0.08466699  1  0.455857  0  0.084888  0.098899  0  4.081334  0
C  C129  1  0.87945166  0.71055546  0.04991692  1  0.288361  0  0.018654  -0.163366  0  3.880916  0
C  C130  1  0.34883443  0.33912999  0.46195227  1  0.453947  0  0.08433  0.097372  0  4.077209  0
C  C131  1  0.36490380  0.29723957  0.47292541  1  0.279718  0  0.019157  -0.156642  0  3.878419  0
C  C132  1  0.64503687  0.16063383  0.93825559  1  0.445034  0  0.085309  0.10081  0  4.079232  0
C  C133  1  0.62204515  0.19499498  0.96055830  1  0.344469  0  0.018758  -0.166344  0  3.880126  0
C  C134  1  0.10552938  0.84437978  0.53876593  1  0.448128  0  0.085969  0.099867  0  4.083158  0
C  C135  1  0.12749310  0.82359010  0.50326806  1  0.340286  0  0.019155  -0.156038  0  3.87961  0
C  C136  1  0.66258627  0.02526951  0.85777456  1  0.482096  0  0.084561  0.098612  0  4.083133  0
C  C137  1  0.69787006  0.00284320  0.87873647  1  0.297408  0  0.019199  -0.163751  0  3.880863  0
C  C138  1  0.32274487  0.47429312  0.37467203  1  0.484738  0  0.084967  0.100576  0  4.083115  0
C  C139  1  0.27686456  0.48944272  0.38989129  1  0.313628  0  0.018672  -0.166587  0  3.88356  0
C  C140  1  0.23561969  0.92985231  0.58333540  1  0.41819  0  0.084514  0.09789  0  4.082118  0
C  C141  1  0.25691856  0.95674358  0.60891220  1  0.38039  0  0.019293  -0.155759  0  3.881295  0
C  C142  1  0.81206602  0.55386603  0.10462589  1  0.396954  0  0.085702  0.100123  0  4.076606  0
C  C143  1  0.78602293  0.52119407  0.12553153  1  0.388879  0  0.018065  -0.159538  0  3.882835  0
N  N144  1  0.94433964  0.86683860  0.81177026  1  -0.769301  0  -0.33508  -0.131894  0  3.771187  0
N  N145  1  0.97602231  0.85625765  0.84120082  1  -0.754651  0  -0.331129  -0.127796  0  3.757261  0
N  N146  1  0.92492363  0.81538040  0.94628312  1  -0.757952  0  -0.331291  -0.128378  0  3.751018  0
N  N147  1  0.87612748  0.82053041  0.95673231  1  -0.785874  0  -0.33413  -0.129882  0  3.769078  0
N  N148  1  0.80231644  0.89175503  0.88990250  1  -0.76104  0  -0.33374  -0.12787  0  3.764086  0
N  N149  1  0.81735808  0.89546246  0.84729000  1  -0.747075  0  -0.334216  -0.134809  0  3.751312  0
N  N150  1  0.57606368  0.36859248  0.17870143  1  -0.758803  0  -0.334088  -0.129348  0  3.772525  0
N  N151  1  0.56019506  0.33186487  0.16307614  1  -0.759977  0  -0.331971  -0.127685  0  3.760783  0
N  N152  1  0.62269508  0.28618135  0.06505055  1  -0.759751  0  -0.335029  -0.131018  0  3.768731  0
N  N153  1  0.66501404  0.30210136  0.04669642  1  -0.7558  0  -0.329561  -0.128721  0  3.749895  0
N  N154  1  0.70452435  0.40382909  0.08614871  1  -0.745572  0  -0.329422  -0.129784  0  3.751888  0
N  N155  1  0.68106897  0.42056694  0.12268599  1  -0.783135  0  -0.333609  -0.127719  0  3.767947  0
N  N156  1  0.03319046  0.61009328  0.34574161  1  -0.767507  0  -0.333614  -0.134729  0  3.752045  0
N  N157  1  0.01484858  0.65239171  0.34598104  1  -0.771119  0  -0.331056  -0.127572  0  3.756176  0
N  N158  1  0.07302584  0.72995879  0.40713170  1  -0.753092  0  -0.330346  -0.12719  0  3.751776  0
N  N159  1  0.12169732  0.72386690  0.40889473  1  -0.766328  0  -0.337902  -0.134628  0  3.761719  0
N  N160  1  0.18357521  0.61942310  0.37890029  1  -0.749642  0  -0.334269  -0.1338  0  3.76  0
N  N161  1  0.15531057  0.58499991  0.37619031  1  -0.76833  0  -0.333947  -0.130036  0  3.759551  0
N  N162  1  0.40921453  0.12064410  0.70443069  1  -0.752845  0  -0.335888  -0.132021  0  3.773208  0
N  N163  1  0.40893975  0.16496238  0.69878832  1  -0.764425  0  -0.329862  -0.127816  0  3.750344  0
N  N164  1  0.36993014  0.21452152  0.59925947  1  -0.749387  0  -0.330707  -0.12916  0  3.750231  0
N  N165  1  0.36944299  0.18754871  0.56591026  1  -0.762223  0  -0.335221  -0.132439  0  3.768447  0
N  N166  1  0.35770658  0.07034262  0.58686372  1  -0.780935  0  -0.334192  -0.131517  0  3.749692  0
N  N167  1  0.35844060  0.05428814  0.62782484  1  -0.767149  0  -0.334544  -0.12971  0  3.768278  0
N  N168  1  0.10045068  0.88873986  0.75845291  1  -0.10316  0  -0.103331  -0.118585  0  3.114272  0
N  N169  1  0.12854218  0.89259359  0.72303869  1  -0.533647  0  -0.209163  -0.220558  0  3.259789  0
N  N170  1  0.05717640  0.87640080  0.74802738  1  -0.885055  0  -0.120347  0.134097  0  3.858876  0
N  N171  1  0.46792945  0.30269395  0.27570635  1  -0.08432  0  -0.105224  -0.121314  0  3.116092  0
N  N172  1  0.43748545  0.30965037  0.30924356  1  -0.584939  0  -0.210859  -0.221384  0  3.258489  0
N  N173  1  0.48126954  0.34250480  0.25942144  1  -0.857429  0  -0.120138  0.133692  0  3.856669  0
N  N174  1  0.92199148  0.56643849  0.27618316  1  -0.085581  0  -0.10658  -0.132638  0  3.112283  0
N  N175  1  0.89918344  0.56498248  0.24245009  1  -0.550955  0  -0.208487  -0.216742  0  3.264966  0
N  N176  1  0.94314236  0.60549050  0.27403651  1  -0.859708  0  -0.120733  0.157152  0  3.825354  0
N  N177  1  0.47895418  0.18518516  0.80964455  1  -0.099672  0  -0.104207  -0.120461  0  3.116398  0
N  N178  1  0.51115709  0.17808341  0.83637226  1  -0.546743  0  -0.20768  -0.217598  0  3.259369  0
N  N179  1  0.47891290  0.14833117  0.78701596  1  -0.872708  0  -0.119705  0.134047  0  3.860999  0
N  N180  1  0.94520483  0.74345300  0.06344580  1  -0.082409  0  -0.106239  -0.131512  0  3.113509  0
N  N181  1  0.93854701  0.71176903  0.09158122  1  -0.5526  0  -0.208457  -0.217783  0  3.264816  0
N  N182  1  0.90903800  0.74314696  0.03761852  1  -0.866533  0  -0.121124  0.156267  0  3.827329  0
N  N183  1  0.32358420  0.32849305  0.52940657  1  -0.087425  0  -0.10481  -0.12302  0  3.118721  0
N  N184  1  0.32377761  0.35665566  0.49756164  1  -0.536078  0  -0.206441  -0.21433  0  3.262332  0
N  N185  1  0.34885428  0.29178872  0.51472776  1  -0.865298  0  -0.119978  0.135349  0  3.858546  0
N  N186  1  0.69854971  0.18545617  0.97558212  1  -0.083456  0  -0.107282  -0.133207  0  3.113493  0
N  N187  1  0.69155182  0.15618167  0.94863073  1  -0.546883  0  -0.208374  -0.216379  0  3.265822  0
N  N188  1  0.65602922  0.20962706  0.98322293  1  -0.84448  0  -0.121666  0.155105  0  3.823303  0
N  N189  1  0.04813600  0.81478421  0.50994429  1  -0.079224  0  -0.102774  -0.116562  0  3.116547  0
N  N190  1  0.05710167  0.83816567  0.54130598  1  -0.540619  0  -0.209339  -0.220558  0  3.25585  0
N  N191  1  0.09113823  0.80545417  0.48629213  1  -0.888416  0  -0.119212  0.132363  0  3.855006  0
N  N192  1  0.68732010  0.96894150  0.81937062  1  -0.078126  0  -0.107332  -0.133279  0  3.110267  0
N  N193  1  0.65741656  0.00311132  0.82188052  1  -0.560072  0  -0.209529  -0.218329  0  3.261211  0
N  N194  1  0.71242179  0.96836020  0.85421508  1  -0.861808  0  -0.120926  0.156117  0  3.825571  0
N  N195  1  0.31366216  0.54087282  0.34860951  1  -0.073426  0  -0.106363  -0.131615  0  3.110036  0
N  N196  1  0.34368036  0.50690179  0.34971974  1  -0.571604  0  -0.210758  -0.220528  0  3.259761  0
N  N197  1  0.27231792  0.53053434  0.37314069  1  -0.862436  0  -0.121568  0.157048  0  3.826724  0
N  N198  1  0.29491491  0.95864387  0.54292684  1  -0.084412  0  -0.105036  -0.121869  0  3.111129  0
N  N199  1  0.26025525  0.93204925  0.54345208  1  -0.564993  0  -0.209102  -0.218234  0  3.252697  0
N  N200  1  0.29322534  0.97408048  0.58301974  1  -0.859785  0  -0.120485  0.133826  0  3.859588  0
N  N201  1  0.78193555  0.51916722  0.05529584  1  -0.069547  0  -0.106006  -0.122931  0  3.116442  0
N  N202  1  0.80834067  0.55116814  0.06187526  1  -0.558595  0  -0.207994  -0.217171  0  3.261735  0
N  N203  1  0.76794802  0.50037889  0.09422338  1  -0.877144  0  -0.12079  0.13352  0  3.85539  0
