# generated using pymatgen
data_TbH(CO2)3
_symmetry_space_group_name_H-M   'P 1'
_cell_length_a   6.60850802
_cell_length_b   7.05032388
_cell_length_c   10.60638564
_cell_angle_alpha   90.00003179
_cell_angle_beta   90.00000078
_cell_angle_gamma   90.00003227
_symmetry_Int_Tables_number   1
_chemical_formula_structural   TbH(CO2)3
_chemical_formula_sum   'Tb4 H4 C12 O24'
_cell_volume   494.17401279
_cell_formula_units_Z   4
loop_
 _symmetry_equiv_pos_site_id
 _symmetry_equiv_pos_as_xyz
  1  'x, y, z'
loop_
 _atom_site_type_symbol
 _atom_site_label
 _atom_site_symmetry_multiplicity
 _atom_site_fract_x
 _atom_site_fract_y
 _atom_site_fract_z
 _atom_site_occupancy
 _atom_site_hle17_bader_spin_density
 _atom_site_hle17_ddec_charge
 _atom_site_hle17_ddec_spin_density
 _atom_site_hle17_ddec_sum_bond_order
 _atom_site_hle17_magmom
 _atom_site_hse06_10hf_bader_spin_density
 _atom_site_hse06_10hf_ddec_charge
 _atom_site_hse06_10hf_ddec_spin_density
 _atom_site_hse06_10hf_ddec_sum_bond_order
 _atom_site_hse06_10hf_magmom
 _atom_site_hse06_bader_spin_density
 _atom_site_hse06_ddec_charge
 _atom_site_hse06_ddec_spin_density
 _atom_site_hse06_ddec_sum_bond_order
 _atom_site_hse06_magmom
 _atom_site_pbe_bader_spin_density
 _atom_site_pbe_cm5_charge
 _atom_site_pbe_ddec_charge
 _atom_site_pbe_ddec_spin_density
 _atom_site_pbe_ddec_sum_bond_order
 _atom_site_pbe_magmom
Tb  Tb0  1  0.63371648  0.20012745  0.75000011  1  0  2.17213  0  1.741488  0  0  2.084639  0  2.062997  0  0  2.222032  0  1.865252  0  0  1.499783  2.0456  0  2.094487  0
Tb  Tb1  1  0.13371409  0.29987147  0.25000039  1  0  2.172271  0  1.741147  0  0  2.084777  0  2.062665  0  0  2.222104  0  1.86503  0  0  1.499749  2.045711  0  2.094182  0
Tb  Tb2  1  0.36628564  0.79987126  0.24999955  1  0  2.172291  0  1.741116  0  0  2.084751  0  2.062704  0  0  2.222078  0  1.865066  0  0  1.499748  2.045648  0  2.09428  0
Tb  Tb3  1  0.86628350  0.70012724  0.75000021  1  0  2.172069  0  1.741614  0  0  2.084622  0  2.063044  0  0  2.222032  0  1.865273  0  0  1.499791  2.045606  0  2.094498  0
H  H4  1  0.38007998  0.78113332  0.74999928  1  0  0.022464  0  1.022665  0  0  0.026965  0  1.095866  0  0  0.027859  0  1.092424  0  0  0.128858  0.025677  0  1.099635  0
H  H5  1  0.88007935  0.71886660  0.24999953  1  0  0.022533  0  1.02279  0  0  0.02702  0  1.096001  0  0  0.027915  0  1.092557  0  0  0.128885  0.025733  0  1.099766  0
H  H6  1  0.61992063  0.21886681  0.24999944  1  0  0.022528  0  1.022779  0  0  0.027027  0  1.095971  0  0  0.027921  0  1.092529  0  0  0.128892  0.025734  0  1.099745  0
H  H7  1  0.11991975  0.28113211  0.75000107  1  0  0.02251  0  1.022792  0  0  0.027001  0  1.096004  0  0  0.027896  0  1.092557  0  0  0.128881  0.025714  0  1.099771  0
C  C8  1  0.37006860  0.62582130  0.74999925  1  0  0.653223  0  3.788471  0  0  0.575336  0  4.108392  0  0  0.611333  0  4.103689  0  0  0.171603  0.550939  0  4.117288  0
C  C9  1  0.87006957  0.87417578  0.24999956  1  0  0.652999  0  3.788752  0  0  0.575121  0  4.108656  0  0  0.611115  0  4.103951  0  0  0.17149  0.55072  0  4.117541  0
C  C10  1  0.62993050  0.37417599  0.24999947  1  0  0.65303  0  3.788691  0  0  0.575144  0  4.108599  0  0  0.611139  0  4.103894  0  0  0.171499  0.550746  0  4.117487  0
C  C11  1  0.12993104  0.12582293  0.75000010  1  0  0.653108  0  3.788646  0  0  0.575227  0  4.108552  0  0  0.611224  0  4.103851  0  0  0.17157  0.550829  0  4.117447  0
C  C12  1  0.45211570  0.09527396  0.47955641  1  0  0.608589  0  3.845581  0  0  0.561954  0  4.14756  0  0  0.593731  0  4.144383  0  0  0.239991  0.540529  0  4.154787  0
C  C13  1  0.95210005  0.40473081  0.52044881  1  0  0.608584  0  3.845447  0  0  0.562085  0  4.147222  0  0  0.593868  0  4.144042  0  0  0.239981  0.540655  0  4.154462  0
C  C14  1  0.54790005  0.90473204  0.97955158  1  0  0.608366  0  3.845371  0  0  0.561795  0  4.147245  0  0  0.593578  0  4.144067  0  0  0.239867  0.540362  0  4.154492  0
C  C15  1  0.04788239  0.59527338  0.02044251  1  0  0.608643  0  3.845443  0  0  0.562002  0  4.147399  0  0  0.59378  0  4.144225  0  0  0.240049  0.540579  0  4.154631  0
C  C16  1  0.54790156  0.90473043  0.52044985  1  0  0.608605  0  3.845312  0  0  0.562044  0  4.147181  0  0  0.593826  0  4.143996  0  0  0.23999  0.540613  0  4.154422  0
C  C17  1  0.04788543  0.59527499  0.47955556  1  0  0.608618  0  3.845633  0  0  0.561955  0  4.14763  0  0  0.593732  0  4.144455  0  0  0.239995  0.540533  0  4.154853  0
C  C18  1  0.45211267  0.09527660  0.02044431  1  0  0.608696  0  3.845557  0  0  0.562116  0  4.147422  0  0  0.593892  0  4.144245  0  0  0.240033  0.540694  0  4.154656  0
C  C19  1  0.95209855  0.40472958  0.97955055  1  0  0.608543  0  3.845503  0  0  0.56204  0  4.147278  0  0  0.593821  0  4.144099  0  0  0.239967  0.540611  0  4.154522  0
O  O20  1  0.53723792  0.53293767  0.75000017  1  0  -0.737699  0  2.141026  0  0  -0.688539  0  2.411516  0  0  -0.735  0  2.396047  0  0  -0.425941  -0.669707  0  2.419791  0
O  O21  1  0.03724017  0.96706207  0.24999957  1  0  -0.737657  0  2.140968  0  0  -0.68849  0  2.41147  0  0  -0.734933  0  2.396005  0  0  -0.425877  -0.669645  0  2.419742  0
O  O22  1  0.46276118  0.46706246  0.25000043  1  0  -0.737667  0  2.140952  0  0  -0.688505  0  2.411464  0  0  -0.734947  0  2.396001  0  0  -0.4259  -0.669659  0  2.419734  0
O  O23  1  0.96276347  0.03293806  0.75000008  1  0  -0.737675  0  2.141081  0  0  -0.688516  0  2.411574  0  0  -0.734978  0  2.396107  0  0  -0.425925  -0.669686  0  2.419849  0
O  O24  1  0.19701893  0.55185870  0.75000018  1  0  -0.649238  0  2.133702  0  0  -0.595502  0  2.387385  0  0  -0.633384  0  2.378289  0  0  -0.358125  -0.575711  0  2.391814  0
O  O25  1  0.69702146  0.94813971  0.24999957  1  0  -0.64918  0  2.133802  0  0  -0.595439  0  2.38748  0  0  -0.633308  0  2.378393  0  0  -0.358115  -0.575637  0  2.391909  0
O  O26  1  0.80297866  0.44814001  0.25000042  1  0  -0.649198  0  2.13377  0  0  -0.595451  0  2.387446  0  0  -0.63332  0  2.378358  0  0  -0.358111  -0.575656  0  2.391872  0
O  O27  1  0.30298218  0.05185617  0.75000008  1  0  -0.649195  0  2.133669  0  0  -0.595469  0  2.38737  0  0  -0.633348  0  2.378276  0  0  -0.358153  -0.575673  0  2.391801  0
O  O28  1  0.47979824  0.23863620  0.54709122  1  0  -0.590851  0  2.022806  0  0  -0.560344  0  2.26223  0  0  -0.591754  0  2.250776  0  0  -0.33979  -0.544756  0  2.267395  0
O  O29  1  0.97978553  0.26136433  0.45291306  1  0  -0.590908  0  2.022581  0  0  -0.560455  0  2.261957  0  0  -0.591856  0  2.250501  0  0  -0.339823  -0.544862  0  2.267127  0
O  O30  1  0.52021296  0.76136234  0.04708781  1  0  -0.590845  0  2.02255  0  0  -0.560352  0  2.261926  0  0  -0.591756  0  2.250472  0  0  -0.339794  -0.54475  0  2.267099  0
O  O31  1  0.02020146  0.73863597  0.95290816  1  0  -0.590836  0  2.022781  0  0  -0.560344  0  2.262214  0  0  -0.591758  0  2.250759  0  0  -0.339799  -0.54476  0  2.267381  0
O  O32  1  0.52021448  0.76136535  0.45291315  1  0  -0.590945  0  2.022505  0  0  -0.560463  0  2.261902  0  0  -0.591863  0  2.250444  0  0  -0.339841  -0.544863  0  2.267073  0
O  O33  1  0.02020297  0.73863580  0.54709131  1  0  -0.590834  0  2.022819  0  0  -0.560326  0  2.262245  0  0  -0.591739  0  2.250791  0  0  -0.339779  -0.544743  0  2.267407  0
O  O34  1  0.47979673  0.23863353  0.95290996  1  0  -0.590907  0  2.022805  0  0  -0.560423  0  2.262206  0  0  -0.591833  0  2.25075  0  0  -0.339827  -0.544836  0  2.267376  0
O  O35  1  0.97978553  0.26136416  0.04708678  1  0  -0.590901  0  2.022583  0  0  -0.56045  0  2.261965  0  0  -0.591852  0  2.250509  0  0  -0.339825  -0.544856  0  2.267136  0
O  O36  1  0.35117612  0.08890822  0.37675419  1  0  -0.748164  0  2.229088  0  0  -0.703052  0  2.48309  0  0  -0.748385  0  2.472355  0  0  -0.408251  -0.684155  0  2.488177  0
O  O37  1  0.85116199  0.41109224  0.62325104  1  0  -0.74817  0  2.229299  0  0  -0.703112  0  2.483267  0  0  -0.748453  0  2.472496  0  0  -0.408255  -0.684229  0  2.488365  0
O  O38  1  0.64883963  0.91109201  0.87674842  1  0  -0.748005  0  2.229148  0  0  -0.702922  0  2.483133  0  0  -0.748265  0  2.472373  0  0  -0.408164  -0.684037  0  2.488232  0
O  O39  1  0.14882651  0.58890779  0.12324662  1  0  -0.748203  0  2.228969  0  0  -0.703106  0  2.483004  0  0  -0.748436  0  2.472257  0  0  -0.408294  -0.684209  0  2.488095  0
O  O40  1  0.64883660  0.91109191  0.62324924  1  0  -0.748142  0  2.229272  0  0  -0.703051  0  2.483242  0  0  -0.748398  0  2.47249  0  0  -0.40825  -0.684169  0  2.488341  0
O  O41  1  0.14882349  0.58890789  0.37675428  1  0  -0.748206  0  2.229149  0  0  -0.703093  0  2.483164  0  0  -0.748424  0  2.472429  0  0  -0.408267  -0.684196  0  2.488249  0
O  O42  1  0.35117763  0.08890670  0.12324276  1  0  -0.748219  0  2.229149  0  0  -0.703124  0  2.483119  0  0  -0.748448  0  2.472367  0  0  -0.408254  -0.684225  0  2.488207  0
O  O43  1  0.85116351  0.41109234  0.87675021  1  0  -0.748154  0  2.229305  0  0  -0.703094  0  2.483269  0  0  -0.748438  0  2.47251  0  0  -0.40826  -0.684212  0  2.488369  0
