# generated using pymatgen
data_ZnH23C25(NO)5
_symmetry_space_group_name_H-M   'P 1'
_cell_length_a   9.90949262
_cell_length_b   14.90076109
_cell_length_c   18.75779293
_cell_angle_alpha   90.00006168
_cell_angle_beta   90.00004753
_cell_angle_gamma   95.77245680
_symmetry_Int_Tables_number   1
_chemical_formula_structural   ZnH23C25(NO)5
_chemical_formula_sum   'Zn4 H92 C100 N20 O20'
_cell_volume   2755.71165624
_cell_formula_units_Z   4
loop_
 _symmetry_equiv_pos_site_id
 _symmetry_equiv_pos_as_xyz
  1  'x, y, z'
loop_
 _atom_site_type_symbol
 _atom_site_label
 _atom_site_symmetry_multiplicity
 _atom_site_fract_x
 _atom_site_fract_y
 _atom_site_fract_z
 _atom_site_occupancy
 _atom_site_pbe_bader_charge
 _atom_site_pbe_bader_spin_density
 _atom_site_pbe_cm5_charge
 _atom_site_pbe_ddec_charge
 _atom_site_pbe_ddec_spin_density
 _atom_site_pbe_ddec_sum_bond_order
 _atom_site_pbe_magmom
Zn  Zn0  1  0.13909386  0.40658197  0.70873337  1  1.256375  0  0.6993  0.78038  0  2.409342  0
Zn  Zn1  1  0.36090996  0.09341747  0.20873363  1  1.256709  0  0.699268  0.780241  0  2.409555  0
Zn  Zn2  1  0.86090742  0.59341963  0.29126605  1  1.256658  0  0.699264  0.780239  0  2.409476  0
Zn  Zn3  1  0.63909408  0.90658213  0.79126739  1  1.256723  0  0.699275  0.780301  0  2.40938  0
H  H4  1  0.70710162  0.40443616  0.65070161  1  0.067687  0  0.099646  0.10113  0  1.049198  0
H  H5  1  0.79289667  0.09556466  0.15070238  1  0.067652  0  0.099656  0.101169  0  1.049175  0
H  H6  1  0.29289516  0.59556204  0.34929568  1  0.067613  0  0.099648  0.101209  0  1.049123  0
H  H7  1  0.20710452  0.90443627  0.84929545  1  0.067603  0  0.099629  0.101161  0  1.049156  0
H  H8  1  0.47020653  0.44837219  0.64964442  1  0.072441  0  0.096475  0.094228  0  1.053075  0
H  H9  1  0.02979057  0.05163049  0.14964130  1  0.072418  0  0.096524  0.094315  0  1.053014  0
H  H10  1  0.52978850  0.55162803  0.35036087  1  0.072462  0  0.09651  0.094288  0  1.053044  0
H  H11  1  0.97020759  0.94837042  0.85036025  1  0.072409  0  0.096501  0.094275  0  1.053013  0
H  H12  1  0.43199475  0.60937428  0.66880345  1  0.043454  0  0.099971  0.095529  0  1.039417  0
H  H13  1  0.06800524  0.89062849  0.16880330  1  0.043285  0  0.099947  0.095498  0  1.039382  0
H  H14  1  0.56800350  0.39062730  0.33119917  1  0.043315  0  0.099969  0.095485  0  1.039424  0
H  H15  1  0.93199512  0.10937378  0.83119878  1  0.043457  0  0.099955  0.095473  0  1.039424  0
H  H16  1  0.88723544  0.68637934  0.56671215  1  0.10682  0  0.101052  0.111837  0  1.037667  0
H  H17  1  0.61276629  0.81361940  0.06671142  1  0.10683  0  0.10103  0.111814  0  1.037731  0
H  H18  1  0.11276933  0.31361825  0.43328674  1  0.10696  0  0.10106  0.111849  0  1.037754  0
H  H19  1  0.38723471  0.18638018  0.93328694  1  0.10683  0  0.101041  0.111817  0  1.037722  0
H  H20  1  0.97342119  0.79558006  0.55526044  1  0.058467  0  0.10511  0.120333  0  0.995636  0
H  H21  1  0.52657878  0.70442067  0.05525958  1  0.058444  0  0.105081  0.120304  0  0.995685  0
H  H22  1  0.02658266  0.20441819  0.44473898  1  0.058483  0  0.105119  0.120322  0  0.99565  0
H  H23  1  0.47341938  0.29558024  0.94473824  1  0.058491  0  0.105112  0.120323  0  0.995675  0
H  H24  1  0.80045233  0.78385928  0.58305898  1  0.051368  0  0.095926  0.103767  0  1.019987  0
H  H25  1  0.69954732  0.71613879  0.08305874  1  0.051363  0  0.095945  0.103807  0  1.020015  0
H  H26  1  0.19955134  0.21613762  0.41693991  1  0.05144  0  0.095952  0.103836  0  1.020017  0
H  H27  1  0.30045167  0.28386078  0.91694069  1  0.051351  0  0.095919  0.103744  0  1.02002  0
H  H28  1  0.06980060  0.82742372  0.73725875  1  0.111936  0  0.107174  0.125833  0  1.013759  0
H  H29  1  0.43020034  0.67257781  0.23725857  1  0.11196  0  0.107171  0.125842  0  1.01375  0
H  H30  1  0.93019728  0.17257516  0.26274174  1  0.111937  0  0.107185  0.125859  0  1.013729  0
H  H31  1  0.56979910  0.32742513  0.76274032  1  0.111913  0  0.10716  0.125811  0  1.013773  0
H  H32  1  0.06823919  0.87946886  0.65167301  1  0.035224  0  0.103376  0.113091  0  0.996167  0
H  H33  1  0.43176050  0.62053187  0.15167172  1  0.035226  0  0.103406  0.113129  0  0.996101  0
H  H34  1  0.93176072  0.12053004  0.34832801  1  0.035198  0  0.103407  0.113151  0  0.996104  0
H  H35  1  0.56823665  0.37946904  0.84832717  1  0.035232  0  0.103409  0.113148  0  0.996093  0
H  H36  1  0.16017200  0.78401291  0.66433332  1  0.062983  0  0.103958  0.122001  0  0.980478  0
H  H37  1  0.33982881  0.71598851  0.16433261  1  0.062978  0  0.103951  0.121996  0  0.980464  0
H  H38  1  0.83983020  0.21598802  0.33566823  1  0.062994  0  0.103956  0.121987  0  0.980437  0
H  H39  1  0.66016935  0.28401240  0.83566574  1  0.063023  0  0.103965  0.122016  0  0.980437  0
H  H40  1  0.31207044  0.25645783  0.64620253  1  0.219156  0  0.135805  0.121425  0  1.032666  0
H  H41  1  0.18793133  0.24354219  0.14620178  1  0.219124  0  0.135808  0.121422  0  1.032643  0
H  H42  1  0.68792560  0.74354239  0.35379849  1  0.219189  0  0.135796  0.121444  0  1.032617  0
H  H43  1  0.81207289  0.75645877  0.85379924  1  0.219211  0  0.135816  0.121473  0  1.032585  0
H  H44  1  0.37305212  0.41001625  0.45625223  1  0.158865  0  0.117817  0.118092  0  1.064003  0
H  H45  1  0.12694838  0.08997814  0.95625276  1  0.158512  0  0.117814  0.118063  0  1.064016  0
H  H46  1  0.62694530  0.58997926  0.54374720  1  0.15886  0  0.117802  0.118063  0  1.064014  0
H  H47  1  0.87305262  0.91002144  0.04374880  1  0.158854  0  0.117777  0.118019  0  1.064067  0
H  H48  1  0.20897056  0.49657400  0.54939592  1  0.136373  0  0.118929  0.118741  0  1.029931  0
H  H49  1  0.29104014  0.00342594  0.04939660  1  0.136287  0  0.11893  0.11876  0  1.029872  0
H  H50  1  0.79103357  0.50342628  0.45060297  1  0.136327  0  0.118909  0.118712  0  1.0299  0
H  H51  1  0.70896509  0.99657502  0.95060495  1  0.136275  0  0.118914  0.118715  0  1.029941  0
H  H52  1  0.42849699  0.23981844  0.45541731  1  0.098937  0  0.11326  0.110569  0  1.022792  0
H  H53  1  0.07150186  0.26017863  0.95541743  1  0.098936  0  0.113275  0.110559  0  1.022779  0
H  H54  1  0.57149961  0.76017841  0.54458371  1  0.098909  0  0.11325  0.110547  0  1.022779  0
H  H55  1  0.92849694  0.73981959  0.04458359  1  0.098902  0  0.113248  0.110531  0  1.022788  0
H  H56  1  0.40761664  0.17992119  0.53771641  1  0.072519  0  0.12143  0.110424  0  0.947099  0
H  H57  1  0.09238347  0.32007529  0.03771675  1  0.072586  0  0.121446  0.110441  0  0.947084  0
H  H58  1  0.59238014  0.82007702  0.46228461  1  0.072577  0  0.121461  0.110459  0  0.947094  0
H  H59  1  0.90761643  0.67992361  0.96228481  1  0.072572  0  0.121457  0.11043  0  0.947126  0
H  H60  1  0.58664314  0.20383539  0.63219346  1  0.116018  0  0.103254  0.122712  0  1.036917  0
H  H61  1  0.91335843  0.29616003  0.13219552  1  0.116042  0  0.10325  0.12277  0  1.03696  0
H  H62  1  0.41336053  0.79616151  0.36780650  1  0.116031  0  0.103262  0.122754  0  1.036941  0
H  H63  1  0.08664010  0.70383616  0.86780711  1  0.115971  0  0.103267  0.122741  0  1.036905  0
H  H64  1  0.98243277  0.31622227  0.56254734  1  0.039643  0  0.096196  0.095712  0  1.036667  0
H  H65  1  0.51756976  0.18378115  0.06254646  1  0.039784  0  0.09618  0.095637  0  1.036696  0
H  H66  1  0.01757043  0.68377868  0.43745102  1  0.039668  0  0.096191  0.095673  0  1.036712  0
H  H67  1  0.48242729  0.81622649  0.93745296  1  0.039716  0  0.096169  0.095659  0  1.036727  0
H  H68  1  0.88303707  0.36293213  0.44771133  1  0.122491  0  0.100312  0.11354  0  1.039605  0
H  H69  1  0.61696323  0.13707250  0.94771030  1  0.122508  0  0.100327  0.113559  0  1.039659  0
H  H70  1  0.11696008  0.63706877  0.55228702  1  0.122485  0  0.100302  0.113504  0  1.039671  0
H  H71  1  0.38303566  0.86293380  0.05228859  1  0.122482  0  0.100335  0.113586  0  1.039596  0
H  H72  1  0.63570326  0.32757660  0.42533497  1  0.063978  0  0.097951  0.09886  0  1.044823  0
H  H73  1  0.86429599  0.17242800  0.92533301  1  0.063849  0  0.097926  0.098834  0  1.044896  0
H  H74  1  0.36429169  0.67242294  0.57466659  1  0.064037  0  0.097981  0.098875  0  1.044836  0
H  H75  1  0.13570079  0.82757762  0.07466695  1  0.06389  0  0.097995  0.098959  0  1.04492  0
H  H76  1  0.96254031  0.24451333  0.67318132  1  0.11451  0  0.113361  0.100602  0  1.003006  0
H  H77  1  0.53746197  0.25548687  0.17318211  1  0.11454  0  0.113315  0.100498  0  1.002976  0
H  H78  1  0.03746584  0.75548696  0.32681703  1  0.114165  0  0.113295  0.100431  0  1.003036  0
H  H79  1  0.46253701  0.74451270  0.82682211  1  0.114543  0  0.113323  0.100495  0  1.002971  0
H  H80  1  0.81223320  0.26137651  0.71918778  1  0.090615  0  0.124038  0.119934  0  0.964585  0
H  H81  1  0.68776806  0.23862308  0.21918862  1  0.090584  0  0.124013  0.119875  0  0.96461  0
H  H82  1  0.18777377  0.73862244  0.28081218  1  0.09055  0  0.124028  0.119868  0  0.964555  0
H  H83  1  0.31223322  0.76137852  0.78081400  1  0.090632  0  0.124051  0.119924  0  0.964563  0
H  H84  1  0.67699360  0.12453878  0.76975227  1  0.204942  0  0.140679  0.11947  0  1.022317  0
H  H85  1  0.82300785  0.37546156  0.26975329  1  0.204931  0  0.140665  0.119456  0  1.022307  0
H  H86  1  0.32301025  0.87545947  0.23024715  1  0.204894  0  0.140713  0.119545  0  1.02228  0
H  H87  1  0.17699261  0.62454139  0.73024826  1  0.204897  0  0.14069  0.119464  0  1.022322  0
H  H88  1  0.84544643  0.91449462  0.66175700  1  0.14092  0  0.119035  0.111944  0  1.039455  0
H  H89  1  0.65455658  0.58550494  0.16175663  1  0.140924  0  0.119043  0.111953  0  1.03945  0
H  H90  1  0.15455742  0.08550363  0.33824242  1  0.140952  0  0.119067  0.111956  0  1.039469  0
H  H91  1  0.34544268  0.41449665  0.83824333  1  0.140946  0  0.119058  0.111982  0  1.039439  0
H  H92  1  0.95557015  0.07974682  0.60513007  1  0.099679  0  0.127319  0.128513  0  0.989878  0
H  H93  1  0.54442889  0.42025259  0.10513154  1  0.099713  0  0.127304  0.128483  0  0.989806  0
H  H94  1  0.04443361  0.92025076  0.39486935  1  0.099731  0  0.127292  0.128476  0  0.989832  0
H  H95  1  0.45556706  0.57974695  0.89487108  1  0.099679  0  0.127331  0.128564  0  0.989836  0
C  C96  1  0.79749358  0.53822551  0.67339732  1  -0.011475  0  -0.009969  -0.04719  0  3.934689  0
C  C97  1  0.70250752  0.96177474  0.17339943  1  -0.011366  0  -0.009931  -0.047141  0  3.934663  0
C  C98  1  0.20250523  0.46177271  0.32659890  1  -0.011563  0  -0.009967  -0.047116  0  3.934708  0
C  C99  1  0.29749247  0.03822484  0.82659626  1  -0.011522  0  -0.009948  -0.047102  0  3.934497  0
C  C100  1  0.77589866  0.62870260  0.68706261  1  -0.047425  0  0.000215  -0.04373  0  3.908094  0
C  C101  1  0.72410054  0.87129832  0.18706198  1  -0.04758  0  0.000192  -0.043826  0  3.908154  0
C  C102  1  0.22410115  0.37129562  0.31293628  1  -0.047405  0  0.00021  -0.043817  0  3.908192  0
C  C103  1  0.27589753  0.12870192  0.81293477  1  -0.047511  0  0.000227  -0.043682  0  3.907848  0
C  C104  1  0.64264961  0.65370354  0.68481499  1  -0.054296  0  -0.01719  -0.064427  0  3.954707  0
C  C105  1  0.85735261  0.84629740  0.18481547  1  -0.054281  0  -0.01719  -0.064381  0  3.954592  0
C  C106  1  0.35735038  0.34629603  0.31518496  1  -0.054302  0  -0.017148  -0.0643  0  3.95459  0
C  C107  1  0.14264849  0.15370286  0.81518555  1  -0.054282  0  -0.017201  -0.064491  0  3.954671  0
C  C108  1  0.68739097  0.47389162  0.66058127  1  0.000307  0  -0.085045  -0.090781  0  3.965618  0
C  C109  1  0.81260633  0.02610921  0.16058251  1  0.000303  0  -0.084927  -0.090635  0  3.965534  0
C  C110  1  0.31260609  0.52610861  0.33941709  1  0.000392  0  -0.084905  -0.090604  0  3.965395  0
C  C111  1  0.18739174  0.97389103  0.83941531  1  0.000503  0  -0.08493  -0.090677  0  3.965489  0
C  C112  1  0.55565309  0.49863497  0.65937268  1  -0.040567  0  -0.096074  -0.087365  0  4.029031  0
C  C113  1  0.94434732  0.00136655  0.15937130  1  -0.040567  0  -0.096229  -0.087592  0  4.029097  0
C  C114  1  0.44434488  0.50136459  0.34062940  1  -0.040539  0  -0.096212  -0.087671  0  4.029167  0
C  C115  1  0.05565285  0.99863437  0.84063025  1  -0.040546  0  -0.096178  -0.087532  0  4.029055  0
C  C116  1  0.53413903  0.58846506  0.67034736  1  -0.000223  0  -0.090884  -0.110458  0  4.010831  0
C  C117  1  0.96586032  0.91153718  0.17034687  1  -3.3e-05  0  -0.090867  -0.110437  0  4.010788  0
C  C118  1  0.46585904  0.41153517  0.32965367  1  -4.8e-05  0  -0.090869  -0.11036  0  4.010787  0
C  C119  1  0.03413793  0.08846440  0.82965469  1  -0.000229  0  -0.090868  -0.110377  0  4.010791  0
C  C120  1  0.93796436  0.50876382  0.67196967  1  1.572344  0  0.204994  0.575325  0  4.207124  0
C  C121  1  0.56203554  0.99123507  0.17197227  1  1.572571  0  0.205084  0.575389  0  4.206808  0
C  C122  1  0.06203655  0.49123509  0.32802549  1  1.573011  0  0.205023  0.575143  0  4.206887  0
C  C123  1  0.43796436  0.00876383  0.82802555  1  1.572562  0  0.205029  0.575245  0  4.20681  0
C  C124  1  0.89500831  0.69397501  0.70970392  1  1.429938  0  0.237429  0.428291  0  4.128694  0
C  C125  1  0.60499478  0.80602462  0.20970105  1  1.429881  0  0.23743  0.428303  0  4.128645  0
C  C126  1  0.10499453  0.30602323  0.29029763  1  1.430149  0  0.237442  0.428254  0  4.128645  0
C  C127  1  0.39500622  0.19397496  0.79029517  1  1.430167  0  0.237462  0.42828  0  4.128788  0
C  C128  1  0.60946149  0.74873336  0.69869246  1  1.569375  0  0.195435  0.562652  0  4.259538  0
C  C129  1  0.89053662  0.75126689  0.19869233  1  1.5694  0  0.195473  0.562616  0  4.259725  0
C  C130  1  0.39053731  0.25126486  0.30130856  1  1.569387  0  0.195497  0.562675  0  4.25969  0
C  C131  1  0.10946245  0.24873335  0.80130922  1  1.569114  0  0.195585  0.562894  0  4.259412  0
C  C132  1  0.89828073  0.75532754  0.58792310  1  0.212546  0  -0.139411  -0.277737  0  3.934604  0
C  C133  1  0.60171912  0.74467190  0.08792231  1  0.212535  0  -0.139375  -0.277724  0  3.934633  0
C  C134  1  0.10172202  0.24467004  0.41207579  1  0.212328  0  -0.139468  -0.277896  0  3.934831  0
C  C135  1  0.39827987  0.25532767  0.91207605  1  0.212559  0  -0.139408  -0.277722  0  3.934784  0
C  C136  1  0.06795023  0.81490946  0.67977064  1  0.242271  0  -0.133258  -0.262577  0  3.917147  0
C  C137  1  0.43204951  0.68509130  0.17976994  1  0.242286  0  -0.133283  -0.262626  0  3.917091  0
C  C138  1  0.93204967  0.18508944  0.32023039  1  0.242293  0  -0.133282  -0.262677  0  3.917059  0
C  C139  1  0.56794865  0.31490961  0.82022842  1  0.242274  0  -0.133261  -0.262611  0  3.917028  0
C  C140  1  0.30290124  0.30937010  0.60706362  1  0.910117  0  0.140262  0.080494  0  3.8823  0
C  C141  1  0.19710120  0.19062784  0.10706336  1  0.910169  0  0.140205  0.080467  0  3.882289  0
C  C142  1  0.69709876  0.69062948  0.39293740  1  0.910123  0  0.140215  0.080395  0  3.882249  0
C  C143  1  0.80290090  0.80937242  0.89293820  1  0.91008  0  0.140215  0.080394  0  3.882288  0
C  C144  1  0.33494400  0.39173292  0.50894178  1  0.238187  0  0.002701  -0.101878  0  3.914292  0
C  C145  1  0.16506010  0.10826354  0.00894250  1  0.238566  0  0.002732  -0.101722  0  3.914222  0
C  C146  1  0.66505462  0.60826395  0.49105764  1  0.238148  0  0.002715  -0.101797  0  3.914193  0
C  C147  1  0.83494403  0.89173674  0.99105959  1  0.23807  0  0.002741  -0.101715  0  3.914111  0
C  C148  1  0.25457094  0.43390996  0.55534329  1  0.434529  0  -0.002079  -0.037049  0  3.991288  0
C  C149  1  0.24543572  0.06608995  0.05534295  1  0.434504  0  -0.002066  -0.037124  0  3.991332  0
C  C150  1  0.74542905  0.56608961  0.44465560  1  0.434535  0  -0.002053  -0.037019  0  3.991262  0
C  C151  1  0.75456969  0.93391235  0.94465754  1  0.434532  0  -0.002038  -0.037052  0  3.991295  0
C  C152  1  0.44579751  0.24443510  0.51324395  1  0.292184  0  -0.044759  -0.116272  0  3.868383  0
C  C153  1  0.05420357  0.25556134  0.01324422  1  0.292199  0  -0.044822  -0.116264  0  3.868276  0
C  C154  1  0.55420129  0.75556312  0.48675707  1  0.292246  0  -0.044781  -0.116248  0  3.868357  0
C  C155  1  0.94579624  0.74443688  0.98675734  1  0.292174  0  -0.044809  -0.116224  0  3.868307  0
C  C156  1  0.59572862  0.26478666  0.52751859  1  -0.009152  0  -0.013268  0.101539  0  3.977229  0
C  C157  1  0.90427221  0.23521197  0.02751846  1  -0.009294  0  -0.013227  0.101622  0  3.977193  0
C  C158  1  0.40427037  0.73521290  0.47248243  1  -0.009379  0  -0.013281  0.101579  0  3.977182  0
C  C159  1  0.09572678  0.76478760  0.97248203  1  -0.0092  0  -0.013255  0.101545  0  3.977147  0
C  C160  1  0.65199114  0.23817290  0.59155278  1  -0.09593  0  -0.093567  -0.200223  0  3.92898  0
C  C161  1  0.84800980  0.26182583  0.09155371  1  -0.095999  0  -0.09349  -0.200327  0  3.929063  0
C  C162  1  0.34801189  0.76182670  0.40844771  1  -0.095991  0  -0.0935  -0.20028  0  3.929068  0
C  C163  1  0.15198817  0.73817373  0.90844891  1  -0.095936  0  -0.093591  -0.20028  0  3.929066  0
C  C164  1  0.79141988  0.25615835  0.60410867  1  -0.036722  0  -0.016573  0.088956  0  4.007846  0
C  C165  1  0.70858237  0.24384243  0.10410792  1  -0.03673  0  -0.016643  0.088905  0  4.007968  0
C  C166  1  0.20858241  0.74384326  0.39589182  1  -0.036721  0  -0.016621  0.088927  0  4.007924  0
C  C167  1  0.29141478  0.75615847  0.89589203  1  -0.036714  0  -0.016625  0.088874  0  4.00787  0
C  C168  1  0.87402280  0.30147867  0.55241019  1  -0.000532  0  -0.094482  -0.140323  0  3.991582  0
C  C169  1  0.62597871  0.19852472  0.05241097  1  -0.000623  0  -0.094432  -0.140168  0  3.991397  0
C  C170  1  0.12597756  0.69852360  0.44758870  1  -0.000518  0  -0.094464  -0.140237  0  3.991517  0
C  C171  1  0.37401917  0.80148157  0.94759058  1  -0.000535  0  -0.094443  -0.14023  0  3.991545  0
C  C172  1  0.81834962  0.32844225  0.48842985  1  -0.052557  0  -0.09599  -0.085988  0  4.015949  0
C  C173  1  0.68165148  0.17156043  0.98842728  1  -0.052518  0  -0.095991  -0.085959  0  4.015792  0
C  C174  1  0.18164853  0.67155866  0.51157117  1  -0.05256  0  -0.095962  -0.08592  0  4.015812  0
C  C175  1  0.31834622  0.82844452  0.01157055  1  -0.052943  0  -0.095985  -0.085991  0  4.016045  0
C  C176  1  0.67970319  0.30960179  0.47597046  1  -0.073619  0  -0.090051  -0.128126  0  3.961626  0
C  C177  1  0.82029697  0.19040154  0.97596902  1  -0.073383  0  -0.09009  -0.128226  0  3.961761  0
C  C178  1  0.32029506  0.69039980  0.52403163  1  -0.073479  0  -0.090104  -0.128221  0  3.961618  0
C  C179  1  0.17970072  0.80960341  0.02403200  1  -0.073178  0  -0.090085  -0.128273  0  3.961842  0
C  C180  1  0.85234974  0.22727951  0.67308053  1  0.303378  0  -0.044168  -0.113207  0  3.882323  0
C  C181  1  0.64765254  0.27272070  0.17308139  1  0.303398  0  -0.044096  -0.112993  0  3.882148  0
C  C182  1  0.14765632  0.77272011  0.32691889  1  0.3038  0  -0.044106  -0.112993  0  3.882092  0
C  C183  1  0.35234662  0.72728022  0.82692123  1  0.303357  0  -0.044128  -0.113026  0  3.882249  0
C  C184  1  0.73903998  0.08951209  0.73356251  1  0.933169  0  0.153217  0.103574  0  3.88368  0
C  C185  1  0.76096131  0.41048752  0.23356300  1  0.933155  0  0.15318  0.103534  0  3.88374  0
C  C186  1  0.26096599  0.91048685  0.26643691  1  0.933114  0  0.153138  0.103433  0  3.883682  0
C  C187  1  0.23903795  0.58951407  0.76643802  1  0.933183  0  0.153237  0.103593  0  3.883732  0
C  C188  1  0.82798907  0.98293558  0.67542548  1  0.400225  0  0.000269  -0.030186  0  4.009825  0
C  C189  1  0.67201185  0.51706332  0.17542612  1  0.400261  0  0.000309  -0.030125  0  4.009827  0
C  C190  1  0.17201277  0.01706266  0.32457341  1  0.400276  0  0.000313  -0.030105  0  4.00979  0
C  C191  1  0.32798520  0.48293691  0.82457543  1  0.400266  0  0.000296  -0.030177  0  4.00984  0
C  C192  1  0.88266264  0.06354480  0.64736796  1  0.305258  0  -0.000137  -0.114163  0  3.939087  0
C  C193  1  0.61733849  0.43645469  0.14736894  1  0.305258  0  -0.000125  -0.114141  0  3.939034  0
C  C194  1  0.11733818  0.93645344  0.35262987  1  0.305113  0  -0.000133  -0.114163  0  3.939043  0
C  C195  1  0.38265967  0.56354622  0.85263315  1  0.30514  0  -0.000175  -0.11428  0  3.939111  0
N  N196  1  0.23551664  0.38202880  0.61631952  1  -1.250739  0  -0.362607  -0.298848  0  3.616279  0
N  N197  1  0.26448912  0.11797120  0.11631923  1  -1.250729  0  -0.362628  -0.298826  0  3.61639  0
N  N198  1  0.76448445  0.61797145  0.38368043  1  -1.250727  0  -0.362609  -0.2988  0  3.616289  0
N  N199  1  0.73551629  0.88203111  0.88368126  1  -1.250742  0  -0.362654  -0.298867  0  3.616291  0
N  N200  1  0.36353918  0.31297333  0.54222872  1  -1.216442  0  -0.236723  0.051539  0  3.757964  0
N  N201  1  0.13646195  0.18702315  0.04222896  1  -1.216458  0  -0.236669  0.051501  0  3.757869  0
N  N202  1  0.63645953  0.68702421  0.45777124  1  -1.21647  0  -0.23666  0.051517  0  3.757908  0
N  N203  1  0.86353915  0.81297710  0.95777206  1  -1.216286  0  -0.236648  0.051544  0  3.757844  0
N  N204  1  0.73905047  0.00007090  0.72920269  1  -1.212845  0  -0.359886  -0.283016  0  3.609245  0
N  N205  1  0.76095081  0.49992871  0.22920272  1  -1.212856  0  -0.359898  -0.283015  0  3.609315  0
N  N206  1  0.26095347  0.99992803  0.27079780  1  -1.212865  0  -0.359925  -0.283006  0  3.609327  0
N  N207  1  0.23904744  0.50007287  0.77079830  1  -1.212436  0  -0.359925  -0.283034  0  3.609327  0
N  N208  1  0.82563404  0.13000534  0.68497901  1  -1.25761  0  -0.236764  0.053605  0  3.778239  0
N  N209  1  0.67436725  0.36999488  0.18497996  1  -1.257652  0  -0.23677  0.053552  0  3.778299  0
N  N210  1  0.17436990  0.86999359  0.31501935  1  -1.257468  0  -0.236748  0.053617  0  3.778187  0
N  N211  1  0.32563201  0.63000671  0.81502213  1  -1.257538  0  -0.2368  0.053586  0  3.778329  0
N  N212  1  0.94584118  0.75656623  0.66159702  1  -1.171944  0  -0.290167  -0.042472  0  3.670634  0
N  N213  1  0.55415889  0.74343398  0.16159674  1  -1.171972  0  -0.290153  -0.042421  0  3.670462  0
N  N214  1  0.05416065  0.24343201  0.33840187  1  -1.17224  0  -0.290157  -0.042241  0  3.670589  0
N  N215  1  0.44583918  0.25656625  0.83840161  1  -1.172194  0  -0.290163  -0.042396  0  3.670675  0
O  O216  1  0.94809980  0.42898658  0.69760165  1  -1.16179  0  -0.328283  -0.543207  0  2.323498  0
O  O217  1  0.55190207  0.07101029  0.19761029  1  -1.16205  0  -0.328311  -0.543208  0  2.323279  0
O  O218  1  0.05189974  0.57100962  0.30238818  1  -1.16247  0  -0.32824  -0.543042  0  2.323238  0
O  O219  1  0.44810077  0.92898796  0.80239180  1  -1.16208  0  -0.328295  -0.54315  0  2.323284  0
O  O220  1  0.03500795  0.55985979  0.64707211  1  -1.184972  0  -0.318423  -0.55751  0  2.156432  0
O  O221  1  0.46499402  0.94014296  0.14707111  1  -1.184945  0  -0.318487  -0.557547  0  2.156427  0
O  O222  1  0.96499232  0.44014180  0.35292678  1  -1.18495  0  -0.318534  -0.557543  0  2.156316  0
O  O223  1  0.53500524  0.05985863  0.85292618  1  -1.184884  0  -0.318489  -0.557554  0  2.156362  0
O  O224  1  0.94278852  0.68793633  0.77083959  1  -1.157668  0  -0.311562  -0.516498  0  2.154827  0
O  O225  1  0.55721276  0.81206405  0.27083884  1  -1.157553  0  -0.311585  -0.516533  0  2.154734  0
O  O226  1  0.05721129  0.31206189  0.22915824  1  -1.157622  0  -0.311606  -0.516578  0  2.154735  0
O  O227  1  0.44278742  0.18793687  0.72915899  1  -1.157693  0  -0.311597  -0.516552  0  2.154903  0
O  O228  1  0.67366880  0.78733514  0.75258316  1  -1.18835  0  -0.334568  -0.564659  0  2.373232  0
O  O229  1  0.82632224  0.71266447  0.25258031  1  -1.188355  0  -0.334569  -0.564614  0  2.373466  0
O  O230  1  0.32632467  0.21266102  0.24742053  1  -1.188333  0  -0.334636  -0.564707  0  2.37345  0
O  O231  1  0.17367205  0.28733776  0.74742178  1  -1.188289  0  -0.334664  -0.56481  0  2.373301  0
O  O232  1  0.52404101  0.78200843  0.66072370  1  -1.164714  0  -0.329986  -0.546697  0  2.089813  0
O  O233  1  0.97595933  0.71799381  0.16072519  1  -1.164663  0  -0.329998  -0.5467  0  2.08983  0
O  O234  1  0.47596110  0.21799184  0.33927625  1  -1.164745  0  -0.33001  -0.546736  0  2.089828  0
O  O235  1  0.02403681  0.28200709  0.83927797  1  -1.164517  0  -0.330064  -0.546841  0  2.089734  0
