# generated using pymatgen
data_GdH24C24(NO2)6
_symmetry_space_group_name_H-M   'P 1'
_cell_length_a   15.89973295
_cell_length_b   15.89971498
_cell_length_c   16.44036935
_cell_angle_alpha   90.00001294
_cell_angle_beta   89.99983277
_cell_angle_gamma   120.00007865
_symmetry_Int_Tables_number   1
_chemical_formula_structural   GdH24C24(NO2)6
_chemical_formula_sum   'Gd4 H96 C96 N24 O48'
_cell_volume   3599.32470118
_cell_formula_units_Z   4
loop_
 _symmetry_equiv_pos_site_id
 _symmetry_equiv_pos_as_xyz
  1  'x, y, z'
loop_
 _atom_site_type_symbol
 _atom_site_label
 _atom_site_symmetry_multiplicity
 _atom_site_fract_x
 _atom_site_fract_y
 _atom_site_fract_z
 _atom_site_occupancy
 _atom_site_pbe_bader_charge
 _atom_site_pbe_bader_spin_density
 _atom_site_pbe_cm5_charge
 _atom_site_pbe_ddec_charge
 _atom_site_pbe_ddec_spin_density
 _atom_site_pbe_ddec_sum_bond_order
 _atom_site_pbe_magmom
Gd  Gd0  1  0.33333403  0.66666761  0.33309735  1  2.142644  0  1.465621  1.849097  0  2.422526  0
Gd  Gd1  1  0.66666718  0.33333417  0.16690350  1  2.142584  0  1.46561  1.849118  0  2.422496  0
Gd  Gd2  1  0.66666631  0.33333239  0.66690200  1  2.142688  0  1.465623  1.849102  0  2.422531  0
Gd  Gd3  1  0.33333398  0.66666375  0.83309585  1  2.142523  0  1.465547  1.84901  0  2.422623  0
H  H4  1  0.74391585  0.49281224  0.98672197  1  0.111266  0  0.107913  0.12623  0  1.010665  0
H  H5  1  0.50718793  0.25110359  0.98672167  1  0.0607  0  0.107906  0.12623  0  1.010681  0
H  H6  1  0.74889670  0.25608467  0.98672072  1  0.066403  0  0.107898  0.126216  0  1.010697  0
H  H7  1  0.49281037  0.74391582  0.51327861  1  0.111229  0  0.107895  0.126208  0  1.010686  0
H  H8  1  0.25110453  0.50718889  0.51327710  1  0.060693  0  0.107886  0.126182  0  1.010741  0
H  H9  1  0.25608317  0.74889687  0.51327833  1  0.066566  0  0.107926  0.126239  0  1.010703  0
H  H10  1  0.25608198  0.50718525  0.01327920  1  0.111292  0  0.107929  0.126247  0  1.010708  0
H  H11  1  0.49280982  0.74889019  0.01327889  1  0.060757  0  0.107929  0.126232  0  1.010648  0
H  H12  1  0.25110238  0.74391408  0.01327802  1  0.066391  0  0.107898  0.126216  0  1.010633  0
H  H13  1  0.50719132  0.25608409  0.48672135  1  0.111171  0  0.107886  0.12619  0  1.010702  0
H  H14  1  0.74889482  0.49281084  0.48672286  1  0.060724  0  0.107908  0.126225  0  1.010696  0
H  H15  1  0.74391645  0.25110387  0.48672101  1  0.066431  0  0.107917  0.126238  0  1.010676  0
H  H16  1  0.09450315  0.68537597  0.05974008  1  0.102643  0  0.102604  0.099187  0  1.047026  0
H  H17  1  0.31462431  0.40912868  0.05973974  1  0.097681  0  0.10258  0.099148  0  1.047  0
H  H18  1  0.59087101  0.90549656  0.05974062  1  0.099137  0  0.102585  0.099165  0  1.04704  0
H  H19  1  0.68537510  0.09450413  0.44026044  1  0.102626  0  0.102598  0.099199  0  1.047029  0
H  H20  1  0.40912876  0.31462547  0.44026146  1  0.09726  0  0.102586  0.099153  0  1.047008  0
H  H21  1  0.90549646  0.59087185  0.44025958  1  0.09913  0  0.102596  0.099208  0  1.047027  0
H  H22  1  0.90549422  0.31462323  0.94026048  1  0.102591  0  0.102575  0.099166  0  1.047056  0
H  H23  1  0.68537550  0.59086934  0.94025900  1  0.097429  0  0.102587  0.099189  0  1.046945  0
H  H24  1  0.40912808  0.09450219  0.94025812  1  0.09915  0  0.102555  0.099091  0  1.047108  0
H  H25  1  0.31462379  0.90549732  0.55974195  1  0.102618  0  0.102573  0.099158  0  1.047073  0
H  H26  1  0.59087175  0.68537688  0.55973849  1  0.097671  0  0.102583  0.099172  0  1.047024  0
H  H27  1  0.09450415  0.40912914  0.55974038  1  0.099124  0  0.102589  0.099171  0  1.047064  0
H  H28  1  0.09158134  0.43026843  0.19625342  1  0.100753  0  0.118531  0.101087  0  1.000836  0
H  H29  1  0.56973261  0.66131494  0.19625277  1  0.094333  0  0.118516  0.101092  0  1.000805  0
H  H30  1  0.33868894  0.90841982  0.19625555  1  0.049331  0  0.118515  0.10107  0  1.000811  0
H  H31  1  0.43026905  0.09158217  0.30374805  1  0.100726  0  0.11852  0.101092  0  1.000821  0
H  H32  1  0.66131395  0.56973309  0.30374413  1  0.094685  0  0.118524  0.101072  0  1.000786  0
H  H33  1  0.90841875  0.33868717  0.30374680  1  0.049566  0  0.118537  0.101098  0  1.000825  0
H  H34  1  0.90841864  0.56973194  0.80374776  1  0.10075  0  0.118528  0.101104  0  1.000818  0
H  H35  1  0.43026836  0.33868569  0.80374354  1  0.094622  0  0.118524  0.10104  0  1.000827  0
H  H36  1  0.66131365  0.09158171  0.80374623  1  0.049566  0  0.11854  0.10111  0  1.000821  0
H  H37  1  0.56973292  0.90841873  0.69625373  1  0.100763  0  0.118539  0.101098  0  1.000821  0
H  H38  1  0.33868639  0.43026691  0.69625278  1  0.094379  0  0.118524  0.101102  0  1.000801  0
H  H39  1  0.09158186  0.66131382  0.69625437  1  0.049567  0  0.118537  0.101086  0  1.000837  0
H  H40  1  0.98946060  0.31337991  0.17931943  1  0.086502  0  0.123482  0.109032  0  0.953691  0
H  H41  1  0.68662088  0.67608313  0.17931746  1  0.084703  0  0.123447  0.109001  0  0.953698  0
H  H42  1  0.32391963  0.01053980  0.17931973  1  0.080263  0  0.12349  0.10904  0  0.953683  0
H  H43  1  0.31337972  0.98946193  0.32068163  1  0.086504  0  0.123455  0.109005  0  0.953694  0
H  H44  1  0.67608180  0.68662184  0.32067927  1  0.084762  0  0.123485  0.109044  0  0.953677  0
H  H45  1  0.01053867  0.32391857  0.32068077  1  0.080044  0  0.123472  0.109008  0  0.953699  0
H  H46  1  0.01053938  0.68662045  0.82068235  1  0.086498  0  0.123458  0.109006  0  0.953706  0
H  H47  1  0.31337883  0.32391624  0.82067945  1  0.084736  0  0.123464  0.108982  0  0.95372  0
H  H48  1  0.67608296  0.98946172  0.82068023  1  0.080235  0  0.12346  0.108974  0  0.953733  0
H  H49  1  0.68662089  0.01053907  0.67931832  1  0.08648  0  0.12346  0.108998  0  0.953693  0
H  H50  1  0.32391782  0.31337889  0.67931704  1  0.084711  0  0.12345  0.109004  0  0.953716  0
H  H51  1  0.98946194  0.67608243  0.67932040  1  0.080247  0  0.12347  0.108977  0  0.953741  0
H  H52  1  0.84701770  0.65878101  0.93013735  1  0.077412  0  0.103559  0.101315  0  1.00916  0
H  H53  1  0.34121868  0.18823617  0.93013923  1  0.074704  0  0.103549  0.101337  0  1.009132  0
H  H54  1  0.81176417  0.15298246  0.93013795  1  0.07495  0  0.103527  0.101306  0  1.009159  0
H  H55  1  0.65878064  0.84701573  0.56986106  1  0.077169  0  0.103531  0.101299  0  1.009165  0
H  H56  1  0.18823557  0.34121938  0.56986106  1  0.074672  0  0.10352  0.101306  0  1.009165  0
H  H57  1  0.15298200  0.81176461  0.56986177  1  0.074253  0  0.103537  0.101279  0  1.00919  0
H  H58  1  0.15297950  0.34121585  0.06986200  1  0.077389  0  0.103557  0.101318  0  1.009138  0
H  H59  1  0.65878113  0.81176185  0.06985951  1  0.074745  0  0.103547  0.101279  0  1.009199  0
H  H60  1  0.18823392  0.84701602  0.06986018  1  0.074936  0  0.10352  0.101313  0  1.009169  0
H  H61  1  0.34122070  0.15298454  0.43014012  1  0.077364  0  0.103563  0.101337  0  1.009143  0
H  H62  1  0.81176378  0.65878036  0.43013768  1  0.074721  0  0.103541  0.101302  0  1.009182  0
H  H63  1  0.84701825  0.18823675  0.43013880  1  0.07428  0  0.103535  0.101285  0  1.009195  0
H  H64  1  0.02252189  0.75772845  0.96802210  1  0.059147  0  0.099074  0.101452  0  1.004458  0
H  H65  1  0.24227107  0.26479226  0.96802538  1  0.013029  0  0.099082  0.101441  0  1.004506  0
H  H66  1  0.73520726  0.97747868  0.96802477  1  0.051846  0  0.099098  0.101489  0  1.004483  0
H  H67  1  0.75772920  0.02252195  0.53197482  1  0.059131  0  0.099075  0.101452  0  1.004468  0
H  H68  1  0.26479356  0.24227220  0.53197675  1  0.013012  0  0.099073  0.101443  0  1.004477  0
H  H69  1  0.97747703  0.73520707  0.53197580  1  0.051884  0  0.099092  0.101484  0  1.004405  0
H  H70  1  0.97747531  0.24226841  0.03197603  1  0.059102  0  0.099086  0.101458  0  1.004402  0
H  H71  1  0.75772874  0.73520576  0.03197336  1  0.013074  0  0.099079  0.101427  0  1.004501  0
H  H72  1  0.26479371  0.02252195  0.03197519  1  0.051917  0  0.099099  0.101479  0  1.004423  0
H  H73  1  0.24227167  0.97748004  0.46802635  1  0.059165  0  0.099083  0.10146  0  1.004446  0
H  H74  1  0.73520679  0.75772780  0.46802199  1  0.013013  0  0.099074  0.101462  0  1.004422  0
H  H75  1  0.02252223  0.26479402  0.46802415  1  0.05191  0  0.099072  0.101451  0  1.004421  0
H  H76  1  0.08679193  0.55919631  0.13624566  1  0.156831  0  0.128246  0.099893  0  1.013445  0
H  H77  1  0.44080436  0.52759697  0.13624455  1  0.149836  0  0.128281  0.099944  0  1.013387  0
H  H78  1  0.47240273  0.91320800  0.13624576  1  0.19313  0  0.128258  0.099946  0  1.01338  0
H  H79  1  0.55919485  0.08679295  0.36375565  1  0.156815  0  0.128247  0.099899  0  1.013441  0
H  H80  1  0.52759817  0.44080610  0.36375512  1  0.149834  0  0.12827  0.099925  0  1.0134  0
H  H81  1  0.91320900  0.47240386  0.36375519  1  0.193123  0  0.128248  0.099898  0  1.013445  0
H  H82  1  0.91320670  0.44080415  0.86375612  1  0.15681  0  0.128277  0.099949  0  1.013451  0
H  H83  1  0.55919383  0.47240015  0.86375297  1  0.149797  0  0.128258  0.099933  0  1.013407  0
H  H84  1  0.52759573  0.08679012  0.86375358  1  0.19314  0  0.128275  0.099963  0  1.013377  0
H  H85  1  0.44080477  0.91320779  0.63624674  1  0.156821  0  0.128258  0.099916  0  1.013412  0
H  H86  1  0.47240082  0.55919400  0.63624483  1  0.149807  0  0.1283  0.09997  0  1.013385  0
H  H87  1  0.08679160  0.52759713  0.63624537  1  0.193123  0  0.128251  0.099943  0  1.013396  0
H  H88  1  0.89120905  0.38652437  0.14727407  1  0.551569  0  0.317079  0.273168  0  0.989627  0
H  H89  1  0.61347619  0.50468616  0.14727325  1  0.548931  0  0.317065  0.273187  0  0.989548  0
H  H90  1  0.49531732  0.10879367  0.14727399  1  0.550636  0  0.317052  0.273191  0  0.989619  0
H  H91  1  0.38652399  0.89120873  0.35272703  1  0.551569  0  0.317063  0.273172  0  0.989673  0
H  H92  1  0.50468467  0.61347609  0.35272562  1  0.548917  0  0.31707  0.273159  0  0.989561  0
H  H93  1  0.10879153  0.49531473  0.35272616  1  0.550654  0  0.317078  0.2732  0  0.989648  0
H  H94  1  0.10879103  0.61347465  0.85272650  1  0.551573  0  0.31709  0.273183  0  0.989656  0
H  H95  1  0.38652352  0.49531322  0.85272670  1  0.548973  0  0.317041  0.273127  0  0.989527  0
H  H96  1  0.50468663  0.89120777  0.85272536  1  0.550646  0  0.317076  0.273199  0  0.989622  0
H  H97  1  0.61347734  0.10879154  0.64727293  1  0.55156  0  0.317081  0.273201  0  0.989636  0
H  H98  1  0.49531630  0.38652454  0.64727312  1  0.548931  0  0.317058  0.273161  0  0.989612  0
H  H99  1  0.89120845  0.50468564  0.64727501  1  0.55065  0  0.317065  0.273193  0  0.989633  0
C  C100  1  0.96102602  0.55030071  0.07548728  1  0.035169  0  -0.034506  -0.098375  0  4.017966  0
C  C101  1  0.44969860  0.41072466  0.07548798  1  -0.006031  0  -0.034473  -0.098343  0  4.017936  0
C  C102  1  0.58927531  0.03897451  0.07548896  1  0.026397  0  -0.034431  -0.098183  0  4.017946  0
C  C103  1  0.55030130  0.96102539  0.42451291  1  0.035609  0  -0.034492  -0.098283  0  4.017901  0
C  C104  1  0.41072587  0.44970027  0.42451305  1  -0.005913  0  -0.034491  -0.098366  0  4.017968  0
C  C105  1  0.03897450  0.58927559  0.42451237  1  0.026663  0  -0.034471  -0.098325  0  4.01796  0
C  C106  1  0.03897343  0.44969767  0.92451268  1  0.035194  0  -0.034504  -0.098359  0  4.017934  0
C  C107  1  0.55030032  0.58927174  0.92451197  1  -0.005897  0  -0.03447  -0.098295  0  4.017921  0
C  C108  1  0.41072414  0.96102388  0.92451039  1  0.026428  0  -0.034486  -0.098304  0  4.017842  0
C  C109  1  0.44969941  0.03897426  0.57548887  1  0.035648  0  -0.034469  -0.098321  0  4.017914  0
C  C110  1  0.58927501  0.55030172  0.57548752  1  -0.006019  0  -0.034468  -0.098369  0  4.017962  0
C  C111  1  0.96102548  0.41072478  0.57548820  1  0.026892  0  -0.034471  -0.098278  0  4.017904  0
C  C112  1  0.85899314  0.49386031  0.05623237  1  0.684143  0  0.10669  0.360851  0  4.075893  0
C  C113  1  0.50613780  0.36513088  0.05623346  1  0.71551  0  0.106677  0.36084  0  4.075858  0
C  C114  1  0.63486847  0.14100810  0.05623265  1  0.643429  0  0.106691  0.360884  0  4.075805  0
C  C115  1  0.49386112  0.85899333  0.44376802  1  0.685107  0  0.106665  0.36079  0  4.075888  0
C  C116  1  0.36513314  0.50613980  0.44376755  1  0.716759  0  0.106668  0.360868  0  4.075884  0
C  C117  1  0.14100692  0.63486842  0.44376727  1  0.644023  0  0.106692  0.360858  0  4.075815  0
C  C118  1  0.14100541  0.50613645  0.94376697  1  0.684149  0  0.106717  0.360906  0  4.075629  0
C  C119  1  0.49386049  0.63486489  0.94376771  1  0.7155  0  0.106751  0.360941  0  4.075767  0
C  C120  1  0.36513124  0.85899128  0.94376670  1  0.643421  0  0.106663  0.360783  0  4.075804  0
C  C121  1  0.50614084  0.14100756  0.55623255  1  0.685131  0  0.106688  0.360894  0  4.075864  0
C  C122  1  0.63486710  0.49386156  0.55623362  1  0.716881  0  0.106674  0.360859  0  4.075758  0
C  C123  1  0.85899332  0.36513294  0.55623268  1  0.644017  0  0.10669  0.360857  0  4.075867  0
C  C124  1  0.82079096  0.53578985  0.00202440  1  -0.047236  0  -0.105909  -0.226239  0  3.944836  0
C  C125  1  0.46420938  0.28499928  0.00202610  1  0.025877  0  -0.105894  -0.226268  0  3.944833  0
C  C126  1  0.71500037  0.17921057  0.00202451  1  0.012342  0  -0.1059  -0.226286  0  3.944848  0
C  C127  1  0.53578952  0.82078930  0.49797537  1  -0.048394  0  -0.105872  -0.226211  0  3.944796  0
C  C128  1  0.28500012  0.46421133  0.49797508  1  0.024507  0  -0.105865  -0.226194  0  3.944806  0
C  C129  1  0.17920951  0.71500126  0.49797526  1  0.011953  0  -0.105919  -0.226281  0  3.944844  0
C  C130  1  0.17920885  0.46420817  0.99797555  1  -0.047672  0  -0.105915  -0.226323  0  3.944738  0
C  C131  1  0.53578828  0.71499586  0.99797569  1  0.025708  0  -0.105972  -0.22636  0  3.94481  0
C  C132  1  0.28499898  0.82078917  0.99797544  1  0.012399  0  -0.105873  -0.226198  0  3.944679  0
C  C133  1  0.46421182  0.17921097  0.50202458  1  -0.048355  0  -0.105913  -0.226258  0  3.944761  0
C  C134  1  0.71499976  0.53579039  0.50202488  1  0.024533  0  -0.1059  -0.226236  0  3.944747  0
C  C135  1  0.82079073  0.28500010  0.50202470  1  0.012094  0  -0.105921  -0.226295  0  3.944861  0
C  C136  1  0.01813856  0.64489697  0.04287074  1  -0.069945  0  -0.08039  -0.078031  0  3.987481  0
C  C137  1  0.35510367  0.37324181  0.04287145  1  -0.001247  0  -0.080438  -0.078104  0  3.987667  0
C  C138  1  0.62675841  0.98186165  0.04287174  1  -0.052484  0  -0.080462  -0.078176  0  3.987674  0
C  C139  1  0.64489679  0.01813869  0.45712873  1  -0.067448  0  -0.080455  -0.078185  0  3.987594  0
C  C140  1  0.37324292  0.35510514  0.45712975  1  -0.000612  0  -0.08042  -0.07808  0  3.987575  0
C  C141  1  0.98186115  0.62675821  0.45712893  1  -0.052015  0  -0.080473  -0.078208  0  3.987654  0
C  C142  1  0.98185954  0.35510151  0.95712922  1  -0.069997  0  -0.080464  -0.078188  0  3.98763  0
C  C143  1  0.64489686  0.62675548  0.95712729  1  -0.001059  0  -0.08049  -0.078225  0  3.987606  0
C  C144  1  0.37324031  0.01813746  0.95712761  1  -0.052165  0  -0.080379  -0.078005  0  3.987637  0
C  C145  1  0.35510283  0.98186204  0.54287305  1  -0.067331  0  -0.080418  -0.078109  0  3.987671  0
C  C146  1  0.62675822  0.64489784  0.54287081  1  -0.001094  0  -0.080424  -0.078084  0  3.987623  0
C  C147  1  0.01813883  0.37324216  0.54287164  1  -0.052002  0  -0.080447  -0.07814  0  3.987724  0
C  C148  1  0.01290859  0.38569111  0.20470285  1  0.296632  0  -0.045538  -0.053506  0  3.884183  0
C  C149  1  0.61430891  0.62721922  0.20470081  1  0.335975  0  -0.045509  -0.053516  0  3.884197  0
C  C150  1  0.37278435  0.98709257  0.20470362  1  0.353186  0  -0.045519  -0.053481  0  3.884225  0
C  C151  1  0.38569239  0.01290999  0.29529818  1  0.321437  0  -0.0455  -0.053487  0  3.884211  0
C  C152  1  0.62721699  0.61430960  0.29529669  1  0.303889  0  -0.045522  -0.053486  0  3.884207  0
C  C153  1  0.98709043  0.37278233  0.29529737  1  0.377932  0  -0.045518  -0.053474  0  3.884178  0
C  C154  1  0.98709050  0.61430764  0.79529833  1  0.32166  0  -0.045497  -0.053503  0  3.884226  0
C  C155  1  0.38569071  0.37278151  0.79529611  1  0.30438  0  -0.045508  -0.053348  0  3.884174  0
C  C156  1  0.62721887  0.01290959  0.79529694  1  0.353069  0  -0.0455  -0.053439  0  3.884194  0
C  C157  1  0.61430957  0.98709091  0.70470239  1  0.321443  0  -0.045479  -0.053405  0  3.884157  0
C  C158  1  0.37278101  0.38569023  0.70470084  1  0.335526  0  -0.045505  -0.053538  0  3.884195  0
C  C159  1  0.01290955  0.62721803  0.70470380  1  0.352879  0  -0.045502  -0.053394  0  3.884262  0
C  C160  1  0.87871831  0.62875571  0.97172761  1  -0.103273  0  -0.080876  -0.036811  0  4.015375  0
C  C161  1  0.37124323  0.24996042  0.97172950  1  -0.142361  0  -0.080853  -0.036728  0  4.015267  0
C  C162  1  0.75003750  0.12128216  0.97172834  1  -0.120599  0  -0.080864  -0.036765  0  4.015332  0
C  C163  1  0.62875615  0.87871716  0.52827140  1  -0.10326  0  -0.080851  -0.036774  0  4.015314  0
C  C164  1  0.24995986  0.37124404  0.52827249  1  -0.142338  0  -0.080828  -0.036754  0  4.015256  0
C  C165  1  0.12128145  0.75003835  0.52827150  1  -0.119971  0  -0.080916  -0.036777  0  4.015442  0
C  C166  1  0.12127961  0.37124042  0.02827296  1  -0.102804  0  -0.080922  -0.036767  0  4.015213  0
C  C167  1  0.62875559  0.75003734  0.02827107  1  -0.142133  0  -0.080866  -0.03672  0  4.015256  0
C  C168  1  0.24996086  0.87871732  0.02827161  1  -0.120664  0  -0.080825  -0.036778  0  4.015309  0
C  C169  1  0.37124545  0.12128410  0.47172916  1  -0.103427  0  -0.080813  -0.036739  0  4.015277  0
C  C170  1  0.75003814  0.62875579  0.47172807  1  -0.142376  0  -0.080881  -0.036811  0  4.015378  0
C  C171  1  0.87871880  0.24996301  0.47172846  1  -0.119986  0  -0.08087  -0.036751  0  4.01544  0
C  C172  1  0.97798561  0.68466226  0.99231764  1  -0.011836  0  -0.1135  -0.138615  0  4.059811  0
C  C173  1  0.31533672  0.29332209  0.99231975  1  -0.004312  0  -0.113475  -0.138612  0  4.059969  0
C  C174  1  0.70667759  0.02201415  0.99231917  1  0.02809  0  -0.113449  -0.138591  0  4.059902  0
C  C175  1  0.68466374  0.97798489  0.50768056  1  -0.014301  0  -0.113427  -0.138525  0  4.059766  0
C  C176  1  0.29332221  0.31533675  0.50768225  1  -0.004441  0  -0.113455  -0.138564  0  4.059814  0
C  C177  1  0.02201335  0.70667751  0.50768085  1  0.027566  0  -0.113405  -0.13854  0  4.059802  0
C  C178  1  0.02201195  0.31533424  0.00768110  1  -0.011825  0  -0.113382  -0.138505  0  4.059693  0
C  C179  1  0.68466445  0.70667583  0.00767960  1  -0.004366  0  -0.113388  -0.138446  0  4.059789  0
C  C180  1  0.29332285  0.97798450  0.00768018  1  0.027756  0  -0.113522  -0.138648  0  4.05994  0
C  C181  1  0.31533724  0.02201575  0.49232061  1  -0.014391  0  -0.113498  -0.138597  0  4.059857  0
C  C182  1  0.70667714  0.68466299  0.49231892  1  -0.004485  0  -0.113453  -0.13858  0  4.059852  0
C  C183  1  0.97798627  0.29332322  0.49231910  1  0.027566  0  -0.113434  -0.138549  0  4.059914  0
C  C184  1  0.00875067  0.51388441  0.12508726  1  0.528433  0  0.103535  0.137575  0  3.843701  0
C  C185  1  0.48611548  0.49486716  0.12508719  1  0.528007  0  0.10349  0.137567  0  3.843551  0
C  C186  1  0.50513554  0.99125090  0.12508722  1  0.49172  0  0.103402  0.137331  0  3.843673  0
C  C187  1  0.51388428  0.00875147  0.37491300  1  0.528012  0  0.103477  0.137488  0  3.843702  0
C  C188  1  0.49486778  0.48611665  0.37491247  1  0.52807  0  0.103504  0.137526  0  3.843639  0
C  C189  1  0.99124900  0.50513313  0.37491299  1  0.491505  0  0.103511  0.137568  0  3.843677  0
C  C190  1  0.99124806  0.48611470  0.87491331  1  0.528437  0  0.103511  0.137529  0  3.84369  0
C  C191  1  0.51388334  0.50513059  0.87491155  1  0.528011  0  0.103451  0.137424  0  3.843685  0
C  C192  1  0.49486552  0.00874837  0.87491152  1  0.491746  0  0.103465  0.137453  0  3.84358  0
C  C193  1  0.48611570  0.99124889  0.62508818  1  0.527997  0  0.103471  0.137484  0  3.843671  0
C  C194  1  0.50513246  0.51388471  0.62508688  1  0.528046  0  0.103499  0.137545  0  3.843585  0
C  C195  1  0.00875098  0.49486723  0.62508819  1  0.49132  0  0.103454  0.137405  0  3.843612  0
N  N196  1  0.96494176  0.42760252  0.15876033  1  -1.266085  0  -0.373057  -0.166531  0  3.61607  0
N  N197  1  0.57239738  0.53734096  0.15875907  1  -1.263584  0  -0.373007  -0.166537  0  3.616026  0
N  N198  1  0.46266011  0.03505889  0.15876160  1  -1.269204  0  -0.372962  -0.166435  0  3.615908  0
N  N199  1  0.42760244  0.96494254  0.34124062  1  -1.266068  0  -0.372985  -0.16649  0  3.61617  0
N  N200  1  0.53733969  0.57239822  0.34123860  1  -1.263597  0  -0.373033  -0.166481  0  3.61609  0
N  N201  1  0.03505866  0.46266080  0.34124051  1  -1.269233  0  -0.373041  -0.166568  0  3.616082  0
N  N202  1  0.03505796  0.57239685  0.84124084  1  -1.266061  0  -0.37305  -0.16652  0  3.616126  0
N  N203  1  0.42760170  0.46265779  0.84123906  1  -1.263682  0  -0.372979  -0.16648  0  3.616057  0
N  N204  1  0.53734060  0.96494075  0.84123957  1  -1.269402  0  -0.373043  -0.166556  0  3.616068  0
N  N205  1  0.57239853  0.03505809  0.65875995  1  -1.266076  0  -0.373037  -0.166551  0  3.616166  0
N  N206  1  0.46265930  0.42760188  0.65875893  1  -1.263577  0  -0.37301  -0.166506  0  3.616029  0
N  N207  1  0.96494159  0.53734056  0.65876066  1  -1.269409  0  -0.372987  -0.166495  0  3.61607  0
N  N208  1  0.27938378  0.48884765  0.23917312  1  0.840127  0  0.08669  0.730365  0  4.407982  0
N  N209  1  0.51115250  0.79053670  0.23917222  1  0.849033  0  0.086727  0.730483  0  4.407849  0
N  N210  1  0.20946457  0.72061548  0.23917203  1  0.848701  0  0.086738  0.730451  0  4.407999  0
N  N211  1  0.48884782  0.27938434  0.26082803  1  0.840494  0  0.08665  0.730312  0  4.408107  0
N  N212  1  0.79053586  0.51115391  0.26082885  1  0.850187  0  0.086713  0.730393  0  4.407989  0
N  N213  1  0.72061561  0.20946449  0.26082770  1  0.850068  0  0.086713  0.730417  0  4.408009  0
N  N214  1  0.72061441  0.51114947  0.76082745  1  0.84056  0  0.086617  0.730268  0  4.408145  0
N  N215  1  0.48884784  0.20946331  0.76082774  1  0.848993  0  0.086688  0.730356  0  4.408011  0
N  N216  1  0.79053577  0.27938452  0.76082732  1  0.848683  0  0.086713  0.730431  0  4.407955  0
N  N217  1  0.51115487  0.72061584  0.73917192  1  0.840614  0  0.086672  0.730368  0  4.407963  0
N  N218  1  0.20946458  0.48884474  0.73917111  1  0.849789  0  0.086692  0.730434  0  4.407952  0
N  N219  1  0.27938546  0.79053479  0.73917226  1  0.850082  0  0.086698  0.730374  0  4.408089  0
O  O220  1  0.23015860  0.48814474  0.30130683  1  -0.582763  0  -0.232461  -0.507823  0  2.051735  0
O  O221  1  0.51185708  0.74201466  0.30130524  1  -0.585581  0  -0.232456  -0.507859  0  2.051783  0
O  O222  1  0.25798624  0.76984388  0.30130499  1  -0.583974  0  -0.232448  -0.507826  0  2.051758  0
O  O223  1  0.48814468  0.23015963  0.19869500  1  -0.583085  0  -0.232418  -0.507785  0  2.05186  0
O  O224  1  0.74201479  0.51185797  0.19869467  1  -0.586193  0  -0.232468  -0.507863  0  2.051841  0
O  O225  1  0.76984378  0.25798673  0.19869521  1  -0.584818  0  -0.232458  -0.507849  0  2.051809  0
O  O226  1  0.76984111  0.51185464  0.69869434  1  -0.583136  0  -0.232434  -0.507779  0  2.051787  0
O  O227  1  0.48814373  0.25798363  0.69869350  1  -0.58552  0  -0.232459  -0.507831  0  2.051736  0
O  O228  1  0.74201473  0.23015675  0.69869557  1  -0.583951  0  -0.232431  -0.507827  0  2.051822  0
O  O229  1  0.51185603  0.76984002  0.80130618  1  -0.583131  0  -0.232439  -0.507817  0  2.051708  0
O  O230  1  0.25798935  0.48814075  0.80130164  1  -0.586228  0  -0.232409  -0.507761  0  2.051732  0
O  O231  1  0.23015765  0.74201219  0.80130596  1  -0.584813  0  -0.232435  -0.507784  0  2.051737  0
O  O232  1  0.80451696  0.40730105  0.08746836  1  -1.195982  0  -0.425757  -0.642246  0  2.3501  0
O  O233  1  0.59269875  0.39721600  0.08746926  1  -1.191309  0  -0.425761  -0.642259  0  2.350074  0
O  O234  1  0.60278441  0.19548378  0.08746862  1  -1.18951  0  -0.425748  -0.642283  0  2.350111  0
O  O235  1  0.40729969  0.80451706  0.41253282  1  -1.195551  0  -0.425772  -0.642247  0  2.350092  0
O  O236  1  0.39721611  0.59269943  0.41253099  1  -1.191323  0  -0.425771  -0.642295  0  2.350131  0
O  O237  1  0.19548358  0.60278462  0.41253188  1  -1.18982  0  -0.425766  -0.642246  0  2.350095  0
O  O238  1  0.19548258  0.59269598  0.91253038  1  -1.19591  0  -0.42582  -0.642301  0  2.350001  0
O  O239  1  0.40730079  0.60278103  0.91253069  1  -1.191357  0  -0.425791  -0.642268  0  2.350079  0
O  O240  1  0.39721441  0.80451397  0.91253134  1  -1.189522  0  -0.425757  -0.642258  0  2.350102  0
O  O241  1  0.59270102  0.19548259  0.58746774  1  -1.195592  0  -0.425774  -0.642303  0  2.350186  0
O  O242  1  0.60278350  0.40730130  0.58746957  1  -1.191314  0  -0.425784  -0.642278  0  2.350068  0
O  O243  1  0.80451703  0.39721637  0.58746807  1  -1.189847  0  -0.425761  -0.642256  0  2.350109  0
O  O244  1  0.25431560  0.41582728  0.19694721  1  -0.491051  0  -0.152  -0.383958  0  1.931541  0
O  O245  1  0.58417049  0.83848709  0.19694314  1  -0.492175  0  -0.152003  -0.383938  0  1.931486  0
O  O246  1  0.16151160  0.74568144  0.19694312  1  -0.492008  0  -0.152047  -0.384022  0  1.931583  0
O  O247  1  0.41582814  0.25431533  0.30305589  1  -0.491092  0  -0.151976  -0.383913  0  1.931511  0
O  O248  1  0.83848737  0.58417311  0.30305655  1  -0.492784  0  -0.151967  -0.383909  0  1.931586  0
O  O249  1  0.74568101  0.16151167  0.30305603  1  -0.492497  0  -0.151956  -0.38389  0  1.931523  0
O  O250  1  0.74568169  0.58416822  0.80305518  1  -0.490987  0  -0.151993  -0.383925  0  1.93156  0
O  O251  1  0.41582777  0.16151374  0.80305621  1  -0.49217  0  -0.152028  -0.383961  0  1.931512  0
O  O252  1  0.83848838  0.25431893  0.80305623  1  -0.491997  0  -0.152009  -0.383972  0  1.931545  0
O  O253  1  0.58417805  0.74568762  0.69694710  1  -0.491192  0  -0.152003  -0.383968  0  1.931572  0
O  O254  1  0.16151172  0.41582564  0.69694401  1  -0.492414  0  -0.151994  -0.383968  0  1.931609  0
O  O255  1  0.25431897  0.83848870  0.69694515  1  -0.492444  0  -0.151975  -0.383919  0  1.931598  0
O  O256  1  0.35639436  0.57048660  0.22327982  1  -0.585186  0  -0.241949  -0.524359  0  2.013268  0
O  O257  1  0.42951469  0.78591141  0.22328339  1  -0.590478  0  -0.24198  -0.524485  0  2.013235  0
O  O258  1  0.21409269  0.64360484  0.22328307  1  -0.591945  0  -0.241981  -0.524403  0  2.013285  0
O  O259  1  0.57048629  0.35639530  0.27672051  1  -0.585189  0  -0.241963  -0.524395  0  2.013306  0
O  O260  1  0.78590785  0.42951478  0.27672022  1  -0.590378  0  -0.242007  -0.524442  0  2.013197  0
O  O261  1  0.64360468  0.21409299  0.27671735  1  -0.591917  0  -0.242023  -0.52448  0  2.013328  0
O  O262  1  0.64360337  0.42951224  0.77671648  1  -0.585351  0  -0.241909  -0.524331  0  2.013366  0
O  O263  1  0.57048555  0.21408995  0.77671960  1  -0.590468  0  -0.24192  -0.524371  0  2.01333  0
O  O264  1  0.78590666  0.35639490  0.77671688  1  -0.591936  0  -0.241987  -0.524425  0  2.013266  0
O  O265  1  0.42951865  0.64360640  0.72327762  1  -0.585238  0  -0.241918  -0.524342  0  2.01323  0
O  O266  1  0.21408961  0.57048308  0.72328217  1  -0.59033  0  -0.241995  -0.524472  0  2.013178  0
O  O267  1  0.35639629  0.78590764  0.72328200  1  -0.59195  0  -0.241992  -0.524437  0  2.013343  0
