# generated using pymatgen
data_Fe3P4H22C16(NO10)2
_symmetry_space_group_name_H-M   'P 1'
_cell_length_a   9.04114535
_cell_length_b   8.97729294
_cell_length_c   9.96478870
_cell_angle_alpha   101.86438326
_cell_angle_beta   109.48945852
_cell_angle_gamma   109.51392203
_symmetry_Int_Tables_number   1
_chemical_formula_structural   Fe3P4H22C16(NO10)2
_chemical_formula_sum   'Fe3 P4 H22 C16 N2 O20'
_cell_volume   671.35285744
_cell_formula_units_Z   1
loop_
 _symmetry_equiv_pos_site_id
 _symmetry_equiv_pos_as_xyz
  1  'x, y, z'
loop_
 _atom_site_type_symbol
 _atom_site_label
 _atom_site_symmetry_multiplicity
 _atom_site_fract_x
 _atom_site_fract_y
 _atom_site_fract_z
 _atom_site_occupancy
 _atom_site_pbe_cm5_charge
 _atom_site_pbe_ddec_charge
 _atom_site_pbe_ddec_spin_density
 _atom_site_pbe_ddec_sum_bond_order
 _atom_site_pbe_magmom
Fe  Fe0  1  0.26321336  0.24878147  0.53623818  1  0.682529  1.000292  -3.832244  2.425523  -3.578
Fe  Fe1  1  0.73634951  0.75099020  0.46349624  1  0.682478  1.000582  -3.83241  2.425085  -3.578
Fe  Fe2  1  0.99995443  0.99994223  0.99984652  1  0.702565  1.144912  4.00596  2.409486  3.691
P  P3  1  0.27889589  0.96419484  0.30444316  1  0.366482  1.244864  0.000388  5.28328  0.003
P  P4  1  0.72136733  0.03601739  0.69553854  1  0.366658  1.244939  0.000375  5.282866  0.003
P  P5  1  0.91631918  0.89776091  0.26475107  1  0.341475  1.213556  -0.003579  5.400626  -0.003
P  P6  1  0.08375831  0.10213986  0.73508084  1  0.341303  1.213144  -0.003584  5.401491  -0.003
H  H7  1  0.48262976  0.87842021  0.39246335  1  0.30963  0.402426  0.000295  0.93778  0.0
H  H8  1  0.51749501  0.12170806  0.60761724  1  0.309701  0.402544  0.000293  0.93752  0.0
H  H9  1  0.09340172  0.85411489  0.51637635  1  0.295378  0.34445  -5.4e-05  0.997673  0.0
H  H10  1  0.90677896  0.14599218  0.48365101  1  0.295582  0.344774  -5.7e-05  0.997061  0.0
H  H11  1  0.91294895  0.21318673  0.13366903  1  0.31323  0.387414  0.000178  0.90389  0.0
H  H12  1  0.08566146  0.78626982  0.86488170  1  0.31324  0.387374  0.000182  0.904681  0.0
H  H13  1  0.11733430  0.30144379  0.22694533  1  0.295844  0.389287  0.000399  0.951704  0.0
H  H14  1  0.88129340  0.69840578  0.77286128  1  0.295592  0.388912  0.000389  0.952435  0.0
H  H15  1  0.43538715  0.27810127  0.89478675  1  0.320503  0.282981  0.00029  0.960123  0.0
H  H16  1  0.56506200  0.72174887  0.10526817  1  0.320652  0.283007  0.000289  0.960243  0.0
H  H17  1  0.11726277  0.59688223  0.21271819  1  0.107268  0.128232  0.000128  0.981169  0.0
H  H18  1  0.88291917  0.40316395  0.78752243  1  0.107294  0.128019  0.000131  0.981213  0.0
H  H19  1  0.00134253  0.66035455  0.07084573  1  0.106845  0.127572  -0.000178  1.020206  0.0
H  H20  1  0.99872680  0.33952592  0.92932030  1  0.106972  0.127673  -0.000178  1.020556  0.0
H  H21  1  0.95046786  0.47480107  0.37074958  1  0.115537  0.123871  0.000237  0.997359  0.0
H  H22  1  0.04924960  0.52651025  0.63029992  1  0.11545  0.123653  0.000239  0.997079  0.0
H  H23  1  0.66553700  0.24790053  0.32472345  1  0.117799  0.138205  0.000149  0.988964  0.0
H  H24  1  0.33447791  0.75233591  0.67558339  1  0.117773  0.137955  0.000149  0.988664  0.0
H  H25  1  0.40151792  0.15528616  0.07528922  1  0.130746  0.129085  -0.000304  1.032929  0.0
H  H26  1  0.59888585  0.84410735  0.92449456  1  0.130679  0.12874  -0.000308  1.033179  0.0
H  H27  1  0.69143092  0.48755701  0.92425124  1  0.13482  0.126149  7e-06  0.992218  0.0
H  H28  1  0.30916002  0.51234619  0.07600132  1  0.134798  0.126593  6e-06  0.9926  0.0
C  C29  1  0.07946422  0.81000898  0.30454497  1  0.054366  -0.178378  -4e-06  3.923448  0.0
C  C30  1  0.92085790  0.19021587  0.69558515  1  0.054573  -0.176879  -8e-06  3.920729  0.0
C  C31  1  0.01404168  0.63919826  0.17797209  1  -0.156891  -0.243877  8.6e-05  3.949503  0.0
C  C32  1  0.98618312  0.36090620  0.82230490  1  -0.15701  -0.244343  8.6e-05  3.948246  0.0
C  C33  1  0.84592599  0.50359110  0.15417946  1  0.009527  0.102656  -0.000373  3.945629  -0.002
C  C34  1  0.15430034  0.49664537  0.84625916  1  0.010038  0.103353  -0.00036  3.944553  -0.002
C  C35  1  0.83401772  0.43090784  0.26496760  1  -0.055534  -0.087  0.007443  3.898818  0.011
C  C36  1  0.16598910  0.56969509  0.73565945  1  -0.055751  -0.086722  0.007206  3.898275  0.01
C  C37  1  0.67589675  0.30438813  0.23934431  1  -0.071648  -0.117346  0.000402  3.957785  -0.001
C  C38  1  0.32417663  0.69585824  0.76098087  1  -0.071495  -0.117263  0.000397  3.956715  -0.001
C  C39  1  0.53032488  0.25029114  0.10297734  1  0.065616  0.087512  0.004536  3.823191  0.005
C  C40  1  0.46994735  0.74954880  0.89707679  1  0.065887  0.088028  0.004406  3.821868  0.005
C  C41  1  0.69631124  0.44290094  0.01877643  1  0.069208  0.042  0.005028  3.77612  0.006
C  C42  1  0.30408488  0.55707952  0.98148364  1  0.068856  0.041036  0.004867  3.776538  0.006
C  C43  1  0.42806481  0.48558471  0.42456726  1  0.208927  0.464501  0.015117  4.186997  0.018
C  C44  1  0.57147603  0.51396702  0.57516124  1  0.208184  0.463565  0.015131  4.187299  0.018
N  N45  1  0.54528543  0.32024958  0.99759076  1  -0.335566  -0.110769  0.004603  3.670668  0.008
N  N46  1  0.45507845  0.67962689  0.00250649  1  -0.335405  -0.110507  0.004448  3.669468  0.007
O  O47  1  0.39540597  0.87003290  0.29070213  1  -0.381869  -0.637299  -0.001325  2.237179  -0.003
O  O48  1  0.60474478  0.12998974  0.70933321  1  -0.381881  -0.637395  -0.001331  2.237082  -0.003
O  O49  1  0.22868031  0.01900353  0.16921832  1  -0.363164  -0.741794  0.025303  2.313785  0.033
O  O50  1  0.77157833  0.98110818  0.83070384  1  -0.363139  -0.741605  0.025427  2.315061  0.033
O  O51  1  0.37821954  0.10972773  0.46118907  1  -0.368659  -0.751282  -0.030587  2.411608  -0.046
O  O52  1  0.62210475  0.89047937  0.53882310  1  -0.368874  -0.751381  -0.030639  2.412991  -0.046
O  O53  1  0.00401628  0.07925164  0.38128367  1  -0.369854  -0.766479  -0.028103  2.401983  -0.039
O  O54  1  0.99574281  0.92080343  0.61812497  1  -0.369929  -0.766811  -0.028007  2.401637  -0.039
O  O55  1  0.75619960  0.78197921  0.28116688  1  -0.378922  -0.722868  -0.044806  2.360901  -0.055
O  O56  1  0.24383173  0.21802641  0.71874222  1  -0.378782  -0.722811  -0.044847  2.36191  -0.055
O  O57  1  0.85538536  0.88717571  0.09923599  1  -0.373716  -0.737389  0.033584  2.339829  0.039
O  O58  1  0.14481205  0.11214326  0.90042726  1  -0.373586  -0.737431  0.033567  2.339709  0.039
O  O59  1  0.12437221  0.78570924  0.44745015  1  -0.384648  -0.461807  -0.001143  2.308652  -0.002
O  O60  1  0.87628681  0.21476238  0.55278931  1  -0.38487  -0.462517  -0.001186  2.308072  -0.002
O  O61  1  0.27126424  0.39166455  0.40028607  1  -0.305727  -0.519876  -0.027206  2.390463  -0.034
O  O62  1  0.72827237  0.60794018  0.59943060  1  -0.305503  -0.51975  -0.027099  2.391426  -0.034
O  O63  1  0.47067890  0.55413414  0.33664096  1  -0.288075  -0.483717  -0.026616  2.308576  -0.047
O  O64  1  0.52892629  0.44567308  0.66324803  1  -0.288255  -0.483415  -0.026662  2.306911  -0.047
O  O65  1  0.02001683  0.24149763  0.12104269  1  -0.562567  -0.747614  0.024667  2.16822  0.035
O  O66  1  0.97920017  0.75824143  0.87850469  1  -0.562684  -0.74753  0.024725  2.168603  0.036
