# generated using pymatgen
data_NaPH8(CO2)3
_symmetry_space_group_name_H-M   'P 1'
_cell_length_a   6.01619336
_cell_length_b   9.53465226
_cell_length_c   12.40534998
_cell_angle_alpha   90.00015418
_cell_angle_beta   92.28275235
_cell_angle_gamma   90.00012972
_symmetry_Int_Tables_number   1
_chemical_formula_structural   NaPH8(CO2)3
_chemical_formula_sum   'Na4 P4 H32 C12 O24'
_cell_volume   711.03484835
_cell_formula_units_Z   4
loop_
 _symmetry_equiv_pos_site_id
 _symmetry_equiv_pos_as_xyz
  1  'x, y, z'
loop_
 _atom_site_type_symbol
 _atom_site_label
 _atom_site_symmetry_multiplicity
 _atom_site_fract_x
 _atom_site_fract_y
 _atom_site_fract_z
 _atom_site_occupancy
 _atom_site_hle17_bader_spin_density
 _atom_site_hle17_ddec_charge
 _atom_site_hle17_ddec_spin_density
 _atom_site_hle17_ddec_sum_bond_order
 _atom_site_hle17_magmom
 _atom_site_hse06_10hf_bader_spin_density
 _atom_site_hse06_10hf_ddec_charge
 _atom_site_hse06_10hf_ddec_spin_density
 _atom_site_hse06_10hf_ddec_sum_bond_order
 _atom_site_hse06_10hf_magmom
 _atom_site_hse06_bader_spin_density
 _atom_site_hse06_ddec_charge
 _atom_site_hse06_ddec_spin_density
 _atom_site_hse06_ddec_sum_bond_order
 _atom_site_hse06_magmom
 _atom_site_pbe_bader_spin_density
 _atom_site_pbe_cm5_charge
 _atom_site_pbe_ddec_charge
 _atom_site_pbe_ddec_spin_density
 _atom_site_pbe_ddec_sum_bond_order
 _atom_site_pbe_magmom
Na  Na0  1  0.03007621  0.98407745  0.35716867  1  0  0.900079  0  0.399226  0  0  0.856999  0  0.548311  0  0  0.866836  0  0.527978  0  0  0.711116  0.849737  0  0.562953  0
Na  Na1  1  0.46991812  0.48407487  0.14283055  1  0  0.900098  0  0.399187  0  0  0.857023  0  0.548255  0  0  0.866854  0  0.527929  0  0  0.711128  0.849768  0  0.562899  0
Na  Na2  1  0.96992198  0.01592585  0.64283129  1  0  0.900069  0  0.399239  0  0  0.857004  0  0.548312  0  0  0.866834  0  0.527985  0  0  0.711122  0.849733  0  0.562954  0
Na  Na3  1  0.53008512  0.51592214  0.85716711  1  0  0.900106  0  0.39919  0  0  0.857025  0  0.548256  0  0  0.866859  0  0.527928  0  0  0.711161  0.84977  0  0.562898  0
P  P4  1  0.42560843  0.72175563  0.35553651  1  0  1.124304  0  4.655054  0  0  0.966718  0  5.131573  0  0  1.006121  0  5.108251  0  0  0.23986  0.939122  0  5.147619  0
P  P5  1  0.07438532  0.22177872  0.14444122  1  0  1.124364  0  4.65471  0  0  0.966802  0  5.131236  0  0  1.006214  0  5.107893  0  0  0.239834  0.939205  0  5.147286  0
P  P6  1  0.57439470  0.27824453  0.64446599  1  0  1.124132  0  4.655155  0  0  0.966576  0  5.131666  0  0  1.005976  0  5.108353  0  0  0.239826  0.938977  0  5.147713  0
P  P7  1  0.92561453  0.77822144  0.85555959  1  0  1.124282  0  4.654662  0  0  0.966649  0  5.131149  0  0  1.006057  0  5.107813  0  0  0.239831  0.939051  0  5.147205  0
H  H8  1  0.31827182  0.62532426  0.42322124  1  0  -0.11736  0  0.907832  0  0  -0.087384  0  0.993232  0  0  -0.089983  0  0.990057  0  0  0.088797  -0.085855  0  0.99602  0
H  H9  1  0.18172441  0.12532628  0.07677973  1  0  -0.117299  0  0.907855  0  0  -0.087364  0  0.993307  0  0  -0.089961  0  0.990129  0  0  0.088827  -0.085834  0  0.996097  0
H  H10  1  0.68172967  0.37467695  0.57678042  1  0  -0.117329  0  0.907807  0  0  -0.087336  0  0.99319  0  0  -0.089936  0  0.990017  0  0  0.0888  -0.085807  0  0.995979  0
H  H11  1  0.81827710  0.87467283  0.92322111  1  0  -0.117302  0  0.907904  0  0  -0.087313  0  0.993284  0  0  -0.089912  0  0.990108  0  0  0.088842  -0.085784  0  0.996075  0
H  H12  1  0.66834156  0.46793231  0.43075868  1  0  0.117971  0  0.975749  0  0  0.132824  0  1.048235  0  0  0.134734  0  1.047549  0  0  0.092205  0.131309  0  1.049086  0
H  H13  1  0.83165649  0.96793008  0.06924155  1  0  0.117952  0  0.975736  0  0  0.132818  0  1.048225  0  0  0.134725  0  1.047542  0  0  0.092199  0.131303  0  1.049079  0
H  H14  1  0.33165496  0.53206995  0.56924205  1  0  0.117976  0  0.97576  0  0  0.132827  0  1.04825  0  0  0.134736  0  1.047566  0  0  0.092203  0.131311  0  1.0491  0
H  H15  1  0.16833506  0.03206693  0.93075825  1  0  0.117936  0  0.975756  0  0  0.132786  0  1.04826  0  0  0.134693  0  1.047578  0  0  0.092188  0.131271  0  1.049113  0
H  H16  1  0.75168028  0.48474343  0.29592003  1  0  0.1146  0  0.984268  0  0  0.132921  0  1.049128  0  0  0.136296  0  1.046673  0  0  0.097741  0.130298  0  1.051187  0
H  H17  1  0.74831785  0.98473843  0.20407942  1  0  0.114629  0  0.984234  0  0  0.132958  0  1.049076  0  0  0.136327  0  1.046627  0  0  0.097753  0.130332  0  1.05113  0
H  H18  1  0.24831792  0.51525987  0.70407993  1  0  0.114591  0  0.984285  0  0  0.132922  0  1.049128  0  0  0.136291  0  1.04668  0  0  0.097737  0.130299  0  1.051186  0
H  H19  1  0.25167697  0.01525858  0.79592288  1  0  0.114649  0  0.984267  0  0  0.132972  0  1.049104  0  0  0.136346  0  1.046651  0  0  0.097774  0.130347  0  1.051151  0
H  H20  1  0.84916257  0.70163541  0.23454537  1  0  0.399269  0  0.879934  0  0  0.378344  0  0.943945  0  0  0.38827  0  0.932971  0  0  0.302219  0.371284  0  0.951782  0
H  H21  1  0.65083115  0.20163492  0.26545341  1  0  0.399169  0  0.880109  0  0  0.378311  0  0.944009  0  0  0.388233  0  0.933044  0  0  0.302246  0.371249  0  0.95184  0
H  H22  1  0.15083561  0.29836579  0.76545540  1  0  0.399246  0  0.879984  0  0  0.378314  0  0.944  0  0  0.38824  0  0.933028  0  0  0.3022  0.371251  0  0.951836  0
H  H23  1  0.34916540  0.79836628  0.73454570  1  0  0.3992  0  0.87999  0  0  0.378268  0  0.944008  0  0  0.388191  0  0.933041  0  0  0.302221  0.371206  0  0.951836  0
H  H24  1  0.95136766  0.50462074  0.40282616  1  0  0.123531  0  0.949937  0  0  0.143387  0  1.012242  0  0  0.144934  0  1.012348  0  0  0.095276  0.142212  0  1.0123  0
H  H25  1  0.54863359  0.00461426  0.09717403  1  0  0.12352  0  0.949921  0  0  0.143369  0  1.012234  0  0  0.144937  0  1.012316  0  0  0.095264  0.142199  0  1.012287  0
H  H26  1  0.04863383  0.49538047  0.59717550  1  0  0.123498  0  0.949941  0  0  0.143366  0  1.012236  0  0  0.144926  0  1.012328  0  0  0.09526  0.142191  0  1.012296  0
H  H27  1  0.45135959  0.99538485  0.90282743  1  0  0.123551  0  0.949921  0  0  0.143373  0  1.012262  0  0  0.144933  0  1.012354  0  0  0.095254  0.142199  0  1.012317  0
H  H28  1  0.77598589  0.72741680  0.64489629  1  0  0.42434  0  0.859289  0  0  0.392934  0  0.935954  0  0  0.405615  0  0.922403  0  0  0.312267  0.38401  0  0.945405  0
H  H29  1  0.72402193  0.22741044  0.85510739  1  0  0.424231  0  0.859307  0  0  0.392818  0  0.93599  0  0  0.405494  0  0.922453  0  0  0.312271  0.383898  0  0.945431  0
H  H30  1  0.22402224  0.27259070  0.35510633  1  0  0.424381  0  0.859301  0  0  0.392999  0  0.935923  0  0  0.405663  0  0.922402  0  0  0.312298  0.384077  0  0.945374  0
H  H31  1  0.27598622  0.77258343  0.14489442  1  0  0.424363  0  0.859251  0  0  0.392927  0  0.93596  0  0  0.405613  0  0.9224  0  0  0.312293  0.384005  0  0.945403  0
H  H32  1  0.54499390  0.01266119  0.37399809  1  0  0.427121  0  0.874596  0  0  0.397143  0  0.936923  0  0  0.407092  0  0.922416  0  0  0.29506  0.390072  0  0.947231  0
H  H33  1  0.95500241  0.51265934  0.12600118  1  0  0.42698  0  0.874785  0  0  0.397053  0  0.937004  0  0  0.406997  0  0.92251  0  0  0.295045  0.389986  0  0.947305  0
H  H34  1  0.45500431  0.98734002  0.62600106  1  0  0.42711  0  0.874613  0  0  0.397135  0  0.936936  0  0  0.407084  0  0.92243  0  0  0.295066  0.390062  0  0.947247  0
H  H35  1  0.04499582  0.48733977  0.87399717  1  0  0.427129  0  0.874564  0  0  0.397143  0  0.936899  0  0  0.407092  0  0.922393  0  0  0.295084  0.390076  0  0.947201  0
H  H36  1  0.66244988  0.12102089  0.45080374  1  0  0.420794  0  0.867493  0  0  0.392707  0  0.934193  0  0  0.401869  0  0.920804  0  0  0.29993  0.38618  0  0.943781  0
H  H37  1  0.83754682  0.62102175  0.04919656  1  0  0.420806  0  0.867459  0  0  0.392695  0  0.934209  0  0  0.401859  0  0.920815  0  0  0.299948  0.386171  0  0.943796  0
H  H38  1  0.33754831  0.87898136  0.54919622  1  0  0.420743  0  0.867514  0  0  0.392649  0  0.934256  0  0  0.401811  0  0.920868  0  0  0.29991  0.386124  0  0.943843  0
H  H39  1  0.16244971  0.37897736  0.95080336  1  0  0.420739  0  0.867551  0  0  0.392639  0  0.93428  0  0  0.401802  0  0.920888  0  0  0.299922  0.386114  0  0.943868  0
C  C40  1  0.79699014  0.74490538  0.49140188  1  0  0.651295  0  3.765414  0  0  0.601729  0  4.063884  0  0  0.633341  0  4.056242  0  0  0.237674  0.579992  0  4.06894  0
C  C41  1  0.70300709  0.24490823  0.00859627  1  0  0.651328  0  3.765766  0  0  0.601713  0  4.064318  0  0  0.63332  0  4.056685  0  0  0.23764  0.579976  0  4.069381  0
C  C42  1  0.20300304  0.25509688  0.50859957  1  0  0.651344  0  3.765605  0  0  0.601822  0  4.064019  0  0  0.633431  0  4.056381  0  0  0.23768  0.580083  0  4.06908  0
C  C43  1  0.29699781  0.75509297  0.99140144  1  0  0.651387  0  3.765553  0  0  0.601758  0  4.064051  0  0  0.633364  0  4.056417  0  0  0.237663  0.580028  0  4.069109  0
C  C44  1  0.73150468  0.68313676  0.38141872  1  0  0.012951  0  3.680901  0  0  0.039503  0  3.92415  0  0  0.035394  0  3.937295  0  0  0.058567  0.04203  0  3.915491  0
C  C45  1  0.76849557  0.18313381  0.11858260  1  0  0.012933  0  3.68085  0  0  0.039439  0  3.924214  0  0  0.035327  0  3.937361  0  0  0.058605  0.04197  0  3.915548  0
C  C46  1  0.26849688  0.31686340  0.61857971  1  0  0.013065  0  3.680735  0  0  0.039514  0  3.924116  0  0  0.035404  0  3.937267  0  0  0.058581  0.042048  0  3.915448  0
C  C47  1  0.23150765  0.81686321  0.88141587  1  0  0.012974  0  3.680852  0  0  0.039645  0  3.923912  0  0  0.035537  0  3.937058  0  0  0.058583  0.042162  0  3.915279  0
C  C48  1  0.77745672  0.52573618  0.37785872  1  0  -0.348119  0  3.682856  0  0  -0.434529  0  3.921979  0  0  -0.437165  0  3.930375  0  0  -0.244083  -0.432442  0  3.916743  0
C  C49  1  0.72253962  0.02573423  0.12214138  1  0  -0.34811  0  3.682786  0  0  -0.434526  0  3.92193  0  0  -0.437171  0  3.930311  0  0  -0.244084  -0.432441  0  3.916689  0
C  C50  1  0.22254479  0.47426503  0.62214212  1  0  -0.348126  0  3.682854  0  0  -0.434536  0  3.922004  0  0  -0.437178  0  3.930397  0  0  -0.244074  -0.432452  0  3.916769  0
C  C51  1  0.27745690  0.97426279  0.87785934  1  0  -0.348142  0  3.682923  0  0  -0.434572  0  3.922044  0  0  -0.437219  0  3.930432  0  0  -0.244072  -0.432481  0  3.916803  0
O  O52  1  0.36777270  0.68356626  0.23890571  1  0  -0.808926  0  2.014864  0  0  -0.734676  0  2.272305  0  0  -0.757828  0  2.254609  0  0  -0.424847  -0.717996  0  2.283951  0
O  O53  1  0.13222516  0.18356258  0.26110831  1  0  -0.809045  0  2.013392  0  0  -0.734822  0  2.270777  0  0  -0.75797  0  2.253091  0  0  -0.424864  -0.718133  0  2.282418  0
O  O54  1  0.63223047  0.31643286  0.76109518  1  0  -0.808805  0  2.014989  0  0  -0.734558  0  2.272405  0  0  -0.75771  0  2.254721  0  0  -0.424802  -0.71788  0  2.284051  0
O  O55  1  0.86777633  0.81644178  0.73889334  1  0  -0.808996  0  2.013444  0  0  -0.734765  0  2.27086  0  0  -0.757922  0  2.253171  0  0  -0.424872  -0.718075  0  2.282498  0
O  O56  1  0.37548095  0.87007465  0.39326418  1  0  -0.82274  0  1.995468  0  0  -0.742044  0  2.241994  0  0  -0.764976  0  2.224404  0  0  -0.413402  -0.725705  0  2.253829  0
O  O57  1  0.12450122  0.37005992  0.10673855  1  0  -0.822744  0  1.996525  0  0  -0.742029  0  2.242997  0  0  -0.764955  0  2.225395  0  0  -0.413374  -0.725692  0  2.25484  0
O  O58  1  0.62451395  0.12992446  0.60673409  1  0  -0.82271  0  1.995435  0  0  -0.742038  0  2.241963  0  0  -0.764968  0  2.224374  0  0  -0.413425  -0.725699  0  2.2538  0
O  O59  1  0.87549536  0.62993814  0.89325895  1  0  -0.822757  0  1.996481  0  0  -0.742009  0  2.242982  0  0  -0.764942  0  2.225386  0  0  -0.413362  -0.725672  0  2.254825  0
O  O60  1  0.84895124  0.75885419  0.30249095  1  0  -0.590064  0  2.07789  0  0  -0.547247  0  2.294681  0  0  -0.561663  0  2.283674  0  0  -0.41788  -0.536584  0  2.302415  0
O  O61  1  0.65103926  0.25884926  0.19751352  1  0  -0.590003  0  2.078016  0  0  -0.547206  0  2.29475  0  0  -0.561636  0  2.28378  0  0  -0.417935  -0.536541  0  2.302479  0
O  O62  1  0.15104861  0.24114702  0.69750986  1  0  -0.590056  0  2.077808  0  0  -0.547219  0  2.294658  0  0  -0.561622  0  2.283625  0  0  -0.41787  -0.536556  0  2.302388  0
O  O63  1  0.34896233  0.74114775  0.80248330  1  0  -0.589982  0  2.077869  0  0  -0.547185  0  2.294629  0  0  -0.561602  0  2.283629  0  0  -0.41789  -0.536519  0  2.30236  0
O  O64  1  0.72349518  0.67412785  0.57494264  1  0  -0.552438  0  2.067634  0  0  -0.496504  0  2.285075  0  0  -0.519778  0  2.272275  0  0  -0.317226  -0.480234  0  2.293526  0
O  O65  1  0.77650576  0.17412497  0.92506157  1  0  -0.552317  0  2.067696  0  0  -0.496335  0  2.28514  0  0  -0.519598  0  2.27234  0  0  -0.317133  -0.48006  0  2.293581  0
O  O66  1  0.27650628  0.32587021  0.42506062  1  0  -0.552453  0  2.06776  0  0  -0.496544  0  2.285173  0  0  -0.519796  0  2.272376  0  0  -0.317227  -0.480277  0  2.293633  0
O  O67  1  0.22350073  0.82586890  0.07493940  1  0  -0.552484  0  2.067699  0  0  -0.496467  0  2.285114  0  0  -0.519747  0  2.272319  0  0  -0.317158  -0.4802  0  2.293577  0
O  O68  1  0.90568997  0.85411973  0.50070284  1  0  -0.619872  0  2.02662  0  0  -0.58431  0  2.274793  0  0  -0.602554  0  2.263871  0  0  -0.40268  -0.571777  0  2.282388  0
O  O69  1  0.59430174  0.35411161  0.99929828  1  0  -0.619886  0  2.027034  0  0  -0.58433  0  2.275286  0  0  -0.602568  0  2.264366  0  0  -0.402639  -0.571793  0  2.28289  0
O  O70  1  0.09429821  0.14588672  0.49929849  1  0  -0.619953  0  2.026765  0  0  -0.584404  0  2.274928  0  0  -0.602648  0  2.264008  0  0  -0.402689  -0.57187  0  2.282528  0
O  O71  1  0.40570658  0.64588331  0.00069467  1  0  -0.619963  0  2.026829  0  0  -0.584416  0  2.275051  0  0  -0.602653  0  2.264129  0  0  -0.402687  -0.571875  0  2.282652  0
O  O72  1  0.65309049  0.09193841  0.37452654  1  0  -0.856753  0  1.845073  0  0  -0.808541  0  2.017652  0  0  -0.826578  0  1.988956  0  0  -0.610705  -0.795691  0  2.038079  0
O  O73  1  0.84690107  0.59194060  0.12547600  1  0  -0.856605  0  1.845209  0  0  -0.808392  0  2.01785  0  0  -0.826427  0  1.989152  0  0  -0.610632  -0.795534  0  2.038271  0
O  O74  1  0.34690603  0.90806385  0.62547418  1  0  -0.856706  0  1.845091  0  0  -0.808471  0  2.017716  0  0  -0.826509  0  1.989019  0  0  -0.610697  -0.795625  0  2.03814  0
O  O75  1  0.15309715  0.40805851  0.87452316  1  0  -0.85669  0  1.845125  0  0  -0.808453  0  2.017768  0  0  -0.826493  0  1.98907  0  0  -0.610657  -0.795598  0  2.038191  0
