# generated using pymatgen
data_AgH8C8N2O2F3
_symmetry_space_group_name_H-M   'P 1'
_cell_length_a   4.71611030
_cell_length_b   9.86530323
_cell_length_c   22.15871037
_cell_angle_alpha   90.00036359
_cell_angle_beta   89.99999521
_cell_angle_gamma   89.99997090
_symmetry_Int_Tables_number   1
_chemical_formula_structural   AgH8C8N2O2F3
_chemical_formula_sum   'Ag4 H32 C32 N8 O8 F12'
_cell_volume   1030.95301615
_cell_formula_units_Z   4
loop_
 _symmetry_equiv_pos_site_id
 _symmetry_equiv_pos_as_xyz
  1  'x, y, z'
loop_
 _atom_site_type_symbol
 _atom_site_label
 _atom_site_symmetry_multiplicity
 _atom_site_fract_x
 _atom_site_fract_y
 _atom_site_fract_z
 _atom_site_occupancy
 _atom_site_hle17_bader_spin_density
 _atom_site_hle17_ddec_charge
 _atom_site_hle17_ddec_spin_density
 _atom_site_hle17_ddec_sum_bond_order
 _atom_site_hle17_magmom
 _atom_site_hse06_10hf_bader_spin_density
 _atom_site_hse06_10hf_ddec_charge
 _atom_site_hse06_10hf_ddec_spin_density
 _atom_site_hse06_10hf_ddec_sum_bond_order
 _atom_site_hse06_10hf_magmom
 _atom_site_hse06_bader_spin_density
 _atom_site_hse06_ddec_charge
 _atom_site_hse06_ddec_spin_density
 _atom_site_hse06_ddec_sum_bond_order
 _atom_site_hse06_magmom
 _atom_site_pbe_bader_spin_density
 _atom_site_pbe_cm5_charge
 _atom_site_pbe_ddec_charge
 _atom_site_pbe_ddec_spin_density
 _atom_site_pbe_ddec_sum_bond_order
 _atom_site_pbe_magmom
Ag  Ag0  1  0.68114774  0.77336848  0.21934283  1  0  0.545424  0  1.346762  0  0  0.408429  0  1.76667  0  0  0.436957  0  1.723397  0  0  0.457913  0.388744  0  1.796496  0
Ag  Ag1  1  0.81884827  0.22662956  0.71934317  1  0  0.545197  0  1.346748  0  0  0.408437  0  1.766645  0  0  0.436975  0  1.723355  0  0  0.457921  0.388756  0  1.796471  0
Ag  Ag2  1  0.31884942  0.27336912  0.28065706  1  0  0.545301  0  1.346608  0  0  0.408412  0  1.766602  0  0  0.436948  0  1.723311  0  0  0.457895  0.388719  0  1.796424  0
Ag  Ag3  1  0.18114238  0.72663194  0.78065657  1  0  0.545144  0  1.346677  0  0  0.40837  0  1.766576  0  0  0.43689  0  1.723315  0  0  0.457897  0.388681  0  1.796397  0
H  H4  1  0.68458081  0.46290686  0.24821862  1  0  0.284281  0  0.946944  0  0  0.273087  0  1.008368  0  0  0.28032  0  1.002663  0  0  0.274924  0.268185  0  1.011941  0
H  H5  1  0.81541518  0.53709564  0.74821939  1  0  0.284205  0  0.947087  0  0  0.273044  0  1.008456  0  0  0.280276  0  1.002752  0  0  0.274911  0.268144  0  1.012027  0
H  H6  1  0.31541827  0.96290170  0.25178046  1  0  0.284327  0  0.946968  0  0  0.273127  0  1.008396  0  0  0.28036  0  1.002692  0  0  0.274942  0.268226  0  1.011968  0
H  H7  1  0.18457567  0.03709489  0.75178026  1  0  0.284283  0  0.946993  0  0  0.273113  0  1.008387  0  0  0.280346  0  1.002681  0  0  0.274945  0.268212  0  1.01196  0
H  H8  1  0.69468879  0.33679483  0.19991824  1  0  0.287561  0  0.95699  0  0  0.274934  0  1.01772  0  0  0.281476  0  1.013962  0  0  0.274663  0.270465  0  1.020124  0
H  H9  1  0.80530086  0.66320698  0.69991892  1  0  0.287578  0  0.956924  0  0  0.274957  0  1.017666  0  0  0.281502  0  1.013899  0  0  0.274665  0.27049  0  1.02007  0
H  H10  1  0.30530194  0.83679036  0.30008047  1  0  0.28752  0  0.957018  0  0  0.275028  0  1.017606  0  0  0.281575  0  1.013828  0  0  0.274679  0.270561  0  1.020012  0
H  H11  1  0.19468986  0.16320590  0.80008109  1  0  0.287622  0  0.95691  0  0  0.275003  0  1.017651  0  0  0.281546  0  1.013886  0  0  0.274684  0.270538  0  1.020056  0
H  H12  1  0.29787013  0.57039438  0.19873169  1  0  0.066827  0  0.947835  0  0  0.079334  0  1.026858  0  0  0.080907  0  1.023881  0  0  0.100096  0.077815  0  1.029442  0
H  H13  1  0.20212595  0.42961058  0.69873171  1  0  0.066792  0  0.94795  0  0  0.079313  0  1.026911  0  0  0.080888  0  1.023933  0  0  0.100066  0.077796  0  1.029493  0
H  H14  1  0.70212725  0.07038407  0.30126808  1  0  0.066865  0  0.947908  0  0  0.079355  0  1.026905  0  0  0.080928  0  1.02393  0  0  0.100066  0.077839  0  1.029484  0
H  H15  1  0.79786448  0.92961208  0.80126816  1  0  0.06683  0  0.947923  0  0  0.07935  0  1.026876  0  0  0.080924  0  1.023899  0  0  0.100077  0.077833  0  1.029457  0
H  H16  1  0.24081260  0.42246553  0.15436157  1  0  0.086662  0  0.920408  0  0  0.102867  0  0.980384  0  0  0.103555  0  0.980929  0  0  0.105148  0.102321  0  0.979988  0
H  H17  1  0.25918137  0.57753982  0.65436200  1  0  0.086658  0  0.920407  0  0  0.102852  0  0.980389  0  0  0.10354  0  0.980933  0  0  0.105131  0.102305  0  0.979994  0
H  H18  1  0.75918440  0.92245550  0.34563694  1  0  0.086722  0  0.920396  0  0  0.102863  0  0.980423  0  0  0.103552  0  0.980967  0  0  0.105143  0.102319  0  0.980028  0
H  H19  1  0.74081156  0.07754128  0.84563822  1  0  0.086734  0  0.920373  0  0  0.102884  0  0.980384  0  0  0.103571  0  0.98093  0  0  0.105154  0.10234  0  0.979991  0
H  H20  1  0.49421426  0.38741979  0.06203484  1  0  0.113351  0  0.946819  0  0  0.120664  0  1.011125  0  0  0.124288  0  1.009145  0  0  0.103512  0.118178  0  1.012438  0
H  H21  1  0.00578399  0.61258120  0.56203538  1  0  0.113412  0  0.946763  0  0  0.120705  0  1.011104  0  0  0.12433  0  1.009124  0  0  0.103531  0.118218  0  1.012418  0
H  H22  1  0.50578490  0.88741621  0.43796492  1  0  0.113202  0  0.94703  0  0  0.120767  0  1.011039  0  0  0.124393  0  1.009057  0  0  0.103556  0.118283  0  1.012355  0
H  H23  1  0.99421314  0.11258290  0.93796539  1  0  0.113431  0  0.946747  0  0  0.120766  0  1.011026  0  0  0.124391  0  1.009044  0  0  0.103551  0.118282  0  1.012341  0
H  H24  1  0.84024495  0.47318342  0.98570875  1  0  0.096218  0  0.956187  0  0  0.101595  0  1.02374  0  0  0.105356  0  1.019226  0  0  0.098204  0.098719  0  1.027148  0
H  H25  1  0.65975518  0.52681636  0.48570861  1  0  0.096123  0  0.956292  0  0  0.101603  0  1.02374  0  0  0.105365  0  1.019226  0  0  0.098202  0.098727  0  1.027148  0
H  H26  1  0.15975391  0.97318304  0.51429124  1  0  0.096278  0  0.956159  0  0  0.101636  0  1.023757  0  0  0.105397  0  1.019245  0  0  0.098213  0.098762  0  1.027166  0
H  H27  1  0.34024224  0.02681728  0.01429103  1  0  0.09625  0  0.956205  0  0  0.101628  0  1.023753  0  0  0.105389  0  1.019241  0  0  0.098215  0.098753  0  1.027162  0
H  H28  1  0.14350561  0.67480244  0.01252831  1  0  0.099679  0  0.967575  0  0  0.10989  0  1.027383  0  0  0.111895  0  1.029073  0  0  0.101042  0.108402  0  1.026458  0
H  H29  1  0.35649266  0.32519887  0.51252803  1  0  0.099678  0  0.967557  0  0  0.109859  0  1.02741  0  0  0.11187  0  1.029093  0  0  0.101031  0.108371  0  1.026485  0
H  H30  1  0.85649165  0.17480082  0.48747085  1  0  0.099684  0  0.967559  0  0  0.109876  0  1.027387  0  0  0.111886  0  1.029073  0  0  0.101033  0.108389  0  1.026462  0
H  H31  1  0.64350424  0.82519899  0.98747064  1  0  0.099711  0  0.967539  0  0  0.109907  0  1.027363  0  0  0.111918  0  1.029048  0  0  0.101071  0.108419  0  1.026438  0
H  H32  1  0.07220525  0.78490521  0.11362009  1  0  0.08279  0  0.95136  0  0  0.089776  0  1.020796  0  0  0.093045  0  1.016693  0  0  0.111988  0.087368  0  1.023667  0
H  H33  1  0.42779510  0.21509652  0.61361995  1  0  0.082798  0  0.951322  0  0  0.089784  0  1.020757  0  0  0.093054  0  1.016652  0  0  0.11199  0.087377  0  1.023629  0
H  H34  1  0.92780038  0.28490010  0.38637893  1  0  0.082929  0  0.951211  0  0  0.089866  0  1.020729  0  0  0.093131  0  1.016621  0  0  0.111997  0.087456  0  1.023597  0
H  H35  1  0.57219768  0.71509827  0.88637841  1  0  0.082909  0  0.951206  0  0  0.08983  0  1.020704  0  0  0.093093  0  1.016601  0  0  0.111989  0.087423  0  1.023575  0
C  C36  1  0.40425870  0.48604505  0.17539357  1  0  -0.004166  0  3.682466  0  0  -0.072308  0  3.940743  0  0  -0.068618  0  3.952833  0  0  -0.077236  -0.074415  0  3.932086  0
C  C37  1  0.09573527  0.51395857  0.67539383  1  0  -0.004185  0  3.682575  0  0  -0.072254  0  3.940729  0  0  -0.068567  0  3.952826  0  0  -0.077179  -0.074365  0  3.93208  0
C  C38  1  0.59574035  0.98603680  0.32460603  1  0  -0.004331  0  3.682832  0  0  -0.07237  0  3.940972  0  0  -0.068681  0  3.953062  0  0  -0.077236  -0.074482  0  3.932325  0
C  C39  1  0.90425349  0.01396071  0.82460576  1  0  -0.00435  0  3.682709  0  0  -0.072374  0  3.940862  0  0  -0.068686  0  3.952951  0  0  -0.077271  -0.074485  0  3.932214  0
C  C40  1  0.60089318  0.54029542  0.12745448  1  0  0.217924  0  3.71598  0  0  0.223448  0  3.953018  0  0  0.230521  0  3.976639  0  0  0.115893  0.218519  0  3.937114  0
C  C41  1  0.89910286  0.45970638  0.62745458  1  0  0.2179  0  3.7159  0  0  0.223408  0  3.952943  0  0  0.230482  0  3.976566  0  0  0.115929  0.218481  0  3.937038  0
C  C42  1  0.39910635  0.04028924  0.37254520  1  0  0.218001  0  3.715972  0  0  0.223489  0  3.953051  0  0  0.230562  0  3.976673  0  0  0.116013  0.21856  0  3.937154  0
C  C43  1  0.10088966  0.95970906  0.87254492  1  0  0.217919  0  3.716043  0  0  0.223434  0  3.953071  0  0  0.230508  0  3.976691  0  0  0.115977  0.218505  0  3.93717  0
C  C44  1  0.62691255  0.47500763  0.07177380  1  0  -0.154902  0  3.712494  0  0  -0.176059  0  3.965466  0  0  -0.184027  0  3.987371  0  0  -0.086046  -0.171015  0  3.950503  0
C  C45  1  0.87308563  0.52499339  0.57177409  1  0  -0.15495  0  3.712411  0  0  -0.176144  0  3.965465  0  0  -0.184113  0  3.987369  0  0  -0.086094  -0.171097  0  3.950492  0
C  C46  1  0.37308863  0.97500293  0.42822531  1  0  -0.15507  0  3.712865  0  0  -0.176186  0  3.965584  0  0  -0.184155  0  3.987488  0  0  -0.086147  -0.171139  0  3.950614  0
C  C47  1  0.12690735  0.02499617  0.92822599  1  0  -0.154966  0  3.712484  0  0  -0.176155  0  3.965469  0  0  -0.184124  0  3.987371  0  0  -0.0861  -0.171111  0  3.950511  0
C  C48  1  0.82050427  0.52268450  0.02939459  1  0  0.00114  0  3.724686  0  0  -0.01903  0  3.977514  0  0  -0.014581  0  3.994664  0  0  -0.0713  -0.021625  0  3.965962  0
C  C49  1  0.67949817  0.47731693  0.52939475  1  0  0.001223  0  3.724556  0  0  -0.018998  0  3.977421  0  0  -0.014549  0  3.994571  0  0  -0.071291  -0.021593  0  3.965869  0
C  C50  1  0.17949951  0.02268077  0.47060504  1  0  0.001145  0  3.724515  0  0  -0.019131  0  3.977512  0  0  -0.014682  0  3.994663  0  0  -0.071314  -0.021726  0  3.965967  0
C  C51  1  0.32049858  0.97731791  0.97060525  1  0  0.0011  0  3.724647  0  0  -0.019074  0  3.977485  0  0  -0.014627  0  3.99464  0  0  -0.071295  -0.021669  0  3.965935  0
C  C52  1  0.98755501  0.63462944  0.04403234  1  0  -0.127203  0  3.752319  0  0  -0.136703  0  3.996846  0  0  -0.144542  0  4.020593  0  0  -0.089407  -0.131841  0  3.981105  0
C  C53  1  0.51244106  0.36537118  0.54403263  1  0  -0.127158  0  3.752099  0  0  -0.136682  0  3.996701  0  0  -0.144528  0  4.020446  0  0  -0.089406  -0.131822  0  3.980963  0
C  C54  1  0.01244866  0.13462758  0.45596716  1  0  -0.127046  0  3.752101  0  0  -0.136574  0  3.996727  0  0  -0.144418  0  4.020471  0  0  -0.089391  -0.131714  0  3.980989  0
C  C55  1  0.48754732  0.86537292  0.95596661  1  0  -0.127144  0  3.752206  0  0  -0.136622  0  3.996721  0  0  -0.144467  0  4.020462  0  0  -0.089429  -0.13176  0  3.980979  0
C  C56  1  0.95082555  0.69588899  0.10003207  1  0  0.120951  0  3.713112  0  0  0.091139  0  3.956973  0  0  0.098032  0  3.976227  0  0  0.039741  0.086645  0  3.943716  0
C  C57  1  0.54917262  0.30411243  0.60003219  1  0  0.120933  0  3.713055  0  0  0.091121  0  3.956922  0  0  0.098013  0  3.976178  0  0  0.039742  0.086624  0  3.94367  0
C  C58  1  0.04917593  0.19588429  0.39996715  1  0  0.12074  0  3.713049  0  0  0.090862  0  3.957075  0  0  0.097763  0  3.976324  0  0  0.039663  0.08637  0  3.943813  0
C  C59  1  0.45082218  0.80411339  0.89996687  1  0  0.120667  0  3.713081  0  0  0.090905  0  3.956974  0  0  0.097808  0  3.976217  0  0  0.039677  0.086405  0  3.943719  0
C  C60  1  0.04050970  0.59319850  0.33095828  1  0  0.495579  0  4.068338  0  0  0.442377  0  4.376489  0  0  0.471593  0  4.371164  0  0  0.185815  0.42285  0  4.37949  0
C  C61  1  0.45950753  0.40679617  0.83095778  1  0  0.496084  0  4.067083  0  0  0.442307  0  4.376359  0  0  0.471526  0  4.371032  0  0  0.185829  0.422784  0  4.37935  0
C  C62  1  0.95952370  0.09320146  0.16904290  1  0  0.496178  0  4.06707  0  0  0.442385  0  4.37635  0  0  0.47161  0  4.371027  0  0  0.185825  0.42286  0  4.379343  0
C  C63  1  0.54048081  0.90680194  0.66904202  1  0  0.496239  0  4.066781  0  0  0.442405  0  4.376146  0  0  0.471627  0  4.37082  0  0  0.185834  0.422882  0  4.37914  0
C  C64  1  0.21159983  0.59863919  0.39143608  1  0  0.662094  0  3.621463  0  0  0.590539  0  3.968587  0  0  0.618299  0  3.941409  0  0  0.291529  0.570754  0  3.987769  0
C  C65  1  0.28841101  0.40136242  0.89143376  1  0  0.662542  0  3.620274  0  0  0.590248  0  3.968832  0  0  0.617995  0  3.941669  0  0  0.291462  0.570468  0  3.988008  0
C  C66  1  0.78841872  0.09863728  0.10856557  1  0  0.662342  0  3.620462  0  0  0.590052  0  3.969031  0  0  0.617782  0  3.941897  0  0  0.291412  0.570276  0  3.988206  0
C  C67  1  0.71158157  0.90136223  0.60856557  1  0  0.662554  0  3.620069  0  0  0.590239  0  3.968693  0  0  0.617982  0  3.941533  0  0  0.291445  0.57046  0  3.987871  0
N  N68  1  0.75968712  0.65085064  0.14069142  1  0  -0.346981  0  3.331598  0  0  -0.258279  0  3.600547  0  0  -0.278773  0  3.618204  0  0  -0.346533  -0.244585  0  3.588515  0
N  N69  1  0.74030892  0.34915033  0.64069120  1  0  -0.346932  0  3.331566  0  0  -0.258238  0  3.600484  0  0  -0.278733  0  3.618142  0  0  -0.346549  -0.244545  0  3.588453  0
N  N70  1  0.24031653  0.15084431  0.35930813  1  0  -0.346742  0  3.331311  0  0  -0.25808  0  3.600293  0  0  -0.278575  0  3.617952  0  0  -0.346487  -0.244385  0  3.588254  0
N  N71  1  0.25968160  0.84915381  0.85930753  1  0  -0.346812  0  3.331489  0  0  -0.258085  0  3.60034  0  0  -0.278579  0  3.617995  0  0  -0.346493  -0.244389  0  3.588301  0
N  N72  1  0.55794047  0.40421208  0.22057297  1  0  -0.602525  0  3.190843  0  0  -0.526944  0  3.439164  0  0  -0.550679  0  3.440425  0  0  -0.647924  -0.510094  0  3.437018  0
N  N73  1  0.94205130  0.59579104  0.72057346  1  0  -0.602464  0  3.19084  0  0  -0.526881  0  3.439008  0  0  -0.550616  0  3.440273  0  0  -0.647915  -0.510042  0  3.436872  0
N  N74  1  0.44205443  0.90420525  0.27942639  1  0  -0.602713  0  3.191072  0  0  -0.527085  0  3.439043  0  0  -0.55082  0  3.440303  0  0  -0.647972  -0.510232  0  3.436902  0
N  N75  1  0.05793949  0.09579173  0.77942636  1  0  -0.602635  0  3.190926  0  0  -0.527044  0  3.43906  0  0  -0.550778  0  3.440318  0  0  -0.647982  -0.510193  0  3.436922  0
O  O76  1  0.02115259  0.70712893  0.30551292  1  0  -0.58617  0  2.081719  0  0  -0.543007  0  2.343914  0  0  -0.56645  0  2.332268  0  0  -0.322481  -0.526855  0  2.351174  0
O  O77  1  0.47886889  0.29286437  0.80551390  1  0  -0.586001  0  2.080795  0  0  -0.543011  0  2.343895  0  0  -0.566462  0  2.332264  0  0  -0.322531  -0.526867  0  2.351168  0
O  O78  1  0.97887221  0.20712921  0.19448814  1  0  -0.585971  0  2.08089  0  0  -0.543002  0  2.34405  0  0  -0.566438  0  2.332381  0  0  -0.322495  -0.526849  0  2.351306  0
O  O79  1  0.52113441  0.79287456  0.69448874  1  0  -0.586013  0  2.080685  0  0  -0.54303  0  2.343883  0  0  -0.566456  0  2.332196  0  0  -0.322502  -0.526875  0  2.351136  0
O  O80  1  0.94240342  0.48015767  0.31594505  1  0  -0.578361  0  2.039307  0  0  -0.541295  0  2.290609  0  0  -0.563023  0  2.278607  0  0  -0.316764  -0.526401  0  2.298308  0
O  O81  1  0.55763707  0.51983262  0.81594533  1  0  -0.578408  0  2.038583  0  0  -0.541168  0  2.290344  0  0  -0.562895  0  2.278345  0  0  -0.316739  -0.526276  0  2.298041  0
O  O82  1  0.05764652  0.98016478  0.18405542  1  0  -0.578369  0  2.038547  0  0  -0.541156  0  2.290357  0  0  -0.562887  0  2.278356  0  0  -0.316706  -0.526266  0  2.298058  0
O  O83  1  0.44235804  0.01984098  0.68405337  1  0  -0.578495  0  2.038541  0  0  -0.541227  0  2.290319  0  0  -0.562962  0  2.278323  0  0  -0.316727  -0.526336  0  2.298019  0
F  F84  1  0.27092632  0.47406740  0.41493411  1  0  -0.248736  0  1.203642  0  0  -0.214302  0  1.386844  0  0  -0.224474  0  1.371255  0  0  -0.095665  -0.206664  0  1.397066  0
F  F85  1  0.22908239  0.52593454  0.91492989  1  0  -0.248534  0  1.203285  0  0  -0.214213  0  1.386966  0  0  -0.224379  0  1.371381  0  0  -0.095647  -0.206575  0  1.397185  0
F  F86  1  0.72910455  0.97406181  0.08507086  1  0  -0.248499  0  1.203278  0  0  -0.214185  0  1.386967  0  0  -0.224349  0  1.371389  0  0  -0.095672  -0.206546  0  1.397186  0
F  F87  1  0.77090635  0.02593433  0.58506747  1  0  -0.248563  0  1.203175  0  0  -0.214251  0  1.386883  0  0  -0.224419  0  1.371298  0  0  -0.095662  -0.206611  0  1.397103  0
F  F88  1  0.46586866  0.66364674  0.38472098  1  0  -0.252725  0  1.193544  0  0  -0.20255  0  1.357697  0  0  -0.212671  0  1.341763  0  0  -0.097488  -0.195265  0  1.368278  0
F  F89  1  0.03414431  0.33635579  0.88471668  1  0  -0.253513  0  1.193599  0  0  -0.202502  0  1.35777  0  0  -0.212615  0  1.341841  0  0  -0.097518  -0.195215  0  1.368352  0
F  F90  1  0.53415618  0.16364195  0.11528401  1  0  -0.253419  0  1.193601  0  0  -0.202403  0  1.35777  0  0  -0.212514  0  1.341848  0  0  -0.097462  -0.195116  0  1.368351  0
F  F91  1  0.96584198  0.83635563  0.61528202  1  0  -0.253467  0  1.193582  0  0  -0.20244  0  1.35777  0  0  -0.212559  0  1.341838  0  0  -0.097479  -0.195153  0  1.36835  0
F  F92  1  0.06423046  0.66816500  0.43507410  1  0  -0.258988  0  1.143491  0  0  -0.217615  0  1.303946  0  0  -0.228432  0  1.289443  0  0  -0.109599  -0.210219  0  1.314108  0
F  F93  1  0.43576977  0.33183926  0.93507564  1  0  -0.258885  0  1.14294  0  0  -0.217522  0  1.303783  0  0  -0.228332  0  1.28928  0  0  -0.109549  -0.210127  0  1.313945  0
F  F94  1  0.93578590  0.16815940  0.06492684  1  0  -0.258907  0  1.14319  0  0  -0.217533  0  1.304026  0  0  -0.228339  0  1.289527  0  0  -0.109575  -0.210147  0  1.314196  0
F  F95  1  0.56421441  0.83184051  0.56492575  1  0  -0.258931  0  1.143029  0  0  -0.217554  0  1.303862  0  0  -0.228362  0  1.289354  0  0  -0.109573  -0.210171  0  1.314033  0
