# generated using pymatgen
data_ZnH2C3N3O2
_symmetry_space_group_name_H-M   'P 1'
_cell_length_a   8.99556712
_cell_length_b   9.48507264
_cell_length_c   9.86833878
_cell_angle_alpha   89.99999692
_cell_angle_beta   90.00017374
_cell_angle_gamma   117.04389416
_symmetry_Int_Tables_number   1
_chemical_formula_structural   ZnH2C3N3O2
_chemical_formula_sum   'Zn4 H8 C12 N12 O8'
_cell_volume   749.93644172
_cell_formula_units_Z   4
loop_
 _symmetry_equiv_pos_site_id
 _symmetry_equiv_pos_as_xyz
  1  'x, y, z'
loop_
 _atom_site_type_symbol
 _atom_site_label
 _atom_site_symmetry_multiplicity
 _atom_site_fract_x
 _atom_site_fract_y
 _atom_site_fract_z
 _atom_site_occupancy
 _atom_site_hle17_bader_spin_density
 _atom_site_hle17_ddec_charge
 _atom_site_hle17_ddec_spin_density
 _atom_site_hle17_ddec_sum_bond_order
 _atom_site_hle17_magmom
 _atom_site_hse06_10hf_bader_spin_density
 _atom_site_hse06_10hf_ddec_charge
 _atom_site_hse06_10hf_ddec_spin_density
 _atom_site_hse06_10hf_ddec_sum_bond_order
 _atom_site_hse06_10hf_magmom
 _atom_site_hse06_bader_spin_density
 _atom_site_hse06_ddec_charge
 _atom_site_hse06_ddec_spin_density
 _atom_site_hse06_ddec_sum_bond_order
 _atom_site_hse06_magmom
 _atom_site_pbe_bader_spin_density
 _atom_site_pbe_cm5_charge
 _atom_site_pbe_ddec_charge
 _atom_site_pbe_ddec_spin_density
 _atom_site_pbe_ddec_sum_bond_order
 _atom_site_pbe_magmom
Zn  Zn0  1  0.17385104  0.93794753  0.94277997  1  0  0.92067  0  1.973568  0  0  0.723259  0  2.449725  0  0  0.765515  0  2.404071  0  0  0.704621  0.694017  0  2.480955  0
Zn  Zn1  1  0.82614668  0.56205075  0.44277981  1  0  0.920661  0  1.973584  0  0  0.723252  0  2.449724  0  0  0.765508  0  2.404071  0  0  0.704632  0.69401  0  2.48096  0
Zn  Zn2  1  0.82614866  0.06205225  0.05721949  1  0  0.920713  0  1.973574  0  0  0.723282  0  2.449728  0  0  0.765544  0  2.404071  0  0  0.704633  0.694041  0  2.480949  0
Zn  Zn3  1  0.17385246  0.43794784  0.55722066  1  0  0.920671  0  1.973625  0  0  0.723228  0  2.449793  0  0  0.765487  0  2.404139  0  0  0.704626  0.693986  0  2.48103  0
H  H4  1  0.89740832  0.80033997  0.69086522  1  0  0.110276  0  0.928656  0  0  0.119234  0  0.988495  0  0  0.122025  0  0.984955  0  0  0.141457  0.117095  0  0.991129  0
H  H5  1  0.10259059  0.69965789  0.19086508  1  0  0.110295  0  0.928645  0  0  0.119231  0  0.988508  0  0  0.122022  0  0.984969  0  0  0.141447  0.117088  0  0.991137  0
H  H6  1  0.10259026  0.19965509  0.30913626  1  0  0.110309  0  0.928608  0  0  0.119206  0  0.988515  0  0  0.121996  0  0.984976  0  0  0.141439  0.117067  0  0.991143  0
H  H7  1  0.89741246  0.30034663  0.80913641  1  0  0.110297  0  0.928606  0  0  0.119196  0  0.988511  0  0  0.121986  0  0.984972  0  0  0.14144  0.117063  0  0.991144  0
H  H8  1  0.26750670  0.67120923  0.81086429  1  0  0.106977  0  0.917336  0  0  0.118184  0  0.973289  0  0  0.120312  0  0.970617  0  0  0.143712  0.116524  0  0.975343  0
H  H9  1  0.73249438  0.82879239  0.31086689  1  0  0.106993  0  0.917257  0  0  0.118196  0  0.973228  0  0  0.120324  0  0.970555  0  0  0.143726  0.116533  0  0.97528  0
H  H10  1  0.73249579  0.32879411  0.18913720  1  0  0.10699  0  0.917314  0  0  0.118203  0  0.973263  0  0  0.12033  0  0.970591  0  0  0.143732  0.116541  0  0.975314  0
H  H11  1  0.26750476  0.17120620  0.68913662  1  0  0.106981  0  0.917321  0  0  0.118193  0  0.973272  0  0  0.12032  0  0.9706  0  0  0.14372  0.116533  0  0.975326  0
C  C12  1  0.47317971  0.91591877  0.03024483  1  0  0.525291  0  3.938045  0  0  0.486546  0  4.221057  0  0  0.515435  0  4.21585  0  0  0.197086  0.466912  0  4.223914  0
C  C13  1  0.52682133  0.58408238  0.53024498  1  0  0.525183  0  3.938077  0  0  0.486432  0  4.22111  0  0  0.51532  0  4.215906  0  0  0.197034  0.466811  0  4.223954  0
C  C14  1  0.52682334  0.08408340  0.96974855  1  0  0.525145  0  3.938051  0  0  0.486397  0  4.221075  0  0  0.515283  0  4.215871  0  0  0.197046  0.46677  0  4.223928  0
C  C15  1  0.47317837  0.41591504  0.46975246  1  0  0.525175  0  3.938016  0  0  0.486404  0  4.221066  0  0  0.515292  0  4.215861  0  0  0.196993  0.466764  0  4.223933  0
C  C16  1  0.97899803  0.74452252  0.69692310  1  0  0.217137  0  3.694322  0  0  0.158623  0  3.958652  0  0  0.172102  0  3.973118  0  0  0.148766  0.149916  0  3.948598  0
C  C17  1  0.02099756  0.75547532  0.19692373  1  0  0.217079  0  3.694439  0  0  0.158583  0  3.958763  0  0  0.172061  0  3.973232  0  0  0.148737  0.149882  0  3.948706  0
C  C18  1  0.02100000  0.25547606  0.30307738  1  0  0.217113  0  3.694412  0  0  0.158633  0  3.95873  0  0  0.172112  0  3.973197  0  0  0.148779  0.149925  0  3.948676  0
C  C19  1  0.97900102  0.24452681  0.80307775  1  0  0.217104  0  3.694414  0  0  0.158622  0  3.958736  0  0  0.172103  0  3.973202  0  0  0.148748  0.149906  0  3.948689  0
C  C20  1  0.16618190  0.67789038  0.75653079  1  0  0.229849  0  3.676502  0  0  0.172375  0  3.941949  0  0  0.185998  0  3.955476  0  0  0.152826  0.163467  0  3.932644  0
C  C21  1  0.83382063  0.82210998  0.25653266  1  0  0.229863  0  3.676481  0  0  0.172387  0  3.941943  0  0  0.186008  0  3.95547  0  0  0.15284  0.163491  0  3.932628  0
C  C22  1  0.83382226  0.32211180  0.24346867  1  0  0.229895  0  3.676497  0  0  0.172406  0  3.941948  0  0  0.186026  0  3.955472  0  0  0.152847  0.163499  0  3.932639  0
C  C23  1  0.16618018  0.17788981  0.74346882  1  0  0.229886  0  3.676513  0  0  0.172403  0  3.941961  0  0  0.186021  0  3.955486  0  0  0.152849  0.163498  0  3.932654  0
N  N24  1  0.09965229  0.77563618  0.79056682  1  0  -0.41816  0  3.27086  0  0  -0.334034  0  3.568463  0  0  -0.357042  0  3.58004  0  0  -0.355941  -0.318576  0  3.560194  0
N  N25  1  0.90034592  0.72436185  0.29056685  1  0  -0.418093  0  3.270993  0  0  -0.333964  0  3.568585  0  0  -0.356973  0  3.580165  0  0  -0.355938  -0.318513  0  3.56032  0
N  N26  1  0.90034797  0.22436243  0.20943365  1  0  -0.418209  0  3.270986  0  0  -0.334038  0  3.568541  0  0  -0.357048  0  3.580118  0  0  -0.355952  -0.318582  0  3.560271  0
N  N27  1  0.09965489  0.27564030  0.70943565  1  0  -0.418206  0  3.271002  0  0  -0.334028  0  3.568549  0  0  -0.357038  0  3.580126  0  0  -0.355953  -0.318572  0  3.560287  0
N  N28  1  0.97091661  0.63357474  0.61001079  1  0  -0.274137  0  3.240566  0  0  -0.202448  0  3.537665  0  0  -0.219314  0  3.551622  0  0  -0.254433  -0.191205  0  3.528191  0
N  N29  1  0.02908029  0.86642179  0.11001144  1  0  -0.27409  0  3.240549  0  0  -0.202389  0  3.537624  0  0  -0.219255  0  3.551579  0  0  -0.254386  -0.191148  0  3.528151  0
N  N30  1  0.02908477  0.36642388  0.38998867  1  0  -0.274109  0  3.240515  0  0  -0.2024  0  3.53759  0  0  -0.219271  0  3.551544  0  0  -0.254438  -0.191157  0  3.528114  0
N  N31  1  0.97091829  0.13357798  0.88999004  1  0  -0.274081  0  3.240531  0  0  -0.20237  0  3.537612  0  0  -0.219242  0  3.551565  0  0  -0.254387  -0.191123  0  3.528132  0
N  N32  1  0.09183659  0.59117806  0.64805144  1  0  -0.266794  0  3.180668  0  0  -0.202347  0  3.471022  0  0  -0.217741  0  3.485295  0  0  -0.245932  -0.192068  0  3.461354  0
N  N33  1  0.90816437  0.90882211  0.14805351  1  0  -0.266907  0  3.180752  0  0  -0.202473  0  3.471116  0  0  -0.217863  0  3.485385  0  0  -0.245981  -0.192198  0  3.461443  0
N  N34  1  0.90816701  0.40882293  0.35194701  1  0  -0.266857  0  3.180661  0  0  -0.202436  0  3.471038  0  0  -0.217817  0  3.485301  0  0  -0.24596  -0.192158  0  3.461368  0
N  N35  1  0.09183421  0.09117766  0.85194696  1  0  -0.266825  0  3.180723  0  0  -0.202422  0  3.471124  0  0  -0.217801  0  3.485387  0  0  -0.245946  -0.192145  0  3.461454  0
O  O36  1  0.31947528  0.82154951  0.03116778  1  0  -0.574638  0  2.038987  0  0  -0.522807  0  2.279035  0  0  -0.545981  0  2.267845  0  0  -0.309731  -0.506677  0  2.286262  0
O  O37  1  0.68052186  0.67845279  0.53116226  1  0  -0.574561  0  2.039076  0  0  -0.522724  0  2.279121  0  0  -0.545894  0  2.267931  0  0  -0.309659  -0.506593  0  2.286341  0
O  O38  1  0.68052442  0.17845499  0.96883270  1  0  -0.574611  0  2.039001  0  0  -0.522765  0  2.279045  0  0  -0.545937  0  2.267854  0  0  -0.309713  -0.506634  0  2.286269  0
O  O39  1  0.31947393  0.32153635  0.46884024  1  0  -0.57462  0  2.038899  0  0  -0.522752  0  2.278935  0  0  -0.545926  0  2.267746  0  0  -0.309653  -0.506613  0  2.286159  0
O  O40  1  0.58889444  0.88580361  0.07392813  1  0  -0.576451  0  2.070953  0  0  -0.516558  0  2.32176  0  0  -0.541287  0  2.308491  0  0  -0.322431  -0.499382  0  2.330365  0
O  O41  1  0.41110232  0.61419521  0.57392795  1  0  -0.576431  0  2.070884  0  0  -0.516535  0  2.32169  0  0  -0.541263  0  2.308424  0  0  -0.322452  -0.499361  0  2.330295  0
O  O42  1  0.41110638  0.11419853  0.92606626  1  0  -0.576399  0  2.070908  0  0  -0.516506  0  2.32171  0  0  -0.541234  0  2.308445  0  0  -0.322433  -0.499332  0  2.33032  0
O  O43  1  0.58889124  0.38580334  0.42606644  1  0  -0.576375  0  2.071009  0  0  -0.516478  0  2.321823  0  0  -0.541205  0  2.308556  0  0  -0.322416  -0.499301  0  2.330438  0
