# generated using pymatgen
data_CdH22C34N4O5
_symmetry_space_group_name_H-M   'P 1'
_cell_length_a   10.32560241
_cell_length_b   12.54816098
_cell_length_c   13.88279786
_cell_angle_alpha   101.36476187
_cell_angle_beta   104.51772930
_cell_angle_gamma   103.40478623
_symmetry_Int_Tables_number   1
_chemical_formula_structural   CdH22C34N4O5
_chemical_formula_sum   'Cd2 H44 C68 N8 O10'
_cell_volume   1630.51236742
_cell_formula_units_Z   2
loop_
 _symmetry_equiv_pos_site_id
 _symmetry_equiv_pos_as_xyz
  1  'x, y, z'
loop_
 _atom_site_type_symbol
 _atom_site_label
 _atom_site_symmetry_multiplicity
 _atom_site_fract_x
 _atom_site_fract_y
 _atom_site_fract_z
 _atom_site_occupancy
 _atom_site_hle17_bader_spin_density
 _atom_site_hle17_ddec_charge
 _atom_site_hle17_ddec_spin_density
 _atom_site_hle17_ddec_sum_bond_order
 _atom_site_hle17_magmom
 _atom_site_hse06_10hf_bader_spin_density
 _atom_site_hse06_10hf_ddec_charge
 _atom_site_hse06_10hf_ddec_spin_density
 _atom_site_hse06_10hf_ddec_sum_bond_order
 _atom_site_hse06_10hf_magmom
 _atom_site_hse06_bader_spin_density
 _atom_site_hse06_ddec_charge
 _atom_site_hse06_ddec_spin_density
 _atom_site_hse06_ddec_sum_bond_order
 _atom_site_hse06_magmom
 _atom_site_pbe_bader_spin_density
 _atom_site_pbe_cm5_charge
 _atom_site_pbe_ddec_charge
 _atom_site_pbe_ddec_spin_density
 _atom_site_pbe_ddec_sum_bond_order
 _atom_site_pbe_magmom
Cd  Cd0  1  0.24072399  0.05665607  0.49474248  1  0  1.104519  0  1.666682  0  0  0.913907  0  2.112712  0  0  0.972352  0  2.061623  0  0  0.77564  0.872774  0  2.147322  0
Cd  Cd1  1  0.75927278  0.94334498  0.50525793  1  0  1.104484  0  1.666738  0  0  0.913857  0  2.112759  0  0  0.972303  0  2.061671  0  0  0.775609  0.872725  0  2.147368  0
H  H2  1  0.98918414  0.18781150  0.49185405  1  0  0.120858  0  0.934678  0  0  0.128208  0  1.000192  0  0  0.131738  0  0.994905  0  0  0.144013  0.125556  0  1.003981  0
H  H3  1  0.01081594  0.81219040  0.50814717  1  0  0.120826  0  0.934687  0  0  0.128176  0  1.000206  0  0  0.131706  0  0.994919  0  0  0.143988  0.125526  0  1.003993  0
H  H4  1  0.64520177  0.02567188  0.77333502  1  0  0.110541  0  0.931635  0  0  0.121121  0  0.989022  0  0  0.124997  0  0.985628  0  0  0.108269  0.11827  0  0.991543  0
H  H5  1  0.35479910  0.97432660  0.22666361  1  0  0.110475  0  0.93157  0  0  0.121044  0  0.988978  0  0  0.124922  0  0.985582  0  0  0.10823  0.118192  0  0.991499  0
H  H6  1  0.58403490  0.19871077  0.56950375  1  0  0.121333  0  0.916751  0  0  0.134522  0  0.970804  0  0  0.137248  0  0.966894  0  0  0.150105  0.132455  0  0.973559  0
H  H7  1  0.41596424  0.80128857  0.43049685  1  0  0.121302  0  0.916766  0  0  0.134509  0  0.970818  0  0  0.137236  0  0.96691  0  0  0.150085  0.132505  0  0.97349  0
H  H8  1  0.45325602  0.22943011  0.73889162  1  0  0.124244  0  0.960231  0  0  0.133476  0  1.019496  0  0  0.136881  0  1.017484  0  0  0.107563  0.130964  0  1.021022  0
H  H9  1  0.54674375  0.77057093  0.26110939  1  0  0.124257  0  0.960218  0  0  0.133477  0  1.019494  0  0  0.136891  0  1.017471  0  0  0.107551  0.130957  0  1.021028  0
H  H10  1  0.23260493  0.79402175  0.69080819  1  0  0.095202  0  0.94749  0  0  0.107334  0  1.006806  0  0  0.110503  0  1.00417  0  0  0.101947  0.105016  0  1.008765  0
H  H11  1  0.76739527  0.20597758  0.30918974  1  0  0.095168  0  0.94748  0  0  0.107295  0  1.00681  0  0  0.110462  0  1.004176  0  0  0.101942  0.10498  0  1.008771  0
H  H12  1  0.80492094  0.23838122  0.53607135  1  0  0.14274  0  0.975015  0  0  0.147689  0  1.043739  0  0  0.151639  0  1.041166  0  0  0.115855  0.144641  0  1.045893  0
H  H13  1  0.19508222  0.76161811  0.46392860  1  0  0.14271  0  0.975098  0  0  0.147675  0  1.043811  0  0  0.151626  0  1.041235  0  0  0.115856  0.144626  0  1.045969  0
H  H14  1  0.15116899  0.17134551  0.29604268  1  0  0.118605  0  0.963732  0  0  0.128912  0  1.021022  0  0  0.132153  0  1.019395  0  0  0.106874  0.126574  0  1.022208  0
H  H15  1  0.84883115  0.82865383  0.70395811  1  0  0.118616  0  0.963729  0  0  0.128915  0  1.02103  0  0  0.132156  0  1.019402  0  0  0.10688  0.126577  0  1.022215  0
H  H16  1  0.20460540  0.52309811  0.81404033  1  0  0.097445  0  0.964213  0  0  0.109307  0  1.021873  0  0  0.112352  0  1.020241  0  0  0.102036  0.107065  0  1.023214  0
H  H17  1  0.79539595  0.47690208  0.18596517  1  0  0.097462  0  0.96418  0  0  0.10929  0  1.02188  0  0  0.112334  0  1.02025  0  0  0.102049  0.10706  0  1.023206  0
H  H18  1  0.98742833  0.76069321  0.16020539  1  0  0.101161  0  0.935747  0  0  0.111092  0  0.993088  0  0  0.115052  0  0.989994  0  0  0.103357  0.108269  0  0.995263  0
H  H19  1  0.01257114  0.23930953  0.83979225  1  0  0.101178  0  0.935768  0  0  0.111084  0  0.993145  0  0  0.115044  0  0.990052  0  0  0.103346  0.108259  0  0.995323  0
H  H20  1  0.81851484  0.03297321  0.24589218  1  0  0.098906  0  0.977391  0  0  0.104999  0  1.046019  0  0  0.108061  0  1.043787  0  0  0.09992  0.102773  0  1.047667  0
H  H21  1  0.18148140  0.96702613  0.75410352  1  0  0.098956  0  0.977343  0  0  0.105053  0  1.045956  0  0  0.108114  0  1.043728  0  0  0.099955  0.102829  0  1.047602  0
H  H22  1  0.31820763  0.70182454  0.82969399  1  0  0.101703  0  0.964577  0  0  0.113243  0  1.023943  0  0  0.116786  0  1.022024  0  0  0.099616  0.110766  0  1.025343  0
H  H23  1  0.68179014  0.29817651  0.17030663  1  0  0.101735  0  0.964536  0  0  0.113275  0  1.023901  0  0  0.116819  0  1.021979  0  0  0.099626  0.110798  0  1.025302  0
H  H24  1  0.73207983  0.93269223  0.91001172  1  0  0.112423  0  0.94481  0  0  0.125341  0  0.996639  0  0  0.128427  0  0.996358  0  0  0.106361  0.123135  0  0.997017  0
H  H25  1  0.26792165  0.06730795  0.08998805  1  0  0.112399  0  0.944815  0  0  0.125312  0  0.996647  0  0  0.128396  0  0.996365  0  0  0.106352  0.123106  0  0.997024  0
H  H26  1  0.77933754  0.67350825  0.99787892  1  0  0.107268  0  0.94006  0  0  0.120259  0  0.994843  0  0  0.123539  0  0.993752  0  0  0.104546  0.117944  0  0.995701  0
H  H27  1  0.22065970  0.32648854  0.00211870  1  0  0.107268  0  0.940168  0  0  0.120265  0  0.994927  0  0  0.123543  0  0.993839  0  0  0.104553  0.11795  0  0.995785  0
H  H28  1  0.15569254  0.30990062  0.18777561  1  0  0.084312  0  0.941342  0  0  0.099413  0  0.99261  0  0  0.101977  0  0.992133  0  0  0.099857  0.097551  0  0.993069  0
H  H29  1  0.84430900  0.69009701  0.81222372  1  0  0.084345  0  0.94133  0  0  0.099455  0  0.992583  0  0  0.102019  0  0.992105  0  0  0.09986  0.097592  0  0.99304  0
H  H30  1  0.43905945  0.54121072  0.93119016  1  0  0.090825  0  0.971196  0  0  0.097906  0  1.039181  0  0  0.100872  0  1.037628  0  0  0.098618  0.095737  0  1.040407  0
H  H31  1  0.56094200  0.45878947  0.06881104  1  0  0.090791  0  0.971243  0  0  0.097914  0  1.039176  0  0  0.10088  0  1.037622  0  0  0.098649  0.095748  0  1.040396  0
H  H32  1  0.59235577  0.48408723  0.35231892  1  0  0.101098  0  0.976829  0  0  0.10804  0  1.044969  0  0  0.110321  0  1.045356  0  0  0.099304  0.106366  0  1.044824  0
H  H33  1  0.40764529  0.51591466  0.64768321  1  0  0.101101  0  0.976849  0  0  0.108047  0  1.044973  0  0  0.110328  0  1.045361  0  0  0.099314  0.106381  0  1.04482  0
H  H34  1  0.56082142  0.39679016  0.89621835  1  0  0.084236  0  0.943397  0  0  0.098636  0  0.995974  0  0  0.101467  0  0.994769  0  0  0.099855  0.096637  0  0.996822  0
H  H35  1  0.43917808  0.60321003  0.10378030  1  0  0.084292  0  0.943339  0  0  0.098665  0  0.995938  0  0  0.101498  0  0.994733  0  0  0.099866  0.096665  0  0.996788  0
H  H36  1  0.61216452  0.94859372  0.08474998  1  0  0.111163  0  0.949892  0  0  0.121261  0  1.008869  0  0  0.123938  0  1.009211  0  0  0.104131  0.119372  0  1.008739  0
H  H37  1  0.38783104  0.05140393  0.91524745  1  0  0.111191  0  0.949865  0  0  0.121291  0  1.008831  0  0  0.123969  0  1.009172  0  0  0.104142  0.119402  0  1.008703  0
H  H38  1  0.37378077  0.46250044  0.21710136  1  0  0.083213  0  0.971755  0  0  0.094358  0  1.03293  0  0  0.096576  0  1.032553  0  0  0.095593  0.092811  0  1.03312  0
H  H39  1  0.62622064  0.53749975  0.78290127  1  0  0.083229  0  0.971648  0  0  0.094353  0  1.032856  0  0  0.096569  0  1.032479  0  0  0.09559  0.092806  0  1.033047  0
H  H40  1  0.94990462  0.66077877  0.61706625  1  0  0.092051  0  0.945835  0  0  0.105993  0  1.000785  0  0  0.108013  0  1.00016  0  0  0.105296  0.104344  0  1.001431  0
H  H41  1  0.05009276  0.33922143  0.38293703  1  0  0.092052  0  0.945842  0  0  0.105997  0  1.000787  0  0  0.108015  0  1.000163  0  0  0.105304  0.104347  0  1.001436  0
H  H42  1  0.12900584  0.56124194  0.66105382  1  0  0.104703  0  0.959389  0  0  0.114872  0  1.022801  0  0  0.117296  0  1.022527  0  0  0.105993  0.113167  0  1.023037  0
H  H43  1  0.87099714  0.43875995  0.33895230  1  0  0.104649  0  0.959563  0  0  0.114863  0  1.022921  0  0  0.117287  0  1.022647  0  0  0.10597  0.113157  0  1.023159  0
H  H44  1  0.69989727  0.55177555  0.53200910  1  0  0.10639  0  0.969263  0  0  0.114593  0  1.034925  0  0  0.117193  0  1.034918  0  0  0.105455  0.112704  0  1.035113  0
H  H45  1  0.30010156  0.44822294  0.46799128  1  0  0.106382  0  0.96927  0  0  0.114581  0  1.034944  0  0  0.11718  0  1.034939  0  0  0.105443  0.112691  0  1.035133  0
C  C46  1  0.73805981  0.38865935  0.52835460  1  0  0.206443  0  3.777896  0  0  0.201181  0  4.024343  0  0  0.207564  0  4.046224  0  0  0.098706  0.19696  0  4.009211  0
C  C47  1  0.26194172  0.61133828  0.47164545  1  0  0.206494  0  3.777845  0  0  0.201226  0  4.024296  0  0  0.207611  0  4.046177  0  0  0.098744  0.197004  0  4.009163  0
C  C48  1  0.38236160  0.97189669  0.64367476  1  0  0.623854  0  3.955502  0  0  0.574556  0  4.248924  0  0  0.609117  0  4.243987  0  0  0.187561  0.551159  0  4.251358  0
C  C49  1  0.61763987  0.02810604  0.35632328  1  0  0.623836  0  3.95503  0  0  0.574536  0  4.248462  0  0  0.609098  0  4.243525  0  0  0.18764  0.551138  0  4.250898  0
C  C50  1  0.91528860  0.90256858  0.21125216  1  0  -0.07772  0  3.773435  0  0  -0.056588  0  4.007917  0  0  -0.066717  0  4.032634  0  0  -0.028316  -0.050135  0  3.991315  0
C  C51  1  0.08470960  0.09743331  0.78874365  1  0  -0.077777  0  3.773464  0  0  -0.056565  0  4.007853  0  0  -0.066695  0  4.032571  0  0  -0.028354  -0.050109  0  3.991248  0
C  C52  1  0.27219750  0.28691342  0.68683306  1  0  0.146345  0  3.820906  0  0  0.145167  0  4.066067  0  0  0.148121  0  4.090687  0  0  0.087642  0.143157  0  4.049411  0
C  C53  1  0.72780363  0.71308592  0.31316793  1  0  0.146392  0  3.820741  0  0  0.145201  0  4.065931  0  0  0.148141  0  4.090543  0  0  0.087618  0.143198  0  4.049279  0
C  C54  1  0.07533723  0.23481641  0.56201718  1  0  0.225945  0  3.60509  0  0  0.162322  0  3.878973  0  0  0.180507  0  3.887752  0  0  0.16814  0.150674  0  3.872446  0
C  C55  1  0.92466250  0.76518464  0.43798527  1  0  0.225902  0  3.605161  0  0  0.162261  0  3.879054  0  0  0.180444  0  3.887835  0  0  0.168106  0.150614  0  3.872521  0
C  C56  1  0.03400903  0.95238277  0.30957516  1  0  0.620296  0  3.958295  0  0  0.573018  0  4.248463  0  0  0.607411  0  4.243695  0  0  0.183238  0.549731  0  4.250814  0
C  C57  1  0.96598849  0.04761743  0.69042238  1  0  0.620479  0  3.958225  0  0  0.573185  0  4.248375  0  0  0.60758  0  4.243603  0  0  0.183282  0.549896  0  4.250729  0
C  C58  1  0.20343639  0.37035474  0.70713592  1  0  0.102193  0  3.766388  0  0  0.092438  0  4.010779  0  0  0.096751  0  4.032318  0  0  0.092119  0.089537  0  3.99625  0
C  C59  1  0.79656530  0.62964630  0.29286836  1  0  0.102303  0  3.766358  0  0  0.09254  0  4.01073  0  0  0.096894  0  4.032215  0  0  0.09221  0.089611  0  3.996242  0
C  C60  1  0.97693906  0.39401127  0.60456969  1  0  0.20851  0  3.79238  0  0  0.203401  0  4.037873  0  0  0.209848  0  4.0603  0  0  0.100314  0.199002  0  4.022658  0
C  C61  1  0.02306136  0.60598892  0.39543274  1  0  0.208514  0  3.792198  0  0  0.203353  0  4.037761  0  0  0.209799  0  4.06019  0  0  0.100297  0.198955  0  4.022542  0
C  C62  1  0.43362597  0.91595631  0.72445010  1  0  -0.088591  0  3.779186  0  0  -0.069167  0  4.02127  0  0  -0.079764  0  4.045643  0  0  -0.03129  -0.06239  0  4.004897  0
C  C63  1  0.56637590  0.08404216  0.27554873  1  0  -0.088764  0  3.779234  0  0  -0.069339  0  4.021338  0  0  -0.079935  0  4.045706  0  0  -0.031286  -0.06256  0  4.004967  0
C  C64  1  0.57396416  0.95540894  0.78699406  1  0  -0.036302  0  3.730187  0  0  -0.061032  0  3.979199  0  0  -0.057511  0  3.997206  0  0  -0.080158  -0.063087  0  3.966907  0
C  C65  1  0.42603796  0.04459295  0.21300541  1  0  -0.036149  0  3.730005  0  0  -0.060874  0  3.979005  0  0  -0.057352  0  3.997008  0  0  -0.080123  -0.06293  0  3.966711  0
C  C66  1  0.53092398  0.23031912  0.50826066  1  0  0.224065  0  3.616831  0  0  0.158262  0  3.887542  0  0  0.176436  0  3.897034  0  0  0.169655  0.14674  0  3.880363  0
C  C67  1  0.46907649  0.76968107  0.49173962  1  0  0.224054  0  3.616931  0  0  0.158223  0  3.887665  0  0  0.176393  0  3.897161  0  0  0.169673  0.146656  0  3.880467  0
C  C68  1  0.40203598  0.29493476  0.75446152  1  0  -0.128853  0  3.712973  0  0  -0.146239  0  3.957836  0  0  -0.148662  0  3.978523  0  0  -0.086553  -0.144471  0  3.94373  0
C  C69  1  0.59796581  0.70506627  0.24553845  1  0  -0.128945  0  3.712995  0  0  -0.146318  0  3.957864  0  0  -0.148749  0  3.978546  0  0  -0.086543  -0.144542  0  3.943761  0
C  C70  1  0.34156549  0.82393447  0.73969198  1  0  -0.054054  0  3.765505  0  0  -0.080579  0  4.021479  0  0  -0.077291  0  4.040189  0  0  -0.090887  -0.082432  0  4.008586  0
C  C71  1  0.65843505  0.17606571  0.26030543  1  0  -0.053932  0  3.765437  0  0  -0.080468  0  4.021441  0  0  -0.077177  0  4.040149  0  0  -0.090887  -0.082331  0  4.008558  0
C  C72  1  0.49342508  0.34017216  0.40216173  1  0  0.10144  0  3.756617  0  0  0.091118  0  4.001699  0  0  0.095177  0  4.023231  0  0  0.091068  0.08819  0  3.987393  0
C  C73  1  0.50657646  0.65982547  0.59783760  1  0  0.101408  0  3.75647  0  0  0.091076  0  4.001577  0  0  0.095136  0  4.023109  0  0  0.091079  0.088149  0  3.98727  0
C  C74  1  0.83664671  0.33113145  0.55549555  1  0  -0.231715  0  3.668129  0  0  -0.260678  0  3.919617  0  0  -0.266811  0  3.938835  0  0  -0.089271  -0.256256  0  3.906462  0
C  C75  1  0.16335704  0.66886958  0.44450697  1  0  -0.231723  0  3.668118  0  0  -0.260681  0  3.919601  0  0  -0.266813  0  3.938818  0  0  -0.08929  -0.25626  0  3.90645  0
C  C76  1  0.36948977  0.25171371  0.38498191  1  0  0.145519  0  3.82204  0  0  0.143296  0  4.067494  0  0  0.146517  0  4.09211  0  0  0.087231  0.1411  0  4.050903  0
C  C77  1  0.63051270  0.74828647  0.61501877  1  0  0.145627  0  3.821798  0  0  0.143389  0  4.06729  0  0  0.14661  0  4.091906  0  0  0.087264  0.141192  0  4.050696  0
C  C78  1  0.24589705  0.23932044  0.30779828  1  0  -0.139246  0  3.731134  0  0  -0.154851  0  3.97693  0  0  -0.157903  0  3.997438  0  0  -0.091589  -0.152707  0  3.962997  0
C  C79  1  0.75410473  0.76068060  0.69220241  1  0  -0.139247  0  3.731044  0  0  -0.154854  0  3.976872  0  0  -0.157906  0  3.997379  0  0  -0.091594  -0.15271  0  3.962937  0
C  C80  1  0.25985264  0.46152670  0.79621618  1  0  -0.158945  0  3.790186  0  0  -0.177643  0  4.045528  0  0  -0.181363  0  4.065827  0  0  -0.100089  -0.175109  0  4.031824  0
C  C81  1  0.74014608  0.53847180  0.20378851  1  0  -0.158992  0  3.790131  0  0  -0.177664  0  4.045501  0  0  -0.181398  0  4.065788  0  0  -0.100089  -0.175131  0  4.031801  0
C  C82  1  0.90502044  0.80109932  0.14197490  1  0  -0.048412  0  3.756623  0  0  -0.071506  0  4.005561  0  0  -0.069612  0  4.025786  0  0  -0.083417  -0.072409  0  3.991684  0
C  C83  1  0.09497916  0.19890086  0.85801945  1  0  -0.048356  0  3.756678  0  0  -0.071458  0  4.005585  0  0  -0.069562  0  4.025809  0  0  -0.083382  -0.072361  0  3.991707  0
C  C84  1  0.52877697  0.81243318  0.87733166  1  0  0.288682  0  3.791971  0  0  0.278514  0  4.052352  0  0  0.291368  0  4.067082  0  0  0.087473  0.269825  0  4.042273  0
C  C85  1  0.47122322  0.18756615  0.12266698  1  0  0.288648  0  3.791784  0  0  0.27846  0  4.052189  0  0  0.291315  0  4.066919  0  0  0.087436  0.269765  0  4.042105  0
C  C86  1  0.81003280  0.95571122  0.18984052  1  0  -0.043717  0  3.739231  0  0  -0.066721  0  3.985625  0  0  -0.06472  0  4.006032  0  0  -0.084673  -0.067831  0  3.971774  0
C  C87  1  0.18996608  0.04428981  0.81015527  1  0  -0.043789  0  3.739078  0  0  -0.066832  0  3.985467  0  0  -0.064831  0  4.005875  0  0  -0.084673  -0.067942  0  3.971616  0
C  C88  1  0.38813236  0.77280996  0.81622393  1  0  -0.19043  0  3.76953  0  0  -0.210777  0  4.024864  0  0  -0.217345  0  4.043914  0  0  -0.106309  -0.206422  0  4.011859  0
C  C89  1  0.61186916  0.22719022  0.18377440  1  0  -0.190458  0  3.769471  0  0  -0.210791  0  4.024814  0  0  -0.21736  0  4.043863  0  0  -0.106305  -0.206438  0  4.011813  0
C  C90  1  0.62236992  0.90386707  0.86302510  1  0  -0.199308  0  3.770241  0  0  -0.217182  0  4.01985  0  0  -0.224493  0  4.040487  0  0  -0.102726  -0.212378  0  4.005968  0
C  C91  1  0.37763030  0.09613226  0.13697210  1  0  -0.199232  0  3.770093  0  0  -0.217083  0  4.01969  0  0  -0.224389  0  4.04032  0  0  -0.102667  -0.212281  0  4.005809  0
C  C92  1  0.68704874  0.80725260  0.03287432  1  0  0.272107  0  3.801872  0  0  0.260564  0  4.068068  0  0  0.271851  0  4.083631  0  0  0.082916  0.253011  0  4.05733  0
C  C93  1  0.31295181  0.19274758  0.96712238  1  0  0.272343  0  3.801703  0  0  0.260715  0  4.06801  0  0  0.272003  0  4.083575  0  0  0.083033  0.253153  0  4.057274  0
C  C94  1  0.79073449  0.75305035  0.05243737  1  0  -0.183808  0  3.771026  0  0  -0.205508  0  4.028668  0  0  -0.21183  0  4.049492  0  0  -0.102334  -0.20135  0  4.01452  0
C  C95  1  0.20926638  0.24695069  0.94755954  1  0  -0.183883  0  3.771065  0  0  -0.205557  0  4.028711  0  0  -0.211878  0  4.049532  0  0  -0.102348  -0.2014  0  4.014565  0
C  C96  1  0.25010769  0.31676148  0.24856820  1  0  -0.074388  0  3.800038  0  0  -0.091783  0  4.056872  0  0  -0.094411  0  4.079523  0  0  -0.096829  -0.089882  0  4.041436  0
C  C97  1  0.74989346  0.68323785  0.75143207  1  0  -0.074493  0  3.800026  0  0  -0.091888  0  4.056855  0  0  -0.094515  0  4.079505  0  0  -0.096854  -0.089986  0  4.041417  0
C  C98  1  0.38976434  0.46931334  0.86258249  1  0  -0.068192  0  3.780485  0  0  -0.086569  0  4.042706  0  0  -0.087821  0  4.064811  0  0  -0.095188  -0.085607  0  4.027634  0
C  C99  1  0.61023712  0.53068429  0.13742043  1  0  -0.06814  0  3.780465  0  0  -0.086544  0  4.042663  0  0  -0.087796  0  4.064767  0  0  -0.095261  -0.085585  0  4.027594  0
C  C100  1  0.49745691  0.41742844  0.34210203  1  0  -0.147795  0  3.761023  0  0  -0.167545  0  4.02003  0  0  -0.170598  0  4.040424  0  0  -0.097776  -0.165423  0  4.006208  0
C  C101  1  0.50254228  0.58257089  0.65789641  1  0  -0.147779  0  3.760912  0  0  -0.167519  0  4.019918  0  0  -0.170572  0  4.040309  0  0  -0.097755  -0.165406  0  4.006092  0
C  C102  1  0.45961185  0.38767455  0.84181947  1  0  -0.078785  0  3.793774  0  0  -0.094413  0  4.049691  0  0  -0.097095  0  4.071841  0  0  -0.097446  -0.092447  0  4.034431  0
C  C103  1  0.54039089  0.61232649  0.15818286  1  0  -0.078862  0  3.793802  0  0  -0.094455  0  4.049699  0  0  -0.097141  0  4.071854  0  0  -0.097463  -0.092487  0  4.034436  0
C  C104  1  0.69542534  0.90862133  0.10088277  1  0  -0.186494  0  3.763538  0  0  -0.20473  0  4.013542  0  0  -0.211513  0  4.034405  0  0  -0.100774  -0.200264  0  3.999451  0
C  C105  1  0.30457686  0.09137800  0.89911555  1  0  -0.186567  0  3.763495  0  0  -0.204774  0  4.013535  0  0  -0.211557  0  4.034399  0  0  -0.100819  -0.20031  0  3.999449  0
C  C106  1  0.37350706  0.40400061  0.26547229  1  0  -0.062708  0  3.78185  0  0  -0.081575  0  4.03995  0  0  -0.082592  0  4.061629  0  0  -0.097326  -0.080876  0  4.025062  0
C  C107  1  0.62649439  0.59599958  0.73452891  1  0  -0.062683  0  3.781625  0  0  -0.08154  0  4.039752  0  0  -0.082554  0  4.06143  0  0  -0.097316  -0.080841  0  4.024866  0
C  C108  1  0.91847197  0.56828719  0.59963244  1  0  -0.039331  0  3.804435  0  0  -0.053021  0  4.056838  0  0  -0.053497  0  4.078881  0  0  -0.088138  -0.052552  0  4.042331  0
C  C109  1  0.08153045  0.43171300  0.40037039  1  0  -0.039364  0  3.804308  0  0  -0.053052  0  4.056727  0  0  -0.053525  0  4.078769  0  0  -0.08815  -0.052582  0  4.04222  0
C  C110  1  0.01874734  0.51294954  0.62688548  1  0  -0.164341  0  3.753219  0  0  -0.187248  0  4.005808  0  0  -0.19175  0  4.027375  0  0  -0.094555  -0.184441  0  3.991493  0
C  C111  1  0.98125075  0.48704980  0.37311706  1  0  -0.164314  0  3.753322  0  0  -0.187254  0  4.005925  0  0  -0.191755  0  4.027489  0  0  -0.094575  -0.184446  0  3.99161  0
C  C112  1  0.77784684  0.50732308  0.55018916  1  0  -0.152931  0  3.731856  0  0  -0.178108  0  3.987779  0  0  -0.181811  0  4.008091  0  0  -0.093423  -0.176002  0  3.974327  0
C  C113  1  0.22215667  0.49267454  0.44981201  1  0  -0.152878  0  3.73175  0  0  -0.178062  0  3.987686  0  0  -0.181768  0  4.007998  0  0  -0.093362  -0.175956  0  3.974235  0
N  N114  1  0.07818654  0.33511628  0.62545779  1  0  -0.149365  0  3.52107  0  0  -0.066936  0  3.73929  0  0  -0.083925  0  3.761829  0  0  -0.221623  -0.055578  0  3.72368  0
N  N115  1  0.92181086  0.66488392  0.37454477  1  0  -0.149349  0  3.52102  0  0  -0.06686  0  3.739195  0  0  -0.083861  0  3.761726  0  0  -0.221586  -0.055495  0  3.72359  0
N  N116  1  0.39754349  0.18586494  0.45292784  1  0  -0.419807  0  3.206967  0  0  -0.350715  0  3.494065  0  0  -0.373939  0  3.509738  0  0  -0.347918  -0.33482  0  3.482737  0
N  N117  1  0.60245566  0.81413440  0.54707204  1  0  -0.41983  0  3.206958  0  0  -0.350726  0  3.494054  0  0  -0.37395  0  3.509729  0  0  -0.347929  -0.334835  0  3.482747  0
N  N118  1  0.18879237  0.20411092  0.59585318  1  0  -0.419161  0  3.169209  0  0  -0.353261  0  3.452058  0  0  -0.37585  0  3.467856  0  0  -0.344184  -0.337959  0  3.440791  0
N  N119  1  0.81120869  0.79589097  0.40414896  1  0  -0.419147  0  3.169123  0  0  -0.35325  0  3.452003  0  0  -0.375837  0  3.467799  0  0  -0.34417  -0.337949  0  3.440734  0
N  N120  1  0.59493989  0.32382889  0.48150706  1  0  -0.149613  0  3.52218  0  0  -0.065493  0  3.739401  0  0  -0.082476  0  3.762259  0  0  -0.218766  -0.054085  0  3.72357  0
N  N121  1  0.40506327  0.67617044  0.51849289  1  0  -0.149611  0  3.522129  0  0  -0.065483  0  3.739357  0  0  -0.082465  0  3.762216  0  0  -0.21882  -0.054078  0  3.72354  0
O  O122  1  0.45959831  0.06355679  0.63839042  1  0  -0.634415  0  1.925772  0  0  -0.581409  0  2.154813  0  0  -0.607336  0  2.144779  0  0  -0.330788  -0.563318  0  2.160974  0
O  O123  1  0.54040267  0.93644511  0.36161531  1  0  -0.634439  0  1.925427  0  0  -0.58143  0  2.154462  0  0  -0.607367  0  2.144445  0  0  -0.33089  -0.563345  0  2.160629  0
O  O124  1  0.25619865  0.92354616  0.58129893  1  0  -0.656512  0  2.014598  0  0  -0.58827  0  2.271715  0  0  -0.618196  0  2.260136  0  0  -0.338206  -0.567263  0  2.278916  0
O  O125  1  0.74380879  0.07645656  0.41870174  1  0  -0.656475  0  2.014358  0  0  -0.588207  0  2.271451  0  0  -0.618136  0  2.259879  0  0  -0.338202  -0.567194  0  2.278632  0
O  O126  1  0.03718842  0.04601738  0.36943611  1  0  -0.655878  0  1.977595  0  0  -0.59241  0  2.225117  0  0  -0.622003  0  2.215381  0  0  -0.340849  -0.571677  0  2.231003  0
O  O127  1  0.96280505  0.95398282  0.63056279  1  0  -0.655993  0  1.977642  0  0  -0.592479  0  2.225102  0  0  -0.622072  0  2.215364  0  0  -0.340863  -0.571747  0  2.230991  0
O  O128  1  0.12684687  0.90223216  0.33199993  1  0  -0.637464  0  1.893975  0  0  -0.583178  0  2.121196  0  0  -0.609529  0  2.11063  0  0  -0.34457  -0.564792  0  2.127878  0
O  O129  1  0.87315096  0.09776888  0.66799782  1  0  -0.63752  0  1.893979  0  0  -0.58325  0  2.12121  0  0  -0.609597  0  2.110632  0  0  -0.344587  -0.564863  0  2.127893  0
O  O130  1  0.56950447  0.75277833  0.94696460  1  0  -0.302038  0  2.356251  0  0  -0.233174  0  2.583315  0  0  -0.251678  0  2.5854  0  0  -0.150297  -0.220005  0  2.581319  0
O  O131  1  0.43049278  0.24722101  0.05303057  1  0  -0.302197  0  2.356037  0  0  -0.233309  0  2.583151  0  0  -0.251818  0  2.58524  0  0  -0.150394  -0.220118  0  2.581143  0
