# generated using pymatgen
data_CoH22C26(NO3)2
_symmetry_space_group_name_H-M   'P 1'
_cell_length_a   10.28131812
_cell_length_b   10.28141502
_cell_length_c   22.48626600
_cell_angle_alpha   89.99600215
_cell_angle_beta   90.00228298
_cell_angle_gamma   119.99765631
_symmetry_Int_Tables_number   1
_chemical_formula_structural   CoH22C26(NO3)2
_chemical_formula_sum   'Co3 H66 C78 N6 O18'
_cell_volume   2058.54288023
_cell_formula_units_Z   3
loop_
 _symmetry_equiv_pos_site_id
 _symmetry_equiv_pos_as_xyz
  1  'x, y, z'
loop_
 _atom_site_type_symbol
 _atom_site_label
 _atom_site_symmetry_multiplicity
 _atom_site_fract_x
 _atom_site_fract_y
 _atom_site_fract_z
 _atom_site_occupancy
 _atom_site_pbe_bader_charge
 _atom_site_pbe_bader_spin_density
 _atom_site_pbe_cm5_charge
 _atom_site_pbe_ddec_charge
 _atom_site_pbe_ddec_spin_density
 _atom_site_pbe_ddec_sum_bond_order
 _atom_site_pbe_magmom
Co  Co0  1  0.35948881  0.63898522  0.32226669  1  1.370355  0.503876  0.817262  0.907208  0.712687  3.242287  0.494
Co  Co1  1  0.36120103  0.72061976  0.98884660  1  1.366344  0.504091  0.817106  0.907384  0.712977  3.24189  0.494
Co  Co2  1  0.27938994  0.64048905  0.65557754  1  1.364643  0.503831  0.817083  0.906994  0.712631  3.2426  0.494
H  H3  1  0.39208329  0.76510461  0.20359711  1  0.119683  3.7e-05  0.12469  0.097067  5.7e-05  1.014962  0.0
H  H4  1  0.23453396  0.80341445  0.12919688  1  0.14412  5.1e-05  0.112571  0.13225  -0.000139  1.037302  0.0
H  H5  1  0.87387301  0.61576484  0.25851532  1  0.080505  -4.9e-05  0.114582  0.127845  -6e-05  0.991751  0.0
H  H6  1  0.04489868  0.57691184  0.32530705  1  0.105113  -8e-06  0.124692  0.100513  -8e-05  1.001182  0.0
H  H7  1  0.12400927  0.94662754  0.11210250  1  0.053939  -3.8e-05  0.106998  0.10953  -4.7e-05  0.990532  0.0
H  H8  1  0.96238154  0.98704631  0.04125895  1  0.110387  0.000145  0.107419  0.10879  0.000135  1.010604  0.0
H  H9  1  0.58308018  0.56548383  0.09277779  1  0.090897  1.7e-05  0.099558  0.097781  -4.2e-05  1.024926  0.0
H  H10  1  0.74206533  0.52499237  0.16501274  1  0.063787  7.2e-05  0.099946  0.096747  2.8e-05  1.013799  0.0
H  H11  1  0.42236838  0.95476397  0.31890417  1  0.117924  -3e-05  0.124428  0.100016  -9.6e-05  1.000975  0.0
H  H12  1  0.38593685  0.12643407  0.38629656  1  0.106407  4e-06  0.113534  0.125648  -3e-06  0.996178  0.0
H  H13  1  0.19845064  0.76505201  0.51535019  1  0.164647  -1.5e-05  0.112553  0.132902  -0.000211  1.03479  0.0
H  H14  1  0.23458781  0.60748499  0.44054064  1  0.121884  -0.000139  0.124718  0.097131  -8.4e-05  1.017002  0.0
H  H15  1  0.47408658  0.25990485  0.47788771  1  0.069708  7.5e-05  0.09934  0.095462  3.5e-05  1.016547  0.0
H  H16  1  0.43314561  0.41908321  0.54982169  1  0.081359  1.5e-05  0.099196  0.09649  -4.8e-05  1.028665  0.0
H  H17  1  0.01779458  0.03652086  0.60496412  1  0.095779  0.000123  0.106965  0.108068  0.00012  1.012813  0.0
H  H18  1  0.05984373  0.87491562  0.53482364  1  0.044423  -3.6e-05  0.106696  0.109254  -4.7e-05  0.994439  0.0
H  H19  1  0.36913424  0.43241350  0.43163628  1  0.04887  0.019244  0.087247  0.082505  0.009629  1.02631  0.014
H  H20  1  0.56971039  0.52633981  0.42605399  1  0.037798  0.004517  0.093077  0.094215  0.002081  0.978208  0.003
H  H21  1  0.45334132  0.41818659  0.36478301  1  0.043206  0.005087  0.096111  0.096756  0.002403  1.031525  0.003
H  H22  1  0.55456618  0.58069853  0.21044215  1  0.038603  0.016373  0.087104  0.086115  0.008112  1.021433  0.012
H  H23  1  0.46251613  0.39533082  0.24208993  1  0.020997  0.014806  0.092858  0.096171  0.007337  0.979538  0.009
H  H24  1  0.58253366  0.55731759  0.28682618  1  0.088512  -0.000248  0.098994  0.104807  -0.000587  1.04383  0.0
H  H25  1  0.23496931  0.62702943  0.87025277  1  0.122525  3.4e-05  0.124674  0.097036  5.7e-05  1.015121  0.0
H  H26  1  0.19655007  0.43105458  0.79586724  1  0.144249  5.3e-05  0.112696  0.132579  -0.000138  1.037512  0.0
H  H27  1  0.38422220  0.25808598  0.92518908  1  0.088613  -4.9e-05  0.114593  0.12791  -6e-05  0.99191  0.0
H  H28  1  0.42318062  0.46804145  0.99193455  1  0.094832  -1e-05  0.124632  0.100445  -8e-05  1.001463  0.0
H  H29  1  0.05337369  0.17737397  0.77880746  1  0.074252  -3.8e-05  0.106988  0.109483  -4.7e-05  0.990538  0.0
H  H30  1  0.01295343  0.97531631  0.70791520  1  0.071366  0.000153  0.107433  0.108757  0.000136  1.010529  0.0
H  H31  1  0.43451518  0.01751496  0.75946306  1  0.077448  1.9e-05  0.099474  0.097681  -4.2e-05  1.024581  0.0
H  H32  1  0.47498537  0.21699374  0.83170232  1  0.062176  7.1e-05  0.099981  0.096708  2.8e-05  1.013798  0.0
H  H33  1  0.04530213  0.46765485  0.98552335  1  0.114816  -3.1e-05  0.124396  0.099966  -9.6e-05  1.001265  0.0
H  H34  1  0.87358456  0.25952812  0.05294189  1  0.083817  3e-06  0.11356  0.125729  -3e-06  0.996074  0.0
H  H35  1  0.23496420  0.43346434  0.18202012  1  0.161229  -1.5e-05  0.112569  0.132871  -0.000211  1.03453  0.0
H  H36  1  0.39253573  0.62708441  0.10716991  1  0.126738  -0.000134  0.12462  0.097108  -8.4e-05  1.017069  0.0
H  H37  1  0.74015911  0.21430568  0.14451980  1  0.050164  7.6e-05  0.099257  0.095225  3.5e-05  1.016643  0.0
H  H38  1  0.58089473  0.01410321  0.21644613  1  0.07488  1.5e-05  0.099094  0.096442  -4.8e-05  1.028711  0.0
H  H39  1  0.96345173  0.98126214  0.27165125  1  0.123475  0.000119  0.107008  0.108114  0.000119  1.012823  0.0
H  H40  1  0.12511920  0.18497862  0.20152217  1  0.086134  -3.6e-05  0.106732  0.10936  -4.7e-05  0.99436  0.0
H  H41  1  0.56757490  0.93672037  0.09829501  1  0.029088  0.019477  0.08722  0.082389  0.009648  1.026204  0.014
H  H42  1  0.47372313  0.04338703  0.09271606  1  0.033981  0.004529  0.093093  0.094187  0.002084  0.978054  0.003
H  H43  1  0.58198357  0.03531044  0.03145813  1  0.059086  0.005063  0.096144  0.096616  0.002406  1.031676  0.003
H  H44  1  0.41932790  0.97393039  0.87705737  1  0.031044  0.01638  0.086928  0.085841  0.008091  1.021687  0.012
H  H45  1  0.60477330  0.06734977  0.90869654  1  0.027569  0.014766  0.092839  0.096159  0.007314  0.978912  0.009
H  H46  1  0.44279440  0.02518762  0.95342798  1  0.101384  -0.000259  0.09909  0.104711  -0.000592  1.04395  0.0
H  H47  1  0.37299244  0.60790462  0.53693659  1  0.134722  4.3e-05  0.124662  0.096973  5.7e-05  1.015174  0.0
H  H48  1  0.56886879  0.76543580  0.46254301  1  0.144826  5.1e-05  0.112567  0.132178  -0.000139  1.03788  0.0
H  H49  1  0.74183022  0.12605652  0.59184040  1  0.124472  -4.8e-05  0.11465  0.128049  -6e-05  0.991697  0.0
H  H50  1  0.53196554  0.95510607  0.65859303  1  0.093877  -1e-05  0.124693  0.100536  -8e-05  1.001209  0.0
H  H51  1  0.82257782  0.87603498  0.44545522  1  0.09041  -3.8e-05  0.10695  0.109317  -4.7e-05  0.990887  0.0
H  H52  1  0.02456905  0.03765092  0.37459327  1  0.082096  0.00015  0.107331  0.108707  0.000136  1.011118  0.0
H  H53  1  0.98243292  0.41696203  0.42613114  1  0.088611  1.9e-05  0.099587  0.098006  -4.2e-05  1.024765  0.0
H  H54  1  0.78295109  0.25799937  0.49838211  1  0.063311  7.1e-05  0.099832  0.09652  2.8e-05  1.013807  0.0
H  H55  1  0.53222633  0.57754255  0.65221139  1  0.112893  -3.2e-05  0.124378  0.100119  -9.6e-05  1.000699  0.0
H  H56  1  0.74045588  0.61402470  0.71959702  1  0.106904  4e-06  0.113627  0.125743  -3e-06  0.996198  0.0
H  H57  1  0.56662720  0.80157682  0.84867353  1  0.164813  -1.3e-05  0.112575  0.132877  -0.00021  1.034868  0.0
H  H58  1  0.37289223  0.76542120  0.77388473  1  0.119742  -0.000138  0.124704  0.09721  -8.5e-05  1.016861  0.0
H  H59  1  0.78571599  0.52583363  0.81118500  1  0.06326  7.5e-05  0.099311  0.095308  3.5e-05  1.016692  0.0
H  H60  1  0.98586762  0.56676764  0.88311419  1  0.070838  1.5e-05  0.099108  0.096371  -4.8e-05  1.028805  0.0
H  H61  1  0.01871091  0.98215048  0.93827391  1  0.141847  0.00012  0.106997  0.108167  0.00012  1.013035  0.0
H  H62  1  0.81502687  0.94010210  0.86815594  1  0.082025  -3.6e-05  0.106569  0.109109  -4.7e-05  0.994364  0.0
H  H63  1  0.06328969  0.63086466  0.76497704  1  0.041254  0.019263  0.087234  0.082543  0.00962  1.026405  0.014
H  H64  1  0.95657047  0.43033213  0.75941738  1  0.03957  0.004513  0.093092  0.094318  0.002066  0.978089  0.003
H  H65  1  0.96472423  0.54665628  0.69814877  1  0.04655  0.005092  0.096086  0.096711  0.002408  1.031819  0.003
H  H66  1  0.02607622  0.44535897  0.54377991  1  0.031485  0.016436  0.087061  0.086018  0.008115  1.021612  0.012
H  H67  1  0.93271019  0.53740314  0.57541621  1  0.017178  0.014823  0.092845  0.096148  0.007344  0.979199  0.009
H  H68  1  0.97476247  0.41743155  0.62015266  1  0.087943  -0.000252  0.098997  0.104917  -0.000588  1.043713  0.0
C  C69  1  0.27674655  0.73476973  0.21349068  1  0.44766  -0.000419  0.049413  0.084717  -0.000522  3.947501  0.0
C  C70  1  0.18863664  0.75822768  0.17309651  1  -0.018607  1.9e-05  -0.083011  -0.181164  -0.000132  3.92527  0.0
C  C71  1  0.03919431  0.71336190  0.18742458  1  -0.047336  -0.000948  0.017292  0.121059  -0.00105  3.983053  -0.001
C  C72  1  0.98690376  0.64792943  0.24357330  1  0.013962  -0.00014  -0.078025  -0.171155  -0.000252  3.92677  0.0
C  C73  1  0.08196652  0.62842524  0.28172169  1  0.490843  -0.001433  0.05141  0.090944  -0.001906  3.927715  -0.001
C  C74  1  0.94344559  0.73458974  0.14456127  1  -0.075243  -0.000272  -0.006164  0.0596  -0.000329  4.001044  0.0
C  C75  1  0.00525902  0.86308437  0.10837949  1  0.026136  0.00012  -0.078332  -0.102538  -1e-06  3.946377  0.0
C  C76  1  0.91576610  0.88618511  0.06852688  1  -0.009461  -6.2e-05  -0.075702  -0.077139  -0.000104  3.970461  0.0
C  C77  1  0.76300960  0.78035393  0.06291955  1  0.003448  0.000812  -0.016116  -0.03021  0.000434  3.956858  0.001
C  C78  1  0.70134282  0.64960961  0.09771042  1  -0.103535  0.000515  -0.091907  -0.10456  0.000341  4.008028  0.0
C  C79  1  0.79041473  0.62746543  0.13841586  1  -0.039121  0.000716  -0.091058  -0.133376  0.000515  4.000307  0.0
C  C80  1  0.67069348  0.81581657  0.02084767  1  1.551935  -0.002256  0.214947  0.557136  -0.00296  4.17539  -0.002
C  C81  1  0.37152336  0.91786802  0.36261195  1  0.470716  -0.001499  0.051491  0.090923  -0.002002  3.926571  -0.001
C  C82  1  0.35330096  0.01320660  0.40107758  1  0.01176  -0.00019  -0.078462  -0.171487  -0.000313  3.928843  0.0
C  C83  1  0.28878391  0.96106728  0.45737057  1  -0.073819  -0.001024  0.017255  0.120606  -0.001128  3.983313  -0.001
C  C84  1  0.24352093  0.81139969  0.47149946  1  -0.01247  -0.000204  -0.08297  -0.179035  -0.000326  3.922081  0.0
C  C85  1  0.26564407  0.72304763  0.43081288  1  0.422616  -0.000493  0.048952  0.083465  -0.00058  3.949824  0.0
C  C86  1  0.26810505  0.05688909  0.50038607  1  -0.016443  -0.000222  -0.00789  0.057908  -0.000273  4.003131  0.0
C  C87  1  0.37317522  0.21079180  0.50545202  1  -0.040606  0.000656  -0.091154  -0.133008  0.000465  3.998087  0.0
C  C88  1  0.35063430  0.30004357  0.54594335  1  -0.077755  0.000686  -0.092503  -0.105362  0.000479  4.008851  0.0
C  C89  1  0.22113003  0.23774148  0.58148297  1  -0.082116  0.000194  -0.015555  -0.0308  -5.7e-05  3.950874  0.0
C  C90  1  0.11751441  0.08404004  0.57701961  1  0.051103  -0.000122  -0.076621  -0.077064  -0.000172  3.971878  0.0
C  C91  1  0.14136051  0.99440846  0.53753058  1  0.002314  0.00017  -0.079084  -0.103901  3.3e-05  3.949189  0.0
C  C92  1  0.18380959  0.32973963  0.62307534  1  1.57603  -0.001926  0.215247  0.563574  -0.002626  4.165663  -0.002
C  C93  1  0.46532793  0.49510787  0.40115480  1  0.43379  0.001711  -0.159905  -0.152254  0.00084  4.039452  -0.003
C  C94  1  0.49899927  0.51462601  0.25081203  1  0.41741  0.002119  -0.161611  -0.160227  0.001266  4.022101  -0.003
C  C95  1  0.26535102  0.54204146  0.88011344  1  0.476224  -0.000406  0.049639  0.085145  -0.00052  3.947634  0.0
C  C96  1  0.24180046  0.43040982  0.83974834  1  -0.05059  1e-05  -0.083166  -0.181774  -0.000133  3.925767  0.0
C  C97  1  0.28666229  0.32583585  0.85408682  1  -0.057251  -0.000946  0.01752  0.121446  -0.001048  3.982665  -0.001
C  C98  1  0.35209987  0.33896787  0.91023382  1  0.017905  -0.00014  -0.078241  -0.171406  -0.000253  3.927362  0.0
C  C99  1  0.37171523  0.45359853  0.94834815  1  0.498934  -0.001432  0.051737  0.091146  -0.001906  3.928287  -0.001
C  C100  1  0.26541070  0.20882658  0.81123009  1  -0.01655  -0.000273  -0.006318  0.059301  -0.000331  4.000627  0.0
C  C101  1  0.13689927  0.14213587  0.77505402  1  -0.034866  0.000121  -0.078285  -0.102239  0.0  3.945641  0.0
C  C102  1  0.11376900  0.02950478  0.73520970  1  0.021233  -6.9e-05  -0.075777  -0.077239  -0.000104  3.969908  0.0
C  C103  1  0.21959335  0.98253497  0.72962421  1  -0.023821  0.00084  -0.016073  -0.030713  0.000449  3.956864  0.001
C  C104  1  0.35036018  0.05163591  0.76440881  1  -0.050046  0.000509  -0.091823  -0.104189  0.000341  4.007095  0.0
C  C105  1  0.37253577  0.16290318  0.80509322  1  -0.064053  0.000723  -0.09107  -0.13328  0.000517  3.999899  0.0
C  C106  1  0.18418354  0.85475313  0.68756593  1  1.553086  -0.002258  0.215129  0.557842  -0.002965  4.174876  -0.002
C  C107  1  0.08219802  0.45363573  0.02922797  1  0.493532  -0.001487  0.051563  0.091309  -0.001997  3.927425  -0.001
C  C108  1  0.98684348  0.34010842  0.06771169  1  0.006421  -0.000195  -0.078378  -0.171592  -0.000313  3.928729  0.0
C  C109  1  0.03897531  0.32771933  0.12401273  1  -0.022434  -0.00102  0.017083  0.120461  -0.001123  3.982439  -0.001
C  C110  1  0.18865510  0.43213362  0.13814306  1  -0.07109  -0.000208  -0.08305  -0.179074  -0.000327  3.921747  0.0
C  C111  1  0.27700222  0.54254709  0.09743303  1  0.428396  -0.000487  0.049182  0.08381  -0.000576  3.950731  0.0
C  C112  1  0.94312117  0.21124772  0.16704907  1  0.015811  -0.000221  -0.007729  0.057935  -0.000273  4.002964  0.0
C  C113  1  0.78920949  0.16244937  0.17210932  1  -0.009919  0.000654  -0.091014  -0.13261  0.000465  3.99822  0.0
C  C114  1  0.69993885  0.05060785  0.21258947  1  -0.103187  0.000693  -0.092425  -0.105417  0.00048  4.008775  0.0
C  C115  1  0.76222516  0.98335579  0.24812985  1  -0.026224  0.000186  -0.015701  -0.031014  -6.5e-05  3.950463  0.0
C  C116  1  0.91594310  0.03345342  0.24368382  1  -0.02119  -0.000124  -0.076659  -0.077104  -0.000172  3.971599  0.0
C  C117  1  0.00560219  0.14697669  0.20420526  1  -0.053812  0.00017  -0.079156  -0.104047  3.4e-05  3.949002  0.0
C  C118  1  0.67022956  0.85410569  0.28976571  1  1.571206  -0.001924  0.215049  0.563632  -0.002622  4.165267  -0.002
C  C119  1  0.50497739  0.97029020  0.06779383  1  0.447642  0.001563  -0.16012  -0.152092  0.000846  4.039648  -0.003
C  C120  1  0.48549534  0.98442864  0.91739789  1  0.402638  0.002062  -0.161573  -0.160225  0.001259  4.022408  -0.003
C  C121  1  0.45794588  0.72324791  0.54680311  1  0.419057  -0.000423  0.049762  0.085109  -0.000521  3.947949  0.0
C  C122  1  0.56955086  0.81132764  0.50642977  1  0.006211  2e-05  -0.083175  -0.181454  -0.000134  3.926096  0.0
C  C123  1  0.67411194  0.96076541  0.52075435  1  -0.079195  -0.000947  0.01749  0.121755  -0.001047  3.98269  -0.001
C  C124  1  0.66098478  0.01304227  0.57690098  1  -0.027879  -0.00014  -0.078356  -0.172024  -0.000252  3.927577  0.0
C  C125  1  0.54638378  0.91801869  0.61502365  1  0.516089  -0.001426  0.051625  0.091126  -0.001903  3.928154  -0.001
C  C126  1  0.79110072  0.05656250  0.47790478  1  -0.068911  -0.000267  -0.006184  0.059382  -0.000328  4.000753  0.0
C  C127  1  0.85780434  0.99477305  0.44173018  1  -0.071897  0.000119  -0.078262  -0.101985  -1e-06  3.94646  0.0
C  C128  1  0.97039228  0.08427318  0.40189012  1  0.030784  -6.7e-05  -0.07595  -0.077608  -0.000103  3.971385  0.0
C  C129  1  0.01732003  0.23704448  0.39631718  1  -0.009658  0.00083  -0.016069  -0.030226  0.000447  3.957141  0.001
C  C130  1  0.94824089  0.29869918  0.43109560  1  -0.094904  0.000514  -0.092031  -0.105119  0.000342  4.009008  0.0
C  C131  1  0.83701323  0.20960850  0.47178516  1  0.019563  0.000716  -0.09061  -0.132585  0.000516  4.000228  0.0
C  C132  1  0.14513357  0.32942790  0.35426675  1  1.554332  -0.002237  0.21513  0.557889  -0.002958  4.173774  -0.002
C  C133  1  0.54623610  0.62840027  0.69591929  1  0.481129  -0.001495  0.051413  0.090639  -0.002001  3.926504  -0.001
C  C134  1  0.65981534  0.64661554  0.73438304  1  -0.022792  -0.000192  -0.07839  -0.171445  -0.000314  3.928021  0.0
C  C135  1  0.67225320  0.71118823  0.79067746  1  -0.041754  -0.001023  0.016949  0.12034  -0.001128  3.98263  -0.001
C  C136  1  0.56788864  0.75650792  0.80481300  1  -0.017978  -0.000205  -0.083009  -0.178939  -0.000326  3.922075  0.0
C  C137  1  0.45740679  0.73438642  0.76412220  1  0.427329  -0.000492  0.049115  0.083497  -0.00058  3.950115  0.0
C  C138  1  0.78874560  0.73183612  0.83369727  1  0.002728  -0.000222  -0.007711  0.057887  -0.000273  4.002981  0.0
C  C139  1  0.83755205  0.62674025  0.83876389  1  -0.042567  0.000658  -0.091131  -0.132884  0.000465  3.998239  0.0
C  C140  1  0.94939564  0.64932297  0.87924166  1  -0.078668  0.000689  -0.092364  -0.105037  0.00048  4.009438  0.0
C  C141  1  0.01665942  0.77885732  0.91476408  1  -0.010505  0.000206  -0.015784  -0.031316  -5e-05  3.951607  0.0
C  C142  1  0.96652838  0.88245254  0.91032620  1  -0.019235  -0.000124  -0.076784  -0.077231  -0.000173  3.971704  0.0
C  C143  1  0.85300722  0.85856921  0.87084640  1  -0.06368  0.000171  -0.078824  -0.103581  3.4e-05  3.948548  0.0
C  C144  1  0.14598410  0.81615492  0.95635516  1  1.554325  -0.001934  0.215423  0.563992  -0.002632  4.164809  -0.002
C  C145  1  0.02971834  0.53467065  0.73449453  1  0.437108  0.001663  -0.160042  -0.152548  0.000839  4.039895  -0.003
C  C146  1  0.01556299  0.50095457  0.58413451  1  0.427111  0.002048  -0.161618  -0.160539  0.001268  4.022313  -0.003
N  N147  1  0.22468012  0.67074942  0.26690804  1  -1.183208  -0.003112  -0.316498  -0.190752  -0.00278  3.601497  -0.002
N  N148  1  0.32876443  0.77499686  0.37726414  1  -1.194653  -0.003572  -0.317265  -0.190178  -0.003291  3.602225  -0.003
N  N149  1  0.32947514  0.55403970  0.93351034  1  -1.178897  -0.003116  -0.316911  -0.191075  -0.002798  3.601783  -0.002
N  N150  1  0.22508065  0.55371011  0.04387603  1  -1.195797  -0.003545  -0.317137  -0.191018  -0.003262  3.602353  -0.003
N  N151  1  0.44594795  0.77534784  0.60019997  1  -1.187035  -0.003122  -0.316904  -0.19099  -0.002788  3.601458  -0.002
N  N152  1  0.44619044  0.67123969  0.71057699  1  -1.196005  -0.003546  -0.317163  -0.190125  -0.00327  3.602434  -0.003
O  O153  1  0.73090171  0.93376413  0.99177983  1  -1.128083  0.031171  -0.29462  -0.495369  0.019585  2.146371  0.027
O  O154  1  0.28727224  0.47299408  0.62237576  1  -1.063964  -0.006281  -0.296124  -0.525011  -0.006793  2.42342  -0.006
O  O155  1  0.06478949  0.26861188  0.65150261  1  -1.141993  0.027054  -0.298047  -0.498762  0.016944  2.139739  0.023
O  O156  1  0.47494182  0.62878810  0.38158641  1  -0.891209  0.185829  -0.317902  -0.352623  0.116679  2.350419  0.16
O  O157  1  0.37002406  0.52333143  0.26370262  1  -0.875002  0.213039  -0.313788  -0.342608  0.134204  2.343909  0.183
O  O158  1  0.52747167  0.71189140  0.02206004  1  -1.059313  -0.00459  -0.29626  -0.524517  -0.005458  2.435479  -0.004
O  O159  1  0.06628458  0.79699620  0.65847047  1  -1.132414  0.031309  -0.294752  -0.49561  0.01968  2.145903  0.027
O  O160  1  0.52701294  0.81443607  0.28911654  1  -1.064866  -0.006283  -0.29585  -0.524853  -0.006802  2.423001  -0.006
O  O161  1  0.73135543  0.79619279  0.31818432  1  -1.139503  0.027034  -0.298054  -0.498779  0.01693  2.139534  0.023
O  O162  1  0.37137076  0.84626674  0.04816012  1  -0.896609  0.186149  -0.317757  -0.352647  0.116909  2.350541  0.16
O  O163  1  0.47687187  0.84677158  0.93025916  1  -0.872625  0.212395  -0.31356  -0.341992  0.133795  2.344001  0.183
O  O164  1  0.28813729  0.81549548  0.68881254  1  -1.0546  -0.004576  -0.296142  -0.524719  -0.005443  2.435655  -0.004
O  O165  1  0.20285855  0.26924068  0.32517653  1  -1.133872  0.031272  -0.294949  -0.495906  0.019655  2.145579  0.027
O  O166  1  0.18581699  0.71272447  0.95566532  1  -1.058956  -0.006256  -0.296211  -0.525061  -0.006769  2.423426  -0.006
O  O167  1  0.20384480  0.93518241  0.98477554  1  -1.142032  0.027178  -0.298204  -0.498916  0.017024  2.138726  0.024
O  O168  1  0.15372326  0.52499319  0.71487940  1  -0.89215  0.185748  -0.31792  -0.352663  0.11663  2.350571  0.16
O  O169  1  0.15320786  0.62995903  0.59700667  1  -0.872874  0.213052  -0.313486  -0.341788  0.13419  2.34425  0.183
O  O170  1  0.18444538  0.47265078  0.35552249  1  -1.059073  -0.004618  -0.295991  -0.524604  -0.00548  2.434496  -0.004
