# generated using pymatgen
data_Cu3H8C10I2(N4O)2
_symmetry_space_group_name_H-M   'P 1'
_cell_length_a   7.27025419
_cell_length_b   7.27023689
_cell_length_c   15.76318160
_cell_angle_alpha   83.82815443
_cell_angle_beta   83.82617059
_cell_angle_gamma   79.58188640
_symmetry_Int_Tables_number   1
_chemical_formula_structural   Cu3H8C10I2(N4O)2
_chemical_formula_sum   'Cu6 H16 C20 I4 N16 O4'
_cell_volume   811.38707672
_cell_formula_units_Z   2
loop_
 _symmetry_equiv_pos_site_id
 _symmetry_equiv_pos_as_xyz
  1  'x, y, z'
loop_
 _atom_site_type_symbol
 _atom_site_label
 _atom_site_symmetry_multiplicity
 _atom_site_fract_x
 _atom_site_fract_y
 _atom_site_fract_z
 _atom_site_occupancy
 _atom_site_hle17_ddec_charge
 _atom_site_hle17_ddec_spin_density
 _atom_site_hle17_ddec_sum_bond_order
 _atom_site_hle17_magmom
 _atom_site_hse06_10hf_ddec_charge
 _atom_site_hse06_10hf_ddec_spin_density
 _atom_site_hse06_10hf_ddec_sum_bond_order
 _atom_site_hse06_10hf_magmom
 _atom_site_hse06_ddec_charge
 _atom_site_hse06_ddec_spin_density
 _atom_site_hse06_ddec_sum_bond_order
 _atom_site_hse06_magmom
 _atom_site_pbe_cm5_charge
 _atom_site_pbe_ddec_charge
 _atom_site_pbe_ddec_spin_density
 _atom_site_pbe_ddec_sum_bond_order
 _atom_site_pbe_magmom
Cu  Cu0  1  0.32319999  0.67679723  0.25000394  1  0.620714  -0.542961  2.073064  -0.392  0.588663  -0.710417  2.493207  -0.535  0.694664  -0.830379  2.415691  -0.647  0.707927  0.521644  -0.591165  2.548085  -0.441
Cu  Cu1  1  0.67680323  0.32320322  0.74999721  1  0.620617  0.542963  2.073043  0.392  0.588612  0.710406  2.493177  0.535  0.694634  0.830365  2.415619  0.647  0.70793  0.521603  0.591093  2.548082  0.441
Cu  Cu2  1  0.45714022  0.12047160  0.44065520  1  0.309239  -0.054186  2.113439  -0.043  0.209475  -0.019048  2.605061  -0.017  0.219226  -0.00452  2.549182  -0.005  0.308591  0.210564  -0.039625  2.63657  -0.033
Cu  Cu3  1  0.87952658  0.54286382  0.05934627  1  0.309238  -0.054182  2.11354  -0.043  0.209541  -0.019052  2.605037  -0.017  0.219293  -0.004522  2.549169  -0.005  0.308616  0.210573  -0.039622  2.636683  -0.033
Cu  Cu4  1  0.54287016  0.87952750  0.55934566  1  0.309239  0.054179  2.113474  0.043  0.209515  0.019044  2.604993  0.017  0.219279  0.004522  2.549127  0.005  0.308611  0.210559  0.039645  2.636601  0.033
Cu  Cu5  1  0.12046467  0.45713370  0.94065249  1  0.309265  0.054191  2.113579  0.043  0.209525  0.019055  2.605103  0.017  0.219292  0.004521  2.549237  0.005  0.308595  0.210567  0.039662  2.636725  0.033
H  H6  1  0.05680657  0.31421459  0.45075710  1  0.087022  -0.000201  0.964594  0.0  0.095917  -6.5e-05  1.03386  0.0  0.098652  6e-06  1.030859  0.0  0.106168  0.093039  -0.000141  1.037051  0.0
H  H7  1  0.68577935  0.94319894  0.04924723  1  0.086998  -0.000175  0.964589  0.0  0.09589  -6.4e-05  1.033896  0.0  0.098627  5e-06  1.030891  0.0  0.106172  0.09301  -0.000141  1.03709  0.0
H  H8  1  0.94320079  0.68578590  0.54924383  1  0.087023  0.000199  0.964568  0.0  0.095915  6.4e-05  1.033868  0.0  0.098652  -5e-06  1.03087  0.0  0.106153  0.093039  0.000142  1.037054  0.0
H  H9  1  0.31421362  0.05680417  0.95074671  1  0.08711  0.000187  0.964583  0.0  0.095972  6.5e-05  1.033847  0.0  0.098712  -5e-06  1.030845  0.0  0.106201  0.093091  0.000142  1.037041  0.0
H  H10  1  0.89491507  0.92451541  0.22751959  1  0.103002  0.000155  0.928584  0.0  0.110421  -2.7e-05  0.993318  0.0  0.113513  -2.4e-05  0.989341  0.0  0.140469  0.107839  -4.4e-05  0.996372  0.0
H  H11  1  0.07546707  0.10508404  0.27249596  1  0.102843  0.000155  0.92867  0.0  0.110266  -2.7e-05  0.993444  0.0  0.113354  -2.3e-05  0.989469  0.0  0.14034  0.107702  -4.4e-05  0.996495  0.0
H  H12  1  0.10507994  0.07547652  0.77247927  1  0.102909  -0.000147  0.928498  0.0  0.110319  2.7e-05  0.993281  0.0  0.11341  2.3e-05  0.9893  0.0  0.14042  0.10774  4.4e-05  0.996338  0.0
H  H13  1  0.92452801  0.89492341  0.72750716  1  0.102918  -0.00016  0.928702  0.0  0.110308  2.6e-05  0.99351  0.0  0.113394  2.4e-05  0.989538  0.0  0.140379  0.107748  4.4e-05  0.99656  0.0
H  H14  1  0.62750089  0.85244322  0.33580004  1  0.300684  -5.5e-05  0.895938  0.0  0.27813  -0.000132  0.969158  0.0  0.28759  -0.000103  0.960141  0.0  0.308694  0.270749  -0.000175  0.976542  0.0
H  H15  1  0.14752769  0.37248438  0.16420694  1  0.300836  -5.3e-05  0.895823  0.0  0.278158  -0.000132  0.969185  0.0  0.28758  -0.000103  0.960177  0.0  0.308743  0.270777  -0.000175  0.976569  0.0
H  H16  1  0.37250031  0.14755300  0.66420081  1  0.300665  5.2e-05  0.895996  0.0  0.278161  0.000132  0.969142  0.0  0.287625  0.000103  0.960138  0.0  0.308719  0.270765  0.000174  0.976544  0.0
H  H17  1  0.85246608  0.62751458  0.83579288  1  0.300894  4.9e-05  0.895781  0.0  0.278206  0.000132  0.96913  0.0  0.287629  0.000103  0.960121  0.0  0.308768  0.270828  0.000174  0.976512  0.0
H  H18  1  0.71766101  0.55318203  0.43252979  1  0.113257  -6e-06  0.977436  0.0  0.119214  -0.000135  1.049981  0.0  0.123527  -0.000143  1.047042  0.0  0.110355  0.115543  -8.6e-05  1.052475  0.0
H  H19  1  0.44678601  0.28232548  0.06746917  1  0.113339  -3e-06  0.977364  0.0  0.119266  -0.000135  1.049938  0.0  0.123585  -0.000143  1.047007  0.0  0.110359  0.115591  -8.6e-05  1.05244  0.0
H  H20  1  0.28234335  0.44681985  0.56747187  1  0.113261  2.4e-05  0.97738  0.0  0.119225  0.000135  1.049911  0.0  0.123539  0.000142  1.046973  0.0  0.110352  0.115556  8.6e-05  1.052403  0.0
H  H21  1  0.55320450  0.71767627  0.93253004  1  0.113366  2.1e-05  0.977297  0.0  0.119295  0.000135  1.049853  0.0  0.123614  0.000143  1.046923  0.0  0.110363  0.115622  8.6e-05  1.052355  0.0
C  C22  1  0.00204800  0.55317185  0.35844389  1  0.117938  -0.000808  3.816629  -0.001  0.126416  -0.000614  4.060734  -0.001  0.125887  -7.3e-05  4.084337  0.0  0.068723  0.127301  -0.001049  4.045519  -0.001
C  C23  1  0.44681209  0.99795111  0.14156423  1  0.117732  -0.000798  3.816602  -0.001  0.126237  -0.000614  4.060648  -0.001  0.125714  -7.2e-05  4.08427  0.0  0.068542  0.127121  -0.001049  4.045437  -0.001
C  C24  1  0.99795382  0.44682858  0.64155671  1  0.118033  0.000846  3.816631  0.001  0.126482  0.000614  4.06079  0.001  0.125953  7.3e-05  4.084393  0.0  0.068739  0.127368  0.001049  4.045583  0.001
C  C25  1  0.55318812  0.00205073  0.85843701  1  0.117719  0.000811  3.816674  0.001  0.126216  0.000616  4.060689  0.001  0.125684  7.1e-05  4.08431  0.0  0.068586  0.127104  0.001049  4.04548  0.001
C  C26  1  0.12216881  0.39629405  0.39764969  1  0.036216  0.002283  3.685386  0.002  -0.006377  -0.000567  3.944168  -0.001  0.005232  0.00038  3.952475  0.0  0.042226  -0.014731  -0.001805  3.940315  -0.002
C  C27  1  0.60369153  0.87783969  0.10235379  1  0.03637  0.002159  3.685286  0.002  -0.00628  -0.00057  3.944146  -0.001  0.005332  0.000386  3.952455  0.0  0.042242  -0.014631  -0.001807  3.940288  -0.002
C  C28  1  0.87784207  0.60370224  0.60235128  1  0.036093  -0.002273  3.68559  -0.002  -0.006563  0.00057  3.944499  0.001  0.005041  -0.000389  3.95282  0.0  0.042157  -0.014907  0.001803  3.940635  0.002
C  C29  1  0.39630315  0.12216211  0.89764774  1  0.03611  -0.002183  3.685433  -0.002  -0.006424  0.00057  3.944127  0.001  0.005188  -0.00038  3.952442  0.0  0.04216  -0.014769  0.001805  3.94027  0.002
C  C30  1  0.90432049  0.80648199  0.27593243  1  0.258166  -0.001472  3.607067  -0.002  0.199085  -0.002711  3.879745  -0.003  0.217405  -0.00155  3.889283  -0.002  0.15525  0.186965  -0.003936  3.874297  -0.004
C  C31  1  0.19349015  0.09568065  0.22407686  1  0.25857  -0.0015  3.6072  -0.002  0.199387  -0.002712  3.879863  -0.003  0.217665  -0.00155  3.889373  -0.002  0.155461  0.187237  -0.003937  3.874441  -0.004
C  C32  1  0.09567856  0.19351841  0.72406641  1  0.258308  0.001471  3.606885  0.002  0.199225  0.002712  3.879558  0.003  0.217549  0.001551  3.88909  0.002  0.155344  0.1871  0.003935  3.874114  0.004
C  C33  1  0.80650657  0.90432541  0.77592688  1  0.258219  0.001499  3.607519  0.002  0.199084  0.002711  3.880118  0.003  0.217355  0.00155  3.889629  0.002  0.155291  0.186938  0.003934  3.874704  0.004
C  C34  1  0.56489017  0.32906313  0.28552630  1  0.396772  -0.001268  3.866954  -0.002  0.364826  -0.002939  4.145201  -0.003  0.391855  -0.000872  4.147698  -0.001  0.207016  0.34662  -0.00542  4.1445  -0.005
C  C35  1  0.67093150  0.43510885  0.21446816  1  0.396945  -0.001253  3.86693  -0.002  0.365005  -0.002936  4.145153  -0.003  0.392037  -0.000874  4.147645  -0.001  0.207141  0.346805  -0.005419  4.144447  -0.005
C  C36  1  0.43510659  0.67093442  0.71447154  1  0.397128  0.001275  3.866521  0.002  0.365148  0.002937  4.144871  0.003  0.392178  0.000875  4.14736  0.001  0.207183  0.346943  0.005418  4.144175  0.005
C  C37  1  0.32907619  0.56489722  0.78552803  1  0.397013  0.001261  3.866606  0.002  0.364987  0.002937  4.145013  0.003  0.392015  0.000872  4.147503  0.001  0.207102  0.346788  0.005417  4.144315  0.005
C  C38  1  0.81264475  0.61118271  0.38335422  1  -0.005647  -0.002113  3.600579  -0.003  -0.049956  -0.002416  3.853694  -0.003  -0.043569  -0.001713  3.865634  -0.002  0.020795  -0.055515  -0.002979  3.848089  -0.003
C  C39  1  0.38878540  0.18735251  0.11665467  1  -0.005663  -0.002123  3.600658  -0.003  -0.049988  -0.002417  3.853671  -0.003  -0.043675  -0.001713  3.865582  -0.002  0.020759  -0.055552  -0.00298  3.848074  -0.003
C  C40  1  0.18735722  0.38880931  0.61664871  1  -0.005661  0.002018  3.600556  0.003  -0.049952  0.002417  3.853682  0.003  -0.043565  0.001712  3.865623  0.002  0.020813  -0.055511  0.002979  3.848074  0.003
C  C41  1  0.61121229  0.81264791  0.88334678  1  -0.005715  0.002078  3.600682  0.003  -0.050063  0.002417  3.853699  0.003  -0.043747  0.001716  3.865615  0.002  0.020726  -0.055619  0.00298  3.848095  0.003
I  I42  1  0.69707855  0.17363503  0.54173946  1  -0.382194  0.007944  1.497321  0.006  -0.370361  0.00361  1.935425  0.003  -0.399849  0.001581  1.90093  0.002  -0.187859  -0.341831  0.004633  1.95312  0.004
I  I43  1  0.82637207  0.30290650  0.95826298  1  -0.382217  0.007957  1.49729  0.006  -0.370374  0.003612  1.935341  0.003  -0.399873  0.001582  1.900863  0.002  -0.187853  -0.34182  0.004638  1.95304  0.004
I  I44  1  0.30293293  0.82636545  0.45825873  1  -0.382159  -0.007954  1.49728  -0.006  -0.370331  -0.003611  1.935382  -0.003  -0.399821  -0.001581  1.900891  -0.002  -0.187824  -0.341821  -0.004624  1.953102  -0.004
I  I45  1  0.17363036  0.69708267  0.04173627  1  -0.382173  -0.007953  1.497191  -0.006  -0.37033  -0.003609  1.935235  -0.003  -0.39983  -0.001581  1.900758  -0.002  -0.187848  -0.341776  -0.004618  1.952927  -0.004
N  N46  1  0.05574815  0.67845441  0.29093142  1  -0.395352  -0.03524  3.299117  -0.044  -0.344067  -0.039774  3.603031  -0.05  -0.374538  -0.037818  3.618715  -0.051  -0.382521  -0.327724  -0.035482  3.596564  -0.043
N  N47  1  0.32152968  0.94425284  0.20907651  1  -0.3955  -0.035221  3.299321  -0.044  -0.344117  -0.039776  3.603172  -0.05  -0.374613  -0.03782  3.618879  -0.051  -0.382464  -0.327776  -0.035485  3.596712  -0.043
N  N48  1  0.94425180  0.32154884  0.70906976  1  -0.395405  0.035211  3.299167  0.044  -0.344085  0.039771  3.603054  0.05  -0.37456  0.037815  3.61873  0.051  -0.382561  -0.32775  0.035473  3.596616  0.043
N  N49  1  0.67846667  0.05574761  0.79092881  1  -0.395118  0.035216  3.2994  0.044  -0.343831  0.039775  3.603286  0.05  -0.374308  0.037818  3.618977  0.051  -0.382345  -0.327497  0.035476  3.596848  0.043
N  N50  1  0.30093293  0.33618875  0.37839789  1  -0.115125  -0.028288  3.418896  -0.035  -0.054909  -0.014811  3.720692  -0.017  -0.060783  -0.009306  3.73399  -0.011  -0.267434  -0.052243  -0.017747  3.713585  -0.021
N  N51  1  0.66380731  0.69907017  0.12160220  1  -0.115008  -0.028214  3.418749  -0.035  -0.054805  -0.014808  3.720596  -0.017  -0.060692  -0.009314  3.73391  -0.011  -0.267354  -0.052129  -0.017744  3.713478  -0.021
N  N52  1  0.69907555  0.66381314  0.62160228  1  -0.114884  0.028264  3.418856  0.035  -0.05462  0.014807  3.720609  0.017  -0.060503  0.009318  3.733926  0.011  -0.267287  -0.051953  0.017748  3.713496  0.021
N  N53  1  0.33618870  0.30093159  0.87839483  1  -0.115001  0.028211  3.418808  0.035  -0.054769  0.014811  3.720574  0.017  -0.060669  0.00931  3.733901  0.011  -0.26729  -0.0521  0.017751  3.713468  0.021
N  N54  1  0.39593490  0.42712947  0.31259368  1  -0.358561  -0.070726  3.281784  -0.09  -0.326847  -0.063553  3.602692  -0.082  -0.369397  -0.05624  3.627542  -0.077  -0.305921  -0.303568  -0.058866  3.590934  -0.074
N  N55  1  0.57286658  0.60407264  0.18740868  1  -0.358716  -0.070715  3.281813  -0.09  -0.327006  -0.063553  3.602758  -0.082  -0.369548  -0.056233  3.627599  -0.077  -0.305962  -0.303727  -0.058862  3.590996  -0.074
N  N56  1  0.60406830  0.57287096  0.68740558  1  -0.358796  0.070748  3.281725  0.09  -0.32708  0.063558  3.602658  0.082  -0.36963  0.056241  3.627499  0.077  -0.305959  -0.303813  0.058865  3.590946  0.074
N  N57  1  0.42712820  0.39593616  0.81258995  1  -0.358551  0.070765  3.281497  0.09  -0.326914  0.063556  3.60254  0.082  -0.369454  0.056242  3.627379  0.077  -0.305914  -0.303637  0.058864  3.590799  0.074
N  N58  1  0.75686740  0.76911199  0.33102740  1  -0.263125  -0.000151  3.491729  0.0  -0.193438  -0.001008  3.722901  -0.001  -0.208281  -0.000843  3.732559  -0.001  -0.372592  -0.184048  -0.000931  3.718228  -0.001
N  N59  1  0.23086227  0.24313324  0.16897822  1  -0.263374  -0.000156  3.49228  0.0  -0.193571  -0.001008  3.723533  -0.001  -0.20824  -0.000843  3.733037  -0.001  -0.372604  -0.184169  -0.000931  3.718852  -0.001
N  N60  1  0.24313869  0.23088004  0.66897278  1  -0.263141  0.000181  3.491867  0.0  -0.193521  0.001008  3.723056  0.001  -0.208377  0.000843  3.732724  0.001  -0.372644  -0.184104  0.00093  3.718398  0.001
N  N61  1  0.76913215  0.75686996  0.83102262  1  -0.263357  0.00018  3.492374  0.0  -0.193486  0.001008  3.723514  0.001  -0.208164  0.000842  3.733029  0.001  -0.372598  -0.184085  0.00093  3.718828  0.001
O  O62  1  0.63428365  0.16612964  0.31417371  1  -0.512694  -0.004013  2.060774  -0.005  -0.451902  -0.004703  2.302737  -0.006  -0.473844  -0.003056  2.293906  -0.004  -0.306008  -0.439808  -0.00591  2.309458  -0.007
O  O63  1  0.83386829  0.36572192  0.18581716  1  -0.512768  -0.004037  2.060956  -0.005  -0.451972  -0.004699  2.30292  -0.006  -0.473917  -0.00306  2.294092  -0.004  -0.306066  -0.439874  -0.005908  2.309645  -0.007
O  O64  1  0.36571910  0.83386511  0.68582016  1  -0.512935  0.004029  2.060591  0.005  -0.452115  0.004703  2.302576  0.006  -0.474059  0.00306  2.293748  0.004  -0.306173  -0.440013  0.005911  2.309297  0.007
O  O65  1  0.16613666  0.63428414  0.81418045  1  -0.512931  0.004005  2.060604  0.005  -0.452037  0.004702  2.302568  0.006  -0.47398  0.003057  2.293739  0.004  -0.306102  -0.439939  0.00591  2.309295  0.007
