# generated using pymatgen
data_ZnH7C10N3O5
_symmetry_space_group_name_H-M   'P 1'
_cell_length_a   10.36432114
_cell_length_b   10.60149698
_cell_length_c   11.06304773
_cell_angle_alpha   90.00003914
_cell_angle_beta   116.03670352
_cell_angle_gamma   90.00009497
_symmetry_Int_Tables_number   1
_chemical_formula_structural   ZnH7C10N3O5
_chemical_formula_sum   'Zn4 H28 C40 N12 O20'
_cell_volume   1092.21271113
_cell_formula_units_Z   4
loop_
 _symmetry_equiv_pos_site_id
 _symmetry_equiv_pos_as_xyz
  1  'x, y, z'
loop_
 _atom_site_type_symbol
 _atom_site_label
 _atom_site_symmetry_multiplicity
 _atom_site_fract_x
 _atom_site_fract_y
 _atom_site_fract_z
 _atom_site_occupancy
 _atom_site_hle17_bader_spin_density
 _atom_site_hle17_ddec_charge
 _atom_site_hle17_ddec_spin_density
 _atom_site_hle17_ddec_sum_bond_order
 _atom_site_hle17_magmom
 _atom_site_hse06_10hf_bader_spin_density
 _atom_site_hse06_10hf_ddec_charge
 _atom_site_hse06_10hf_ddec_spin_density
 _atom_site_hse06_10hf_ddec_sum_bond_order
 _atom_site_hse06_10hf_magmom
 _atom_site_hse06_bader_spin_density
 _atom_site_hse06_ddec_charge
 _atom_site_hse06_ddec_spin_density
 _atom_site_hse06_ddec_sum_bond_order
 _atom_site_hse06_magmom
 _atom_site_pbe_bader_spin_density
 _atom_site_pbe_cm5_charge
 _atom_site_pbe_ddec_charge
 _atom_site_pbe_ddec_spin_density
 _atom_site_pbe_ddec_sum_bond_order
 _atom_site_pbe_magmom
Zn  Zn0  1  0.81100261  0.60976555  0.18239123  1  0  1.108377  0  1.771425  0  0  0.927315  0  2.253307  0  0  0.976827  0  2.190262  0  0  0.695354  0.892816  0  2.296435  0
Zn  Zn1  1  0.18899578  0.10976590  0.31760893  1  0  1.108392  0  1.771432  0  0  0.927313  0  2.253335  0  0  0.976823  0  2.19029  0  0  0.69536  0.892811  0  2.296465  0
Zn  Zn2  1  0.18899642  0.39023496  0.81760718  1  0  1.10834  0  1.771436  0  0  0.927277  0  2.253335  0  0  0.97679  0  2.19029  0  0  0.695336  0.892777  0  2.296465  0
Zn  Zn3  1  0.81100218  0.89023461  0.68238995  1  0  1.108349  0  1.771514  0  0  0.927272  0  2.253404  0  0  0.976782  0  2.19036  0  0  0.695334  0.89277  0  2.296535  0
H  H4  1  0.58536936  0.39825378  0.31639038  1  0  0.113725  0  0.946593  0  0  0.121578  0  1.011246  0  0  0.125812  0  1.00733  0  0  0.110695  0.118299  0  1.014488  0
H  H5  1  0.41462974  0.89825468  0.18360846  1  0  0.113723  0  0.946602  0  0  0.12158  0  1.011248  0  0  0.125813  0  1.007333  0  0  0.110697  0.118301  0  1.014491  0
H  H6  1  0.41463075  0.60174390  0.68360938  1  0  0.113719  0  0.946609  0  0  0.121576  0  1.011257  0  0  0.125808  0  1.007344  0  0  0.110692  0.118296  0  1.0145  0
H  H7  1  0.58536929  0.10174583  0.81639087  1  0  0.113703  0  0.946623  0  0  0.121562  0  1.011274  0  0  0.125795  0  1.007357  0  0  0.110682  0.118283  0  1.014516  0
H  H8  1  0.54500671  0.28270321  0.67104629  1  0  0.136009  0  0.943885  0  0  0.140942  0  1.012038  0  0  0.145174  0  1.008253  0  0  0.114601  0.137684  0  1.01511  0
H  H9  1  0.45499378  0.78270333  0.82895426  1  0  0.135982  0  0.943912  0  0  0.140944  0  1.012022  0  0  0.145177  0  1.008237  0  0  0.114604  0.137687  0  1.015093  0
H  H10  1  0.45499447  0.71729636  0.32895482  1  0  0.136008  0  0.943874  0  0  0.140902  0  1.012077  0  0  0.145136  0  1.008289  0  0  0.11458  0.137646  0  1.015148  0
H  H11  1  0.54500633  0.21729623  0.17104550  1  0  0.135989  0  0.943911  0  0  0.140952  0  1.01202  0  0  0.145184  0  1.008236  0  0  0.114603  0.137695  0  1.015092  0
H  H12  1  0.87220115  0.23022135  0.91393092  1  0  0.126869  0  0.945856  0  0  0.134359  0  1.008561  0  0  0.136958  0  1.005675  0  0  0.147479  0.132259  0  1.011137  0
H  H13  1  0.12780029  0.73021983  0.58607088  1  0  0.12689  0  0.945923  0  0  0.13439  0  1.008613  0  0  0.136987  0  1.005726  0  0  0.14749  0.132289  0  1.01119  0
H  H14  1  0.12780111  0.76977916  0.08606972  1  0  0.126892  0  0.945932  0  0  0.134389  0  1.008627  0  0  0.136986  0  1.005742  0  0  0.147495  0.132289  0  1.011203  0
H  H15  1  0.87220197  0.26977879  0.41393066  1  0  0.126885  0  0.945827  0  0  0.134391  0  1.008495  0  0  0.136988  0  1.005611  0  0  0.147484  0.13229  0  1.011071  0
H  H16  1  0.88981054  0.53052888  0.70560466  1  0  0.106533  0  0.964914  0  0  0.116166  0  1.031723  0  0  0.11989  0  1.028122  0  0  0.112566  0.11365  0  1.03408  0
H  H17  1  0.11018933  0.03052814  0.79439546  1  0  0.106541  0  0.964936  0  0  0.116193  0  1.031721  0  0  0.119894  0  1.028148  0  0  0.112572  0.113674  0  1.034077  0
H  H18  1  0.11018850  0.46947257  0.29439375  1  0  0.10654  0  0.964918  0  0  0.116184  0  1.031715  0  0  0.119886  0  1.028143  0  0  0.112568  0.113667  0  1.03407  0
H  H19  1  0.88981078  0.96947049  0.20560430  1  0  0.106556  0  0.964932  0  0  0.11619  0  1.031736  0  0  0.119913  0  1.028135  0  0  0.112576  0.113673  0  1.034092  0
H  H20  1  0.71366643  0.60492017  0.86729502  1  0  0.147197  0  0.962307  0  0  0.151686  0  1.028357  0  0  0.155851  0  1.023272  0  0  0.148951  0.148543  0  1.032205  0
H  H21  1  0.28633362  0.10492055  0.63270433  1  0  0.147179  0  0.96229  0  0  0.151643  0  1.028372  0  0  0.155807  0  1.023286  0  0  0.148926  0.148499  0  1.03222  0
H  H22  1  0.28633261  0.39508033  0.13270521  1  0  0.147199  0  0.962312  0  0  0.151666  0  1.028386  0  0  0.155831  0  1.0233  0  0  0.148936  0.148523  0  1.032233  0
H  H23  1  0.71366650  0.89507996  0.36729543  1  0  0.147186  0  0.962318  0  0  0.151641  0  1.028405  0  0  0.155804  0  1.023322  0  0  0.148949  0.148497  0  1.032252  0
H  H24  1  0.01802815  0.78494398  0.29487206  1  0  0.397982  0  0.919376  0  0  0.353989  0  1.004561  0  0  0.365508  0  0.988272  0  0  0.284431  0.345953  0  1.015877  0
H  H25  1  0.98197175  0.28494270  0.20512794  1  0  0.397984  0  0.919376  0  0  0.353986  0  1.004564  0  0  0.365507  0  0.988274  0  0  0.284429  0.34595  0  1.01588  0
H  H26  1  0.98197196  0.21505558  0.70512770  1  0  0.39797  0  0.919395  0  0  0.353975  0  1.00458  0  0  0.365495  0  0.988291  0  0  0.284424  0.34594  0  1.015895  0
H  H27  1  0.01802836  0.71505686  0.79487183  1  0  0.397989  0  0.919367  0  0  0.353997  0  1.00455  0  0  0.365516  0  0.988261  0  0  0.284434  0.345962  0  1.015865  0
H  H28  1  0.93425781  0.79415091  0.12855164  1  0  0.426214  0  0.884614  0  0  0.392934  0  0.952032  0  0  0.404864  0  0.934994  0  0  0.287786  0.384551  0  0.963956  0
H  H29  1  0.06574212  0.29415015  0.37144837  1  0  0.426231  0  0.884586  0  0  0.392951  0  0.952003  0  0  0.404881  0  0.934967  0  0  0.287785  0.384568  0  0.963927  0
H  H30  1  0.06574231  0.20584865  0.87144903  1  0  0.426224  0  0.884603  0  0  0.392941  0  0.952026  0  0  0.404874  0  0.934984  0  0  0.287784  0.384559  0  0.963948  0
H  H31  1  0.93425692  0.70584941  0.62855186  1  0  0.426249  0  0.884564  0  0  0.392973  0  0.95197  0  0  0.404904  0  0.934932  0  0  0.2878  0.384591  0  0.963894  0
C  C32  1  0.62511294  0.40047901  0.42515542  1  0  -0.070988  0  3.706265  0  0  -0.111605  0  3.958205  0  0  -0.108806  0  3.977515  0  0  -0.07247  -0.112952  0  3.945329  0
C  C33  1  0.37488725  0.90047976  0.07484476  1  0  -0.07096  0  3.706367  0  0  -0.111592  0  3.958285  0  0  -0.108791  0  3.977594  0  0  -0.072474  -0.112941  0  3.945414  0
C  C34  1  0.37488825  0.59951962  0.57484568  1  0  -0.070936  0  3.706382  0  0  -0.111582  0  3.958318  0  0  -0.108782  0  3.977628  0  0  -0.072472  -0.112929  0  3.945443  0
C  C35  1  0.62511179  0.09951980  0.92515365  1  0  -0.071011  0  3.706395  0  0  -0.111649  0  3.958326  0  0  -0.108847  0  3.977635  0  0  -0.072492  -0.112997  0  3.94545  0
C  C36  1  0.55381401  0.33135571  0.48473744  1  0  -0.046943  0  3.758646  0  0  -0.02076  0  3.992893  0  0  -0.030556  0  4.017424  0  0  -0.013716  -0.014778  0  3.976293  0
C  C37  1  0.44618816  0.83135843  0.01526441  1  0  -0.047023  0  3.758719  0  0  -0.020803  0  3.992908  0  0  -0.030598  0  4.017438  0  0  -0.013742  -0.01482  0  3.976305  0
C  C38  1  0.44618396  0.66864480  0.51526235  1  0  -0.046995  0  3.758711  0  0  -0.020776  0  3.992903  0  0  -0.030572  0  4.017433  0  0  -0.013726  -0.014792  0  3.976302  0
C  C39  1  0.55381302  0.16864302  0.98473488  1  0  -0.046958  0  3.758699  0  0  -0.020726  0  3.992875  0  0  -0.030521  0  4.017404  0  0  -0.013708  -0.014743  0  3.976272  0
C  C40  1  0.60296472  0.33404505  0.62465021  1  0  -0.107532  0  3.636501  0  0  -0.144702  0  3.887999  0  0  -0.142165  0  3.903928  0  0  -0.066522  -0.145221  0  3.876707  0
C  C41  1  0.39703482  0.83404511  0.87535089  1  0  -0.10747  0  3.636468  0  0  -0.144662  0  3.887935  0  0  -0.142125  0  3.903867  0  0  -0.066503  -0.145178  0  3.87664  0
C  C42  1  0.39703431  0.66595546  0.37534911  1  0  -0.107471  0  3.636477  0  0  -0.144613  0  3.887964  0  0  -0.142074  0  3.903893  0  0  -0.066479  -0.14513  0  3.876672  0
C  C43  1  0.60296421  0.16595445  0.12464843  1  0  -0.10751  0  3.636489  0  0  -0.144716  0  3.887966  0  0  -0.142179  0  3.903898  0  0  -0.066536  -0.145234  0  3.876672  0
C  C44  1  0.72323883  0.40684244  0.70077649  1  0  0.168511  0  3.763474  0  0  0.165598  0  4.015541  0  0  0.167267  0  4.038477  0  0  0.09432  0.164208  0  3.999999  0
C  C45  1  0.27676089  0.90684225  0.79922383  1  0  0.168547  0  3.763409  0  0  0.165611  0  4.01552  0  0  0.167279  0  4.03845  0  0  0.094328  0.164221  0  3.999977  0
C  C46  1  0.27676020  0.59315996  0.29922193  1  0  0.168497  0  3.763424  0  0  0.165561  0  4.015525  0  0  0.167229  0  4.038455  0  0  0.094277  0.164173  0  3.999981  0
C  C47  1  0.72323814  0.09315731  0.20077549  1  0  0.168507  0  3.763413  0  0  0.165587  0  4.015497  0  0  0.167255  0  4.038432  0  0  0.09431  0.164201  0  3.999953  0
C  C48  1  0.79539034  0.47600346  0.64219212  1  0  -0.108679  0  3.681867  0  0  -0.144564  0  3.930754  0  0  -0.142778  0  3.948319  0  0  -0.070647  -0.145864  0  3.9194  0
C  C49  1  0.20460956  0.97600320  0.85780741  1  0  -0.108692  0  3.681947  0  0  -0.14459  0  3.930837  0  0  -0.142787  0  3.948414  0  0  -0.07064  -0.145887  0  3.91948  0
C  C50  1  0.20460977  0.52399799  0.35780583  1  0  -0.108624  0  3.68189  0  0  -0.144522  0  3.930781  0  0  -0.142721  0  3.948363  0  0  -0.070607  -0.145822  0  3.919424  0
C  C51  1  0.79539055  0.02399636  0.14219145  1  0  -0.108669  0  3.68189  0  0  -0.144547  0  3.930765  0  0  -0.142762  0  3.948332  0  0  -0.070619  -0.14585  0  3.91941  0
C  C52  1  0.74646457  0.47256801  0.50286397  1  0  -0.059363  0  3.754391  0  0  -0.030882  0  3.985607  0  0  -0.040851  0  4.009707  0  0  -0.012946  -0.024656  0  3.970474  0
C  C53  1  0.25353639  0.97256698  0.99713599  1  0  -0.059439  0  3.754542  0  0  -0.030938  0  3.985753  0  0  -0.040905  0  4.009848  0  0  -0.012964  -0.024711  0  3.970617  0
C  C54  1  0.25353554  0.52743344  0.49713579  1  0  -0.059505  0  3.754547  0  0  -0.030992  0  3.985756  0  0  -0.040958  0  4.009852  0  0  -0.012962  -0.024766  0  3.970622  0
C  C55  1  0.74646157  0.02743164  0.00286199  1  0  -0.059383  0  3.754428  0  0  -0.030901  0  3.985656  0  0  -0.040869  0  4.009757  0  0  -0.012975  -0.024672  0  3.97052  0
C  C56  1  0.84647434  0.32310350  0.93778820  1  0  0.187779  0  3.5992  0  0  0.12212  0  3.871782  0  0  0.13485  0  3.883709  0  0  0.1716  0.113809  0  3.8639  0
C  C57  1  0.15352625  0.82310201  0.56221241  1  0  0.187714  0  3.599258  0  0  0.122043  0  3.871853  0  0  0.134777  0  3.883776  0  0  0.17156  0.113734  0  3.863968  0
C  C58  1  0.15352685  0.67689795  0.06221290  1  0  0.187708  0  3.599303  0  0  0.122042  0  3.871888  0  0  0.134774  0  3.883812  0  0  0.171557  0.113732  0  3.864004  0
C  C59  1  0.84647601  0.17689567  0.43778913  1  0  0.187763  0  3.599126  0  0  0.122115  0  3.871708  0  0  0.134847  0  3.883632  0  0  0.171562  0.113805  0  3.863825  0
C  C60  1  0.76642088  0.51666383  0.91429116  1  0  0.187897  0  3.558942  0  0  0.123362  0  3.818406  0  0  0.137827  0  3.828687  0  0  0.17452  0.113877  0  3.811499  0
C  C61  1  0.23357681  0.01666314  0.58570897  1  0  0.188043  0  3.559011  0  0  0.123536  0  3.818473  0  0  0.138003  0  3.828752  0  0  0.174626  0.11405  0  3.811566  0
C  C62  1  0.23358031  0.48333762  0.08570904  1  0  0.187933  0  3.558902  0  0  0.123398  0  3.818381  0  0  0.137864  0  3.828661  0  0  0.174538  0.113915  0  3.811472  0
C  C63  1  0.76642116  0.98333643  0.41429263  1  0  0.187993  0  3.559133  0  0  0.123484  0  3.818592  0  0  0.137951  0  3.82887  0  0  0.174546  0.113999  0  3.811686  0
C  C64  1  0.42322823  0.25668688  0.39652498  1  0  0.62674  0  3.951745  0  0  0.58042  0  4.237411  0  0  0.61414  0  4.232234  0  0  0.197261  0.55762  0  4.240167  0
C  C65  1  0.57677269  0.75668798  0.10347813  1  0  0.626746  0  3.951734  0  0  0.580445  0  4.237378  0  0  0.614166  0  4.232198  0  0  0.197229  0.557646  0  4.240133  0
C  C66  1  0.57677297  0.74331269  0.60347885  1  0  0.626685  0  3.951754  0  0  0.580357  0  4.237425  0  0  0.614076  0  4.232249  0  0  0.197237  0.557557  0  4.24018  0
C  C67  1  0.42322742  0.24331253  0.89652073  1  0  0.62675  0  3.951739  0  0  0.580446  0  4.237385  0  0  0.614167  0  4.232205  0  0  0.197246  0.557648  0  4.240139  0
C  C68  1  0.82173873  0.54387307  0.43527905  1  0  0.677234  0  3.879506  0  0  0.623085  0  4.173437  0  0  0.658471  0  4.165415  0  0  0.219362  0.598748  0  4.179058  0
C  C69  1  0.17826379  0.04387416  0.06472186  1  0  0.677204  0  3.87953  0  0  0.623031  0  4.173479  0  0  0.658416  0  4.16546  0  0  0.219295  0.598695  0  4.179097  0
C  C70  1  0.17826138  0.45612555  0.56472071  1  0  0.67731  0  3.87947  0  0  0.623138  0  4.173424  0  0  0.658525  0  4.165405  0  0  0.219352  0.598802  0  4.179045  0
C  C71  1  0.82173632  0.95612446  0.93527790  1  0  0.677213  0  3.879495  0  0  0.623062  0  4.17342  0  0  0.658447  0  4.1654  0  0  0.219327  0.598725  0  4.17904  0
N  N72  1  0.77490274  0.41385286  0.84416838  1  0  -0.115548  0  3.55042  0  0  -0.024919  0  3.768729  0  0  -0.041895  0  3.792256  0  0  -0.21046  -0.013978  0  3.753107  0
N  N73  1  0.22509808  0.91385249  0.65583148  1  0  -0.115585  0  3.550466  0  0  -0.024955  0  3.768783  0  0  -0.041931  0  3.792305  0  0  -0.210507  -0.014014  0  3.753159  0
N  N74  1  0.22509845  0.58614953  0.15583092  1  0  -0.11555  0  3.550412  0  0  -0.024905  0  3.768719  0  0  -0.041879  0  3.792243  0  0  -0.210443  -0.013964  0  3.753095  0
N  N75  1  0.77490311  0.08614708  0.34416872  1  0  -0.115702  0  3.550585  0  0  -0.025081  0  3.7689  0  0  -0.042057  0  3.792421  0  0  -0.210498  -0.014141  0  3.753279  0
N  N76  1  0.88072851  0.36724038  0.05937822  1  0  -0.232991  0  3.02713  0  0  -0.188653  0  3.294015  0  0  -0.200235  0  3.309921  0  0  -0.210464  -0.180735  0  3.282979  0
N  N77  1  0.11927267  0.86723816  0.44062235  1  0  -0.232973  0  3.027109  0  0  -0.188624  0  3.293987  0  0  -0.200207  0  3.309891  0  0  -0.210431  -0.180706  0  3.28295  0
N  N78  1  0.11927267  0.63276107  0.94062198  1  0  -0.232962  0  3.027113  0  0  -0.188622  0  3.293988  0  0  -0.200204  0  3.309893  0  0  -0.210433  -0.180705  0  3.282952  0
N  N79  1  0.88072852  0.13276047  0.55937876  1  0  -0.232946  0  3.026977  0  0  -0.188617  0  3.293865  0  0  -0.2002  0  3.309768  0  0  -0.21041  -0.1807  0  3.282828  0
N  N80  1  0.82958248  0.48925895  0.04411455  1  0  -0.27458  0  3.190183  0  0  -0.210607  0  3.494756  0  0  -0.22763  0  3.506586  0  0  -0.239548  -0.199149  0  3.486491  0
N  N81  1  0.17041899  0.98925776  0.45588622  1  0  -0.274655  0  3.190249  0  0  -0.210694  0  3.494836  0  0  -0.227718  0  3.506664  0  0  -0.239596  -0.199238  0  3.486573  0
N  N82  1  0.17041763  0.51074156  0.95588521  1  0  -0.274599  0  3.190209  0  0  -0.210607  0  3.494767  0  0  -0.227631  0  3.506597  0  0  -0.239555  -0.19915  0  3.486502  0
N  N83  1  0.82958219  0.01073992  0.54411488  1  0  -0.274563  0  3.19023  0  0  -0.21059  0  3.494796  0  0  -0.227614  0  3.506626  0  0  -0.239554  -0.199133  0  3.486533  0
O  O84  1  0.37505432  0.26295006  0.27080899  1  0  -0.619199  0  1.956013  0  0  -0.573543  0  2.186227  0  0  -0.597381  0  2.176859  0  0  -0.318363  -0.556698  0  2.192224  0
O  O85  1  0.62494338  0.76294850  0.22919190  1  0  -0.619141  0  1.956087  0  0  -0.573482  0  2.186288  0  0  -0.597321  0  2.176917  0  0  -0.318315  -0.556638  0  2.19228  0
O  O86  1  0.62494472  0.73705045  0.72919214  1  0  -0.619151  0  1.956069  0  0  -0.573492  0  2.186273  0  0  -0.597329  0  2.176907  0  0  -0.31835  -0.556652  0  2.192277  0
O  O87  1  0.37505566  0.23705012  0.77080833  1  0  -0.619169  0  1.956074  0  0  -0.573509  0  2.186282  0  0  -0.597346  0  2.176912  0  0  -0.318345  -0.556661  0  2.192271  0
O  O88  1  0.36650735  0.18858703  0.45737614  1  0  -0.647469  0  2.029648  0  0  -0.574316  0  2.28667  0  0  -0.604303  0  2.273845  0  0  -0.329897  -0.553379  0  2.295008  0
O  O89  1  0.63349231  0.68858725  0.04262369  1  0  -0.647473  0  2.029585  0  0  -0.574374  0  2.28664  0  0  -0.604363  0  2.273825  0  0  -0.329901  -0.553436  0  2.29498  0
O  O90  1  0.63349491  0.81141159  0.54262541  1  0  -0.647444  0  2.029673  0  0  -0.57428  0  2.286671  0  0  -0.604275  0  2.273864  0  0  -0.329871  -0.553342  0  2.295008  0
O  O91  1  0.36650780  0.31141326  0.95737516  1  0  -0.64744  0  2.029585  0  0  -0.574342  0  2.286637  0  0  -0.604334  0  2.273821  0  0  -0.329874  -0.553409  0  2.294977  0
O  O92  1  0.79554919  0.50267316  0.31690249  1  0  -0.65359  0  2.063355  0  0  -0.580706  0  2.346724  0  0  -0.609788  0  2.327928  0  0  -0.328647  -0.56071  0  2.359356  0
O  O93  1  0.20445108  0.00267155  0.18309656  1  0  -0.653568  0  2.063327  0  0  -0.580674  0  2.346704  0  0  -0.609756  0  2.327909  0  0  -0.328622  -0.560676  0  2.359333  0
O  O94  1  0.20445307  0.49732734  0.68309815  1  0  -0.653561  0  2.063307  0  0  -0.580691  0  2.346711  0  0  -0.609775  0  2.327916  0  0  -0.32863  -0.560695  0  2.359342  0
O  O95  1  0.79554796  0.99732801  0.81690276  1  0  -0.653574  0  2.063313  0  0  -0.580685  0  2.346687  0  0  -0.609767  0  2.327892  0  0  -0.328637  -0.560689  0  2.359318  0
O  O96  1  0.90320502  0.63511687  0.49226993  1  0  -0.613885  0  1.9928  0  0  -0.558013  0  2.2192  0  0  -0.583185  0  2.209477  0  0  -0.305494  -0.540451  0  2.225971  0
O  O97  1  0.09679236  0.13511402  0.00772893  1  0  -0.613828  0  1.992751  0  0  -0.557959  0  2.219178  0  0  -0.58313  0  2.209454  0  0  -0.305444  -0.540395  0  2.225945  0
O  O98  1  0.09679188  0.36488363  0.50772942  1  0  -0.613924  0  1.992782  0  0  -0.55804  0  2.219181  0  0  -0.58321  0  2.209459  0  0  -0.305494  -0.540477  0  2.225953  0
O  O99  1  0.90320667  0.86488649  0.99226948  1  0  -0.613801  0  1.992778  0  0  -0.557952  0  2.219217  0  0  -0.583123  0  2.209496  0  0  -0.30542  -0.540389  0  2.225989  0
O  O100  1  0.96272138  0.73609596  0.20936492  1  0  -0.860329  0  2.00209  0  0  -0.790293  0  2.257735  0  0  -0.813872  0  2.21696  0  0  -0.579762  -0.773459  0  2.285782  0
O  O101  1  0.03727840  0.23609415  0.29063499  1  0  -0.860354  0  2.002155  0  0  -0.79032  0  2.257813  0  0  -0.813897  0  2.217035  0  0  -0.579756  -0.773484  0  2.28586  0
O  O102  1  0.03727873  0.26390361  0.79063484  1  0  -0.860329  0  2.002091  0  0  -0.790295  0  2.257743  0  0  -0.813874  0  2.216963  0  0  -0.579759  -0.773461  0  2.285789  0
O  O103  1  0.96272171  0.76390541  0.70936567  1  0  -0.860364  0  2.002061  0  0  -0.790337  0  2.25771  0  0  -0.813916  0  2.216934  0  0  -0.579776  -0.773502  0  2.285757  0
