# generated using pymatgen
data_Cd3H54C52S2(N9O10)2
_symmetry_space_group_name_H-M   'P 1'
_cell_length_a   10.21085724
_cell_length_b   13.01665260
_cell_length_c   13.87170000
_cell_angle_alpha   60.76504281
_cell_angle_beta   83.02700815
_cell_angle_gamma   88.08661980
_symmetry_Int_Tables_number   1
_chemical_formula_structural   Cd3H54C52S2(N9O10)2
_chemical_formula_sum   'Cd3 H54 C52 S2 N18 O20'
_cell_volume   1596.24666124
_cell_formula_units_Z   1
loop_
 _symmetry_equiv_pos_site_id
 _symmetry_equiv_pos_as_xyz
  1  'x, y, z'
loop_
 _atom_site_type_symbol
 _atom_site_label
 _atom_site_symmetry_multiplicity
 _atom_site_fract_x
 _atom_site_fract_y
 _atom_site_fract_z
 _atom_site_occupancy
 _atom_site_hle17_bader_spin_density
 _atom_site_hle17_ddec_charge
 _atom_site_hle17_ddec_spin_density
 _atom_site_hle17_ddec_sum_bond_order
 _atom_site_hle17_magmom
 _atom_site_hse06_10hf_bader_spin_density
 _atom_site_hse06_10hf_ddec_charge
 _atom_site_hse06_10hf_ddec_spin_density
 _atom_site_hse06_10hf_ddec_sum_bond_order
 _atom_site_hse06_10hf_magmom
 _atom_site_hse06_bader_spin_density
 _atom_site_hse06_ddec_charge
 _atom_site_hse06_ddec_spin_density
 _atom_site_hse06_ddec_sum_bond_order
 _atom_site_hse06_magmom
 _atom_site_pbe_bader_charge
 _atom_site_pbe_bader_spin_density
 _atom_site_pbe_cm5_charge
 _atom_site_pbe_ddec_charge
 _atom_site_pbe_ddec_spin_density
 _atom_site_pbe_ddec_sum_bond_order
 _atom_site_pbe_magmom
Cd  Cd0  1  0.51657222  0.69123829  0.85244554  1  0  1.126648  0  1.696648  0  0  0.942556  0  2.134091  0  0  1.000128  0  2.082385  0  1.278466  0  0.770938  0.898476  0  2.171841  0
Cd  Cd1  1  0.48345211  0.30875320  0.14755806  1  0  1.126639  0  1.696592  0  0  0.942544  0  2.134032  0  0  1.00012  0  2.082325  0  1.278398  0  0.770945  0.898465  0  2.171778  0
Cd  Cd2  1  0.50000300  0.50001644  0.49998773  1  0  1.20207  0  1.618055  0  0  1.024166  0  2.052809  0  0  1.073049  0  2.003089  0  1.305454  0  0.793901  0.989044  0  2.087433  0
H  H3  1  0.94157463  0.17051822  0.26135716  1  0  0.105943  0  0.97319  0  0  0.117257  0  1.033013  0  0  0.120366  0  1.030875  0  0.077228  0  0.10494  0.114879  0  1.034816  0
H  H4  1  0.05838587  0.82948207  0.73863802  1  0  0.106017  0  0.973121  0  0  0.117253  0  1.033045  0  0  0.12036  0  1.030909  0  0.077856  0  0.104955  0.114888  0  1.034827  0
H  H5  1  0.11535186  0.10542062  0.16266320  1  0  0.093861  0  0.957403  0  0  0.106152  0  1.015946  0  0  0.10795  0  1.016443  0  0.071582  0  0.101  0.104812  0  1.015715  0
H  H6  1  0.88460789  0.89458673  0.83732305  1  0  0.093808  0  0.957453  0  0  0.10607  0  1.016029  0  0  0.107867  0  1.016535  0  0.071181  0  0.100987  0.104734  0  1.015802  0
H  H7  1  0.04677476  0.74701548  0.42911160  1  0  0.10977  0  0.952876  0  0  0.119005  0  1.014007  0  0  0.12206  0  1.012215  0  0.120985  0  0.104078  0.116698  0  1.015465  0
H  H8  1  0.95322565  0.25299803  0.57091432  1  0  0.109797  0  0.952833  0  0  0.119093  0  1.013874  0  0  0.12215  0  1.012072  0  0.120885  0  0.10408  0.116785  0  1.015337  0
H  H9  1  0.88151918  0.81231831  0.52785111  1  0  0.11113  0  0.938835  0  0  0.122814  0  0.994439  0  0  0.125857  0  0.99298  0  0.119815  0  0.107872  0.120686  0  0.995369  0
H  H10  1  0.11849122  0.18769873  0.47218024  1  0  0.111193  0  0.938729  0  0  0.122742  0  0.994478  0  0  0.12579  0  0.99301  0  0.119958  0  0.107926  0.120623  0  0.995413  0
H  H11  1  0.83507237  0.06843488  0.50928344  1  0  0.099886  0  0.930932  0  0  0.116134  0  0.991977  0  0  0.116266  0  0.99304  0  0.099498  0  0.12093  0.116173  0  0.990585  0
H  H12  1  0.16491908  0.93157598  0.49072575  1  0  0.099927  0  0.930664  0  0  0.116184  0  0.991823  0  0  0.116316  0  0.992893  0  0.099728  0  0.120968  0.116221  0  0.990436  0
H  H13  1  0.74924354  0.12100250  0.39130439  1  0  0.107506  0  0.902889  0  0  0.124939  0  0.960686  0  0  0.126048  0  0.95855  0  0.10073  0  0.124457  0.124131  0  0.961787  0
H  H14  1  0.25074303  0.87901012  0.60870659  1  0  0.107452  0  0.902818  0  0  0.124961  0  0.960653  0  0  0.126073  0  0.95851  0  0.100751  0  0.124524  0.12415  0  0.961761  0
H  H15  1  0.13649018  0.81945263  0.20396385  1  0  0.095616  0  0.921726  0  0  0.112418  0  0.980823  0  0  0.112572  0  0.981616  0  0.089945  0  0.120264  0.112239  0  0.980329  0
H  H16  1  0.86347316  0.18054415  0.79605647  1  0  0.095739  0  0.921552  0  0  0.112428  0  0.980699  0  0  0.112582  0  0.981481  0  0.089811  0  0.120243  0.112247  0  0.980213  0
H  H17  1  0.22905453  0.95387382  0.14255605  1  0  0.100965  0  0.91534  0  0  0.111283  0  0.984355  0  0  0.112842  0  0.983051  0  0.109464  0  0.119012  0.110166  0  0.985288  0
H  H18  1  0.77089518  0.04612824  0.85743712  1  0  0.101085  0  0.915178  0  0  0.111234  0  0.984295  0  0  0.112793  0  0.982984  0  0.109874  0  0.119047  0.110134  0  0.985218  0
H  H19  1  0.71484719  0.91683965  0.68884021  1  0  0.110648  0  0.939783  0  0  0.114333  0  1.014194  0  0  0.117362  0  1.009893  0  0.183192  0  0.1419  0.112216  0  1.016814  0
H  H20  1  0.28515397  0.08316682  0.31117302  1  0  0.110453  0  0.939872  0  0  0.114242  0  1.014203  0  0  0.117176  0  1.010007  0  0.183422  0  0.14183  0.112143  0  1.016811  0
H  H21  1  0.46579022  0.76983386  0.56514549  1  0  0.099395  0  0.935134  0  0  0.109977  0  0.994656  0  0  0.112178  0  0.991914  0  0.164976  0  0.135705  0.108256  0  0.99682  0
H  H22  1  0.53419449  0.23018229  0.43486981  1  0  0.099537  0  0.935044  0  0  0.109906  0  0.994802  0  0  0.112105  0  0.992068  0  0.164708  0  0.135687  0.108188  0  0.996965  0
H  H23  1  0.56233314  0.79716712  0.38299408  1  0  0.096678  0  0.949997  0  0  0.103259  0  1.018202  0  0  0.105501  0  1.015736  0  0.169138  0  0.135324  0.101621  0  1.019969  0
H  H24  1  0.43763529  0.20289307  0.61699601  1  0  0.096719  0  0.950045  0  0  0.103299  0  1.018252  0  0  0.105544  0  1.015791  0  0.172753  0  0.135332  0.101663  0  1.020022  0
H  H25  1  0.24560067  0.63663783  0.33125763  1  0  0.124797  0  0.965748  0  0  0.132182  0  1.033937  0  0  0.135422  0  1.029276  0  0.218145  0  0.143182  0.129641  0  1.037452  0
H  H26  1  0.75440769  0.36337744  0.66873217  1  0  0.124714  0  0.965711  0  0  0.132062  0  1.033952  0  0  0.135304  0  1.029287  0  0.218239  0  0.143149  0.129522  0  1.037466  0
H  H27  1  0.12046947  0.85876803  0.95255432  1  0  0.093582  0  0.961046  0  0  0.103657  0  1.023839  0  0  0.105278  0  1.024654  0  0.088513  0  0.101078  0.102508  0  1.023161  0
H  H28  1  0.87950817  0.14121377  0.04743554  1  0  0.093509  0  0.960973  0  0  0.103462  0  1.023929  0  0  0.105093  0  1.024712  0  0.088839  0  0.100943  0.102312  0  1.023252  0
H  H29  1  0.93247342  0.78808451  0.10114683  1  0  0.092004  0  0.980111  0  0  0.102159  0  1.043115  0  0  0.103476  0  1.044453  0  0.089241  0  0.097733  0.101097  0  1.042418  0
H  H30  1  0.06750341  0.21190257  0.89884573  1  0  0.092046  0  0.98005  0  0  0.102184  0  1.043059  0  0  0.103493  0  1.044414  0  0.089467  0  0.097731  0.101123  0  1.042361  0
H  H31  1  0.18783809  0.09406295  0.74510792  1  0  0.094894  0  0.933211  0  0  0.10941  0  0.998546  0  0  0.109094  0  0.999763  0  0.103695  0  0.119105  0.109485  0  0.997078  0
H  H32  1  0.81216442  0.90592501  0.25489131  1  0  0.094953  0  0.933162  0  0  0.109473  0  0.99843  0  0  0.109163  0  0.999654  0  0.103823  0  0.119163  0.109542  0  0.996968  0
H  H33  1  0.25598626  0.17220756  0.80314762  1  0  0.09797  0  0.896138  0  0  0.115728  0  0.951447  0  0  0.116691  0  0.949156  0  0.074032  0  0.120522  0.11481  0  0.952651  0
H  H34  1  0.74399856  0.82778217  0.19685455  1  0  0.097956  0  0.896141  0  0  0.115623  0  0.95152  0  0  0.116576  0  0.949242  0  0.073814  0  0.120505  0.114707  0  0.952714  0
H  H35  1  0.54203133  0.85697123  0.00519596  1  0  0.098807  0  0.922211  0  0  0.10471  0  0.986739  0  0  0.107663  0  0.982735  0  0.137664  0  0.131606  0.102423  0  0.989738  0
H  H36  1  0.45795566  0.14302466  0.99482049  1  0  0.09878  0  0.922264  0  0  0.104701  0  0.986764  0  0  0.107656  0  0.98276  0  0.137804  0  0.131618  0.102414  0  0.989763  0
H  H37  1  0.33264954  0.93753446  0.73524010  1  0  0.105793  0  0.950013  0  0  0.10833  0  1.028275  0  0  0.111343  0  1.023355  0  0.179431  0  0.137524  0.10591  0  1.031427  0
H  H38  1  0.66736909  0.06246319  0.26475830  1  0  0.10589  0  0.950043  0  0  0.108318  0  1.02837  0  0  0.111366  0  1.023425  0  0.179243  0  0.137533  0.105898  0  1.031519  0
H  H39  1  0.00925111  0.67305017  0.85692934  1  0  0.115273  0  0.950265  0  0  0.123168  0  1.014746  0  0  0.127381  0  1.010727  0  0.124279  0  0.111534  0.120186  0  1.017629  0
H  H40  1  0.99077585  0.32690168  0.14307561  1  0  0.11531  0  0.950221  0  0  0.123237  0  1.014635  0  0  0.127453  0  1.010615  0  0.124404  0  0.111585  0.120254  0  1.017518  0
H  H41  1  0.18819969  0.55768731  0.15756023  1  0  0.106299  0  0.94641  0  0  0.115761  0  1.008602  0  0  0.120001  0  1.00445  0  0.112098  0  0.108525  0.112797  0  1.011457  0
H  H42  1  0.81182457  0.44230154  0.84243810  1  0  0.106176  0  0.946277  0  0  0.115637  0  1.008546  0  0  0.11988  0  1.00439  0  0.111633  0  0.108416  0.112668  0  1.011411  0
H  H43  1  0.76530336  0.56995658  0.16595907  1  0  0.099029  0  0.965506  0  0  0.108698  0  1.029856  0  0  0.112712  0  1.025937  0  0.093889  0  0.106555  0.105783  0  1.032695  0
H  H44  1  0.23472341  0.43001906  0.83404077  1  0  0.099089  0  0.96533  0  0  0.108704  0  1.029708  0  0  0.112752  0  1.025749  0  0.093525  0  0.106617  0.10579  0  1.032545  0
H  H45  1  0.59227320  0.47778731  0.87267142  1  0  0.43218  0  0.855216  0  0  0.401526  0  0.922283  0  0  0.412801  0  0.905708  0  0.622327  0  0.294874  0.393484  0  0.934139  0
H  H46  1  0.40776020  0.52220947  0.12731885  1  0  0.432076  0  0.855164  0  0  0.401285  0  0.922553  0  0  0.41255  0  0.905995  0  0.622512  0  0.29477  0.393245  0  0.934406  0
H  H47  1  0.44171845  0.46376704  0.88786709  1  0  0.427702  0  0.879012  0  0  0.394202  0  0.947162  0  0  0.4056  0  0.93074  0  0.654771  0  0.288264  0.386014  0  0.959033  0
H  H48  1  0.55831477  0.53622445  0.11212130  1  0  0.427948  0  0.87869  0  0  0.394365  0  0.946949  0  0  0.405761  0  0.93053  0  0.654474  0  0.288307  0.386178  0  0.958818  0
H  H49  1  0.54689516  0.46792080  0.29526381  1  0  0.434915  0  0.85289  0  0  0.405778  0  0.911943  0  0  0.416135  0  0.896793  0  0.644651  0  0.291424  0.398304  0  0.922928  0
H  H50  1  0.45311990  0.53208830  0.70472606  1  0  0.434986  0  0.852807  0  0  0.405881  0  0.911799  0  0  0.416232  0  0.896663  0  0.644467  0  0.291498  0.398406  0  0.922785  0
H  H51  1  0.68049430  0.47454956  0.34422812  1  0  0.425575  0  0.872913  0  0  0.393031  0  0.938946  0  0  0.403672  0  0.923316  0  0.624294  0  0.288609  0.385283  0  0.950294  0
H  H52  1  0.31952074  0.52545867  0.65576792  1  0  0.425647  0  0.872799  0  0  0.393072  0  0.938887  0  0  0.403716  0  0.923252  0  0.624492  0  0.288642  0.385319  0  0.950241  0
H  H53  1  0.77063807  0.57940383  0.43987709  1  0  0.433979  0  0.868125  0  0  0.40115  0  0.934196  0  0  0.412154  0  0.91809  0  0.652304  0  0.285778  0.393303  0  0.945638  0
H  H54  1  0.22937902  0.42060704  0.56010530  1  0  0.433948  0  0.868168  0  0  0.401023  0  0.934386  0  0  0.412053  0  0.918251  0  0.652762  0  0.285744  0.393154  0  0.945852  0
H  H55  1  0.75970371  0.56838351  0.55739428  1  0  0.432722  0  0.830541  0  0  0.411236  0  0.88673  0  0  0.42008  0  0.87389  0  0.609959  0  0.30707  0.404637  0  0.896404  0
H  H56  1  0.24028566  0.43165378  0.44258209  1  0  0.432746  0  0.830632  0  0  0.411198  0  0.886826  0  0  0.420042  0  0.873986  0  0.609723  0  0.307079  0.404596  0  0.896504  0
C  C57  1  0.89856809  0.99695104  0.39968535  1  0  0.062094  0  3.759818  0  0  0.080179  0  4.007186  0  0  0.079953  0  4.030109  0  -0.07334  0  -0.014128  0.080646  0  3.990403  0
C  C58  1  0.10141253  0.00306071  0.60032008  1  0  0.06161  0  3.760005  0  0  0.080022  0  4.007102  0  0  0.079749  0  4.030079  0  -0.073359  0  -0.014225  0.08051  0  3.990297  0
C  C59  1  0.96700392  0.07817984  0.29787568  1  0  -0.115557  0  3.734828  0  0  -0.136035  0  3.98001  0  0  -0.139565  0  4.002742  0  0.001504  0  -0.091431  -0.133567  0  3.964878  0
C  C60  1  0.03296854  0.92182398  0.70212762  1  0  -0.115556  0  3.734842  0  0  -0.136041  0  3.979971  0  0  -0.139553  0  4.002716  0  0.012044  0  -0.091438  -0.133591  0  3.964831  0
C  C61  1  0.06399854  0.04105758  0.24269080  1  0  -0.11552  0  3.773738  0  0  -0.131994  0  4.02011  0  0  -0.134607  0  4.043513  0  -0.057218  0  -0.092291  -0.130237  0  4.004412  0
C  C62  1  0.93597200  0.95894800  0.75730321  1  0  -0.115482  0  3.773897  0  0  -0.131879  0  4.020304  0  0  -0.134498  0  4.043707  0  -0.067132  0  -0.092265  -0.130132  0  4.004617  0
C  C63  1  0.09178907  0.92157560  0.28735830  1  0  0.050726  0  3.772941  0  0  0.066228  0  4.021392  0  0  0.064835  0  4.046346  0  -0.027734  0  -0.018996  0.067243  0  4.004377  0
C  C64  1  0.90818244  0.07842910  0.71264613  1  0  0.050643  0  3.773348  0  0  0.065966  0  4.02192  0  0  0.064573  0  4.046869  0  -0.028804  0  -0.019128  0.066983  0  4.004909  0
C  C65  1  0.02525499  0.84045572  0.39070355  1  0  -0.108058  0  3.729834  0  0  -0.126879  0  3.978129  0  0  -0.128508  0  3.998173  0  -0.061743  0  -0.090118  -0.125663  0  3.964656  0
C  C66  1  0.97473256  0.15955691  0.60931023  1  0  -0.108083  0  3.729858  0  0  -0.12691  0  3.978198  0  0  -0.128532  0  3.998236  0  -0.061753  0  -0.089998  -0.125692  0  3.964725  0
C  C67  1  0.93020852  0.87779905  0.44710310  1  0  -0.110344  0  3.735161  0  0  -0.133411  0  3.987656  0  0  -0.135186  0  4.007144  0  -0.081242  0  -0.089835  -0.131979  0  3.974087  0
C  C68  1  0.06977506  0.12221270  0.55291792  1  0  -0.110126  0  3.735148  0  0  -0.133166  0  3.987608  0  0  -0.134928  0  4.007096  0  -0.081635  0  -0.089883  -0.131765  0  3.974059  0
C  C69  1  0.79328142  0.04233648  0.45468294  1  0  -0.057063  0  3.640134  0  0  -0.136603  0  3.886106  0  0  -0.124951  0  3.900128  0  0.303717  0  -0.035248  -0.139139  0  3.879359  0
C  C70  1  0.20670620  0.95767791  0.54532571  1  0  -0.05666  0  3.639601  0  0  -0.136557  0  3.885786  0  0  -0.124864  0  3.899835  0  0.303285  0  -0.035371  -0.139117  0  3.879056  0
C  C71  1  0.18688623  0.88009965  0.22218882  1  0  -0.054442  0  3.651931  0  0  -0.135236  0  3.90366  0  0  -0.131251  0  3.914318  0  0.298514  0  -0.039386  -0.137703  0  3.896398  0
C  C72  1  0.81308620  0.11990329  0.77781417  1  0  -0.054484  0  3.652194  0  0  -0.13497  0  3.90357  0  0  -0.130963  0  3.9142  0  0.298446  0  -0.039305  -0.137456  0  3.896344  0
C  C73  1  0.66433641  0.89781126  0.63476260  1  0  0.193387  0  3.635732  0  0  0.113093  0  3.905253  0  0  0.137014  0  3.920134  0  1.018707  0  0.171854  0.10273  0  3.897965  0
C  C74  1  0.33565689  0.10219608  0.36525309  1  0  0.193907  0  3.635527  0  0  0.113452  0  3.905005  0  0  0.137483  0  3.919953  0  1.019386  0  0.172018  0.103053  0  3.897716  0
C  C75  1  0.53918544  0.82616594  0.56858215  1  0  0.20904  0  3.700203  0  0  0.155954  0  3.990638  0  0  0.169266  0  4.000768  0  0.973326  0  0.14778  0.147981  0  3.981382  0
C  C76  1  0.46079924  0.17384933  0.43143068  1  0  0.209034  0  3.700315  0  0  0.156098  0  3.990746  0  0  0.169412  0  4.000875  0  0.972361  0  0.147866  0.148118  0  3.9815  0
C  C77  1  0.47214719  0.78420027  0.35573419  1  0  0.199362  0  3.710668  0  0  0.146978  0  4.000294  0  0  0.158377  0  4.014124  0  0.962532  0  0.144591  0.1396  0  3.990577  0
C  C78  1  0.52782160  0.21584143  0.64426506  1  0  0.199138  0  3.710552  0  0  0.146761  0  4.000234  0  0  0.158159  0  4.01406  0  0.958897  0  0.144573  0.139381  0  3.990517  0
C  C79  1  0.31463321  0.69901294  0.33049517  1  0  0.169092  0  3.628068  0  0  0.094261  0  3.880809  0  0  0.108635  0  3.892881  0  0.98378  0  0.166813  0.085123  0  3.872414  0
C  C80  1  0.68536634  0.30100409  0.66949317  1  0  0.16934  0  3.628214  0  0  0.094444  0  3.880937  0  0  0.108829  0  3.893001  0  0.983824  0  0.166852  0.085306  0  3.87254  0
C  C81  1  0.10689761  0.04051678  0.91513540  1  0  0.070303  0  3.754842  0  0  0.088337  0  3.996756  0  0  0.088102  0  4.018274  0  -0.010539  0  -0.011534  0.088552  0  3.98089  0
C  C82  1  0.89309008  0.95947030  0.08485763  1  0  0.07  0  3.754919  0  0  0.087909  0  3.996961  0  0  0.087673  0  4.018503  0  -0.010368  0  -0.011696  0.088123  0  3.981095  0
C  C83  1  0.06825281  0.92128759  0.97307792  1  0  -0.10915  0  3.753952  0  0  -0.131974  0  4.005802  0  0  -0.133992  0  4.027723  0  -0.112451  0  -0.092446  -0.130352  0  3.990759  0
C  C84  1  0.93173096  0.07870038  0.02690930  1  0  -0.10885  0  3.753799  0  0  -0.131529  0  4.005591  0  0  -0.133544  0  4.027525  0  -0.112117  0  -0.09227  -0.129909  0  3.990549  0
C  C85  1  0.96195794  0.88118741  0.05696220  1  0  -0.120704  0  3.753853  0  0  -0.135961  0  3.994898  0  0  -0.139099  0  4.017926  0  -0.035187  0  -0.093215  -0.134011  0  3.979722  0
C  C86  1  0.03802876  0.11879967  0.94302948  1  0  -0.12103  0  3.753915  0  0  -0.136295  0  3.99491  0  0  -0.139435  0  4.017946  0  -0.035718  0  -0.093339  -0.134344  0  3.979732  0
C  C87  1  0.21941421  0.08518557  0.82185074  1  0  -0.052066  0  3.650939  0  0  -0.132463  0  3.902074  0  0  -0.118766  0  3.914195  0  0.306965  0  -0.036459  -0.135428  0  3.895693  0
C  C88  1  0.78058232  0.91480064  0.17815199  1  0  -0.051924  0  3.650898  0  0  -0.132189  0  3.901938  0  0  -0.1186  0  3.914  0  0.307227  0  -0.036431  -0.135143  0  3.895547  0
C  C89  1  0.47334111  0.89592463  0.94375602  1  0  0.212216  0  3.71087  0  0  0.158506  0  4.007109  0  0  0.171796  0  4.014898  0  0.984908  0  0.143102  0.150066  0  3.999845  0
C  C90  1  0.52665683  0.10407390  0.05625104  1  0  0.212307  0  3.710614  0  0  0.158575  0  4.00685  0  0  0.17186  0  4.014672  0  0.984687  0  0.143118  0.150134  0  3.99959  0
C  C91  1  0.36900737  0.93429231  0.80674983  1  0  0.177824  0  3.661466  0  0  0.098794  0  3.937872  0  0  0.123613  0  3.951543  0  0.994747  0  0.160143  0.088847  0  3.930543  0
C  C92  1  0.63099721  0.06569830  0.19325666  1  0  0.177716  0  3.661971  0  0  0.098828  0  3.93827  0  0  0.123488  0  3.951895  0  0.994824  0  0.160091  0.088882  0  3.93094  0
C  C93  1  0.87510401  0.62708664  0.00512158  1  0  -0.071207  0  3.760599  0  0  -0.043969  0  3.999167  0  0  -0.05418  0  4.022017  0  -0.016351  0  -0.019264  -0.037623  0  3.984216  0
C  C94  1  0.12491780  0.37288811  0.99487117  1  0  -0.071026  0  3.760782  0  0  -0.04373  0  3.999289  0  0  -0.053943  0  4.022158  0  -0.009206  0  -0.019279  -0.037383  0  3.984334  0
C  C95  1  0.00036226  0.64437196  0.94539383  1  0  -0.051777  0  3.672467  0  0  -0.091978  0  3.92428  0  0  -0.087519  0  3.94196  0  -0.06617  0  -0.06755  -0.094845  0  3.913327  0
C  C96  1  0.99966326  0.35559575  0.05460399  1  0  -0.051977  0  3.672989  0  0  -0.09235  0  3.924727  0  0  -0.087881  0  3.942384  0  -0.073445  0  -0.06769  -0.095219  0  3.913773  0
C  C97  1  0.11319667  0.62083310  0.99975709  1  0  -0.067692  0  3.756879  0  0  -0.039476  0  3.993225  0  0  -0.049299  0  4.015572  0  0.084704  0  -0.016921  -0.033571  0  3.978964  0
C  C98  1  0.88682879  0.37913284  0.00024514  1  0  -0.067841  0  3.757063  0  0  -0.039112  0  3.992773  0  0  -0.048935  0  4.015131  0  0.085647  0  -0.016815  -0.033207  0  3.978508  0
C  C99  1  0.10055472  0.57640830  0.11501333  1  0  -0.03895  0  3.693914  0  0  -0.080379  0  3.944671  0  0  -0.074914  0  3.960171  0  -0.115704  0  -0.071085  -0.08322  0  3.933795  0
C  C100  1  0.89947004  0.42356646  0.88498565  1  0  -0.038847  0  3.693772  0  0  -0.080456  0  3.944491  0  0  -0.074996  0  3.959994  0  -0.114311  0  -0.070976  -0.0833  0  3.933615  0
C  C101  1  0.97571996  0.55647976  0.17483614  1  0  -0.12426  0  3.747467  0  0  -0.093256  0  3.997523  0  0  -0.102348  0  4.0188  0  -0.139669  0  -0.018764  -0.087679  0  3.983287  0
C  C102  1  0.02430238  0.44351085  0.82516083  1  0  -0.123963  0  3.747291  0  0  -0.093006  0  3.997395  0  0  -0.102094  0  4.018679  0  -0.13991  0  -0.018737  -0.087424  0  3.983144  0
C  C103  1  0.86307179  0.58257288  0.12033166  1  0  -0.04826  0  3.705705  0  0  -0.089409  0  3.956715  0  0  -0.084232  0  3.972739  0  -0.006662  0  -0.074994  -0.092024  0  3.945572  0
C  C104  1  0.13695130  0.41741068  0.87966199  1  0  -0.048584  0  3.705868  0  0  -0.08964  0  3.956853  0  0  -0.08449  0  3.972859  0  -0.00715  0  -0.075114  -0.092258  0  3.945709  0
C  C105  1  0.75364043  0.65418914  0.94731259  1  0  0.634709  0  3.934603  0  0  0.583272  0  4.227084  0  0  0.617099  0  4.222044  0  1.551221  0  0.192967  0.560372  0  4.229467  0
C  C106  1  0.24638787  0.34577328  0.05267514  1  0  0.634681  0  3.934433  0  0  0.583205  0  4.22696  0  0  0.617033  0  4.221919  0  1.549946  0  0.192941  0.560303  0  4.229347  0
C  C107  1  0.24794735  0.64271521  0.93618678  1  0  0.63217  0  3.937831  0  0  0.582101  0  4.228358  0  0  0.615423  0  4.224491  0  1.524282  0  0.189868  0.559449  0  4.230167  0
C  C108  1  0.75207370  0.35726659  0.06381290  1  0  0.632105  0  3.937716  0  0  0.581844  0  4.228339  0  0  0.615165  0  4.224482  0  1.523431  0  0.189745  0.559194  0  4.230142  0
S  S109  1  0.96073172  0.49424293  0.32255729  1  0  1.306562  0  5.679684  0  0  1.20902  0  6.2067  0  0  1.25744  0  6.182314  0  3.152517  0  0.503294  1.175399  0  6.222575  0
S  S110  1  0.03929578  0.50575473  0.67743599  1  0  1.306241  0  5.679942  0  0  1.208647  0  6.207022  0  0  1.257079  0  6.182648  0  3.1533  0  0.503244  1.175018  0  6.222886  0
N  N111  1  0.68989063  0.95398304  0.52359639  1  0  0.040995  0  3.590924  0  0  0.160666  0  3.780251  0  0  0.123575  0  3.841549  0  -0.854802  0  -0.1341  0.166858  0  3.765804  0
N  N112  1  0.31009214  0.04603399  0.47641652  1  0  0.040317  0  3.591033  0  0  0.160221  0  3.780366  0  0  0.123039  0  3.841721  0  -0.854025  0  -0.134316  0.166498  0  3.765772  0
N  N113  1  0.61111506  0.90933363  0.47925776  1  0  -0.288295  0  2.863437  0  0  -0.29125  0  3.143631  0  0  -0.293064  0  3.16488  0  -0.713308  0  -0.22389  -0.284689  0  3.133532  0
N  N114  1  0.38886283  0.09068516  0.52075766  1  0  -0.28825  0  2.863457  0  0  -0.291222  0  3.143501  0  0  -0.293006  0  3.164765  0  -0.712646  0  -0.223848  -0.28468  0  3.133404  0
N  N115  1  0.56893905  0.81625275  0.66590601  1  0  -0.410867  0  3.208936  0  0  -0.335591  0  3.497426  0  0  -0.35902  0  3.50845  0  -1.193112  0  -0.350591  -0.318634  0  3.486695  0
N  N116  1  0.43105326  0.18375459  0.33410904  1  0  -0.410844  0  3.208982  0  0  -0.335524  0  3.497404  0  0  -0.358946  0  3.508391  0  -1.19367  0  -0.350514  -0.318573  0  3.486692  0
N  N117  1  0.29599504  0.81537461  0.28251879  1  0  0.057363  0  3.563753  0  0  0.176813  0  3.752505  0  0  0.16675  0  3.775543  0  -0.836421  0  -0.126714  0.182547  0  3.738397  0
N  N118  1  0.70398477  0.18464242  0.71747276  1  0  0.056964  0  3.564443  0  0  0.176713  0  3.752703  0  0  0.166591  0  3.77584  0  -0.836  0  -0.12666  0.182447  0  3.738604  0
N  N119  1  0.39468568  0.87137552  0.29820260  1  0  -0.258641  0  2.843386  0  0  -0.262614  0  3.115411  0  0  -0.270627  0  3.130252  0  -0.672245  0  -0.217933  -0.257001  0  3.105248  0
N  N120  1  0.60527483  0.12865473  0.70179399  1  0  -0.258248  0  2.843046  0  0  -0.262338  0  3.115013  0  0  -0.270336  0  3.129856  0  -0.673261  0  -0.217802  -0.256723  0  3.10485  0
N  N121  1  0.42671849  0.67643766  0.37750699  1  0  -0.434872  0  3.23579  0  0  -0.353992  0  3.523105  0  0  -0.378527  0  3.538002  0  -1.225726  0  -0.356354  -0.337218  0  3.512333  0
N  N122  1  0.57327671  0.32359699  0.62248520  1  0  -0.43499  0  3.235502  0  0  -0.354118  0  3.522864  0  0  -0.378649  0  3.537746  0  -1.225349  0  -0.356546  -0.337345  0  3.512096  0
N  N123  1  0.32757696  0.00397849  0.84995056  1  0  0.031033  0  3.600675  0  0  0.150789  0  3.78943  0  0  0.111669  0  3.849383  0  -0.816361  0  -0.139995  0.158203  0  3.772595  0
N  N124  1  0.67241760  0.99600772  0.15005956  1  0  0.030685  0  3.601477  0  0  0.15051  0  3.790036  0  0  0.111753  0  3.849606  0  -0.816517  0  -0.140122  0.157921  0  3.773201  0
N  N125  1  0.39290043  0.98061256  0.93817737  1  0  -0.283987  0  2.863931  0  0  -0.285149  0  3.137898  0  0  -0.284908  0  3.157107  0  -0.680366  0  -0.225631  -0.279481  0  3.128743  0
N  N126  1  0.60708734  0.01937717  0.06183535  1  0  -0.283922  0  2.864058  0  0  -0.285082  0  3.137968  0  0  -0.284965  0  3.157119  0  -0.680317  0  -0.225559  -0.279415  0  3.128818  0
N  N127  1  0.46162716  0.86446932  0.86452705  1  0  -0.423299  0  3.197896  0  0  -0.35683  0  3.489149  0  0  -0.379513  0  3.500587  0  -1.22062  0  -0.350523  -0.341119  0  3.478613  0
N  N128  1  0.53838265  0.13553010  0.13547999  1  0  -0.423224  0  3.197908  0  0  -0.356777  0  3.489162  0  0  -0.379464  0  3.500648  0  -1.220292  0  -0.350473  -0.341063  0  3.478624  0
O  O129  1  0.76297715  0.68601526  0.84483056  1  0  -0.613358  0  1.911658  0  0  -0.558526  0  2.140109  0  0  -0.585174  0  2.13283  0  -1.161551  0  -0.325131  -0.539187  0  2.144027  0
O  O130  1  0.23702901  0.31390488  0.15516410  1  0  -0.613435  0  1.911437  0  0  -0.558653  0  2.14005  0  0  -0.585289  0  2.132734  0  -1.160806  0  -0.325224  -0.539319  0  2.143981  0
O  O131  1  0.64174922  0.64504928  0.00543351  1  0  -0.675779  0  2.033095  0  0  -0.604064  0  2.266083  0  0  -0.633098  0  2.255159  0  -1.189109  0  -0.337325  -0.582612  0  2.273651  0
O  O132  1  0.35829028  0.35495278  0.99455019  1  0  -0.675507  0  2.032926  0  0  -0.603894  0  2.26604  0  0  -0.63294  0  2.255127  0  -1.188777  0  -0.337154  -0.582434  0  2.273597  0
O  O133  1  0.26286135  0.69932210  0.83123349  1  0  -0.624717  0  1.887449  0  0  -0.574532  0  2.113683  0  0  -0.59962  0  2.105992  0  -1.144157  0  -0.332227  -0.556259  0  2.117979  0
O  O134  1  0.73716107  0.30067116  0.16876587  1  0  -0.624631  0  1.887404  0  0  -0.574414  0  2.113669  0  0  -0.599504  0  2.105986  0  -1.144097  0  -0.332204  -0.556134  0  2.117945  0
O  O135  1  0.34577083  0.60324744  0.99426708  1  0  -0.682717  0  2.059255  0  0  -0.608453  0  2.301255  0  0  -0.640054  0  2.292638  0  -1.178029  0  -0.336195  -0.585354  0  2.307532  0
O  O136  1  0.65425139  0.39673965  0.00573296  1  0  -0.68259  0  2.05914  0  0  -0.608363  0  2.301257  0  0  -0.639971  0  2.292653  0  -1.17768  0  -0.336077  -0.585266  0  2.307528  0
O  O137  1  0.95622266  0.36685653  0.36932837  1  0  -0.637739  0  1.892226  0  0  -0.595228  0  2.122727  0  0  -0.615829  0  2.109675  0  -1.288098  0  -0.346902  -0.580442  0  2.131138  0
O  O138  1  0.04383436  0.63313849  0.63067430  1  0  -0.63774  0  1.892198  0  0  -0.595219  0  2.122701  0  0  -0.615817  0  2.109647  0  -1.288526  0  -0.346981  -0.580435  0  2.13111  0
O  O139  1  0.07410847  0.54066446  0.34706311  1  0  -0.69006  0  1.921324  0  0  -0.646817  0  2.166424  0  0  -0.667102  0  2.149753  0  -1.346018  0  -0.359119  -0.632111  0  2.177531  0
O  O140  1  0.92591442  0.45934288  0.65292975  1  0  -0.689923  0  1.921426  0  0  -0.646651  0  2.166525  0  0  -0.666935  0  2.14986  0  -1.346214  0  -0.359055  -0.631933  0  2.177605  0
O  O141  1  0.83232949  0.54052354  0.34697482  1  0  -0.727737  0  2.01338  0  0  -0.66004  0  2.250607  0  0  -0.682308  0  2.232607  0  -1.349423  0  -0.351249  -0.643792  0  2.262389  0
O  O142  1  0.16769139  0.45945298  0.65302658  1  0  -0.727647  0  2.013455  0  0  -0.65985  0  2.250642  0  0  -0.682152  0  2.232673  0  -1.349586  0  -0.351214  -0.643579  0  2.262402  0
O  O143  1  0.51574351  0.51663589  0.83183705  1  0  -0.832534  0  1.838896  0  0  -0.76378  0  2.016689  0  0  -0.787098  0  1.981682  0  -1.245509  0  -0.572411  -0.747537  0  2.041682  0
O  O144  1  0.48428872  0.48335560  0.16815431  1  0  -0.83257  0  1.838532  0  0  -0.7636  0  2.016809  0  0  -0.786926  0  1.981829  0  -1.245291  0  -0.572301  -0.747359  0  2.041799  0
O  O145  1  0.58692615  0.44630469  0.36401138  1  0  -0.848222  0  1.835355  0  0  -0.78711  0  2.016843  0  0  -0.808824  0  1.983746  0  -1.248114  0  -0.587037  -0.771462  0  2.040285  0
O  O146  1  0.41307897  0.55373172  0.63597767  1  0  -0.848298  0  1.835119  0  0  -0.787211  0  2.016624  0  0  -0.808923  0  1.983522  0  -1.248105  0  -0.587099  -0.77157  0  2.040095  0
O  O147  1  0.70965014  0.59376143  0.49394882  1  0  -0.843594  0  1.761706  0  0  -0.784867  0  1.932998  0  0  -0.805452  0  1.902428  0  -1.241886  0  -0.590135  -0.770162  0  1.954858  0
O  O148  1  0.29036079  0.40627145  0.50601538  1  0  -0.843617  0  1.761726  0  0  -0.78477  0  1.933098  0  0  -0.805377  0  1.902476  0  -1.242115  0  -0.590152  -0.770043  0  1.955002  0
