# generated using pymatgen
data_Zn2H6C4N8O7
_symmetry_space_group_name_H-M   'P 1'
_cell_length_a   8.06011268
_cell_length_b   9.05156647
_cell_length_c   9.80627753
_cell_angle_alpha   77.45500838
_cell_angle_beta   68.46299796
_cell_angle_gamma   66.68985859
_symmetry_Int_Tables_number   1
_chemical_formula_structural   Zn2H6C4N8O7
_chemical_formula_sum   'Zn4 H12 C8 N16 O14'
_cell_volume   608.99191527
_cell_formula_units_Z   2
loop_
 _symmetry_equiv_pos_site_id
 _symmetry_equiv_pos_as_xyz
  1  'x, y, z'
loop_
 _atom_site_type_symbol
 _atom_site_label
 _atom_site_symmetry_multiplicity
 _atom_site_fract_x
 _atom_site_fract_y
 _atom_site_fract_z
 _atom_site_occupancy
 _atom_site_hle17_bader_spin_density
 _atom_site_hle17_ddec_charge
 _atom_site_hle17_ddec_spin_density
 _atom_site_hle17_ddec_sum_bond_order
 _atom_site_hle17_magmom
 _atom_site_hse06_10hf_bader_spin_density
 _atom_site_hse06_10hf_ddec_charge
 _atom_site_hse06_10hf_ddec_spin_density
 _atom_site_hse06_10hf_ddec_sum_bond_order
 _atom_site_hse06_10hf_magmom
 _atom_site_hse06_bader_spin_density
 _atom_site_hse06_ddec_charge
 _atom_site_hse06_ddec_spin_density
 _atom_site_hse06_ddec_sum_bond_order
 _atom_site_hse06_magmom
 _atom_site_pbe_bader_spin_density
 _atom_site_pbe_cm5_charge
 _atom_site_pbe_ddec_charge
 _atom_site_pbe_ddec_spin_density
 _atom_site_pbe_ddec_sum_bond_order
 _atom_site_pbe_magmom
Zn  Zn0  1  0.17200127  0.98803076  0.08234617  1  0  0.923358  0  1.956861  0  0  0.720727  0  2.441038  0  0  0.762217  0  2.393665  0  0  0.734538  0.691225  0  2.473991  0
Zn  Zn1  1  0.82799825  0.01196856  0.91765382  1  0  0.923393  0  1.956796  0  0  0.720764  0  2.440967  0  0  0.762257  0  2.393592  0  0  0.734555  0.691265  0  2.473913  0
Zn  Zn2  1  0.60450891  0.62923772  0.52337279  1  0  0.954239  0  1.907577  0  0  0.764835  0  2.361342  0  0  0.808552  0  2.314313  0  0  0.707723  0.73375  0  2.39417  0
Zn  Zn3  1  0.39549195  0.37076160  0.47662681  1  0  0.954192  0  1.907628  0  0  0.764782  0  2.361396  0  0  0.808504  0  2.314363  0  0  0.707716  0.733696  0  2.394227  0
H  H4  1  0.13721399  0.82553841  0.63419044  1  0  0.102609  0  0.958497  0  0  0.106943  0  1.03117  0  0  0.109757  0  1.026944  0  0  0.135259  0.104756  0  1.034415  0
H  H5  1  0.86278554  0.17446090  0.36580854  1  0  0.10261  0  0.958549  0  0  0.106947  0  1.03121  0  0  0.109761  0  1.026985  0  0  0.135252  0.104758  0  1.034458  0
H  H6  1  0.53746826  0.76106663  0.84267080  1  0  0.098197  0  0.975428  0  0  0.097771  0  1.056058  0  0  0.101376  0  1.051022  0  0  0.129453  0.095106  0  1.059748  0
H  H7  1  0.46252994  0.23893268  0.15732858  1  0  0.098218  0  0.975403  0  0  0.097812  0  1.05602  0  0  0.101418  0  1.050985  0  0  0.12946  0.095149  0  1.059705  0
H  H8  1  0.21940453  0.61736858  0.21264452  1  0  0.107877  0  0.908022  0  0  0.123251  0  0.959815  0  0  0.12527  0  0.957323  0  0  0.145834  0.121601  0  0.961924  0
H  H9  1  0.78059499  0.38263075  0.78735650  1  0  0.107871  0  0.90801  0  0  0.123259  0  0.959784  0  0  0.12528  0  0.957289  0  0  0.145835  0.121608  0  0.961888  0
H  H10  1  0.42589844  0.93650078  0.29884851  1  0  0.101792  0  0.921101  0  0  0.114348  0  0.978854  0  0  0.115921  0  0.977117  0  0  0.14184  0.113183  0  0.980083  0
H  H11  1  0.57410192  0.06349975  0.70115201  1  0  0.101789  0  0.92113  0  0  0.114343  0  0.978884  0  0  0.115916  0  0.977146  0  0  0.141842  0.113179  0  0.980115  0
H  H12  1  0.85282323  0.57223394  0.24630249  1  0  0.418357  0  0.881783  0  0  0.385568  0  0.94872  0  0  0.396514  0  0.932719  0  0  0.289364  0.377777  0  0.960098  0
H  H13  1  0.14718029  0.42776538  0.75369733  1  0  0.418313  0  0.881852  0  0  0.385538  0  0.948769  0  0  0.396484  0  0.932768  0  0  0.289379  0.377745  0  0.960147  0
H  H14  1  0.95822871  0.44468296  0.35700269  1  0  0.416903  0  0.88592  0  0  0.381935  0  0.956372  0  0  0.393182  0  0.939911  0  0  0.287679  0.373972  0  0.968001  0
H  H15  1  0.04177481  0.55531636  0.64299815  1  0  0.416789  0  0.886046  0  0  0.381802  0  0.956517  0  0  0.393049  0  0.940056  0  0  0.287651  0.373842  0  0.968139  0
C  C16  1  0.20393521  0.83045236  0.71037404  1  0  0.250744  0  3.664577  0  0  0.184834  0  3.944247  0  0  0.200806  0  3.954211  0  0  0.155465  0.174235  0  3.93761  0
C  C17  1  0.79606417  0.16955059  0.28962527  1  0  0.250663  0  3.664588  0  0  0.184774  0  3.944254  0  0  0.200743  0  3.954223  0  0  0.155462  0.174179  0  3.937616  0
C  C18  1  0.40655542  0.79835091  0.81582357  1  0  0.229761  0  3.673125  0  0  0.172291  0  3.941301  0  0  0.186327  0  3.953726  0  0  0.148745  0.163061  0  3.932745  0
C  C19  1  0.59344495  0.20164961  0.18417593  1  0  0.229717  0  3.673099  0  0  0.172225  0  3.941279  0  0  0.186261  0  3.953705  0  0  0.148747  0.162996  0  3.932716  0
C  C20  1  0.28555822  0.66960228  0.25858604  1  0  0.225944  0  3.669374  0  0  0.164175  0  3.940639  0  0  0.177728  0  3.953771  0  0  0.153314  0.154996  0  3.932011  0
C  C21  1  0.71444263  0.33039705  0.74141458  1  0  0.225938  0  3.669317  0  0  0.164169  0  3.940587  0  0  0.177718  0  3.953722  0  0  0.153331  0.154992  0  3.931952  0
C  C22  1  0.39008811  0.83209075  0.30203124  1  0  0.236594  0  3.664938  0  0  0.174458  0  3.937035  0  0  0.188423  0  3.950727  0  0  0.153541  0.16546  0  3.927541  0
C  C23  1  0.60991324  0.16790736  0.69796846  1  0  0.236554  0  3.664852  0  0  0.174424  0  3.936949  0  0  0.188389  0  3.950638  0  0  0.153529  0.165425  0  3.92746  0
N  N24  1  0.39108533  0.76092526  0.69615162  1  0  -0.418976  0  3.243029  0  0  -0.340577  0  3.535214  0  0  -0.364027  0  3.548025  0  0  -0.348867  -0.324469  0  3.526327  0
N  N25  1  0.60891370  0.23907526  0.30384828  1  0  -0.418904  0  3.243045  0  0  -0.340518  0  3.535238  0  0  -0.363969  0  3.548053  0  0  -0.348861  -0.324408  0  3.526348  0
N  N26  1  0.10776848  0.90797420  0.83204580  1  0  -0.280424  0  3.251299  0  0  -0.205777  0  3.552636  0  0  -0.223037  0  3.564854  0  0  -0.264855  -0.194318  0  3.544151  0
N  N27  1  0.89223190  0.09202632  0.16795166  1  0  -0.280375  0  3.251288  0  0  -0.205748  0  3.552634  0  0  -0.223008  0  3.564854  0  0  -0.264867  -0.194291  0  3.544154  0
N  N28  1  0.23798502  0.88773210  0.89992638  1  0  -0.286434  0  3.261227  0  0  -0.212039  0  3.562457  0  0  -0.228988  0  3.575058  0  0  -0.264922  -0.200145  0  3.553617  0
N  N29  1  0.76201450  0.11226722  0.10007362  1  0  -0.286429  0  3.26124  0  0  -0.212022  0  3.562482  0  0  -0.228972  0  3.575084  0  0  -0.264913  -0.20013  0  3.553642  0
N  N30  1  0.29523159  0.81986767  0.21848414  1  0  -0.422939  0  3.275235  0  0  -0.337754  0  3.586747  0  0  -0.360403  0  3.596272  0  0  -0.363243  -0.322167  0  3.58006  0
N  N31  1  0.70476743  0.18013287  0.78151678  1  0  -0.422895  0  3.275104  0  0  -0.337733  0  3.586647  0  0  -0.360383  0  3.596173  0  0  -0.363255  -0.322153  0  3.579971  0
N  N32  1  0.36920806  0.59369369  0.36082201  1  0  -0.25053  0  3.197897  0  0  -0.18374  0  3.487049  0  0  -0.199774  0  3.502675  0  0  -0.24413  -0.173092  0  3.476559  0
N  N33  1  0.63079413  0.40630562  0.63917719  1  0  -0.250524  0  3.19793  0  0  -0.183738  0  3.487089  0  0  -0.199772  0  3.502717  0  0  -0.244136  -0.173091  0  3.476596  0
N  N34  1  0.43644974  0.69757510  0.38847378  1  0  -0.257095  0  3.186528  0  0  -0.185987  0  3.471811  0  0  -0.202415  0  3.48715  0  0  -0.244203  -0.174613  0  3.46145  0
N  N35  1  0.56355062  0.30242543  0.61152572  1  0  -0.25708  0  3.186573  0  0  -0.185971  0  3.471858  0  0  -0.202396  0  3.487196  0  0  -0.244188  -0.174591  0  3.461494  0
N  N36  1  0.22903338  0.28601813  0.98920992  1  0  0.698837  0  4.112542  0  0  0.739443  0  4.390722  0  0  0.76791  0  4.396948  0  0  0.10764  0.720178  0  4.386112  0
N  N37  1  0.77096482  0.71398118  0.01078946  1  0  0.698669  0  4.112595  0  0  0.739475  0  4.390543  0  0  0.767943  0  4.39677  0  0  0.107691  0.720215  0  4.385927  0
N  N38  1  0.82664585  0.79085750  0.51684489  1  0  0.682604  0  4.123447  0  0  0.706705  0  4.423512  0  0  0.734878  0  4.429844  0  0  0.096709  0.687765  0  4.418719  0
N  N39  1  0.17335367  0.20914183  0.48315612  1  0  0.68259  0  4.123466  0  0  0.706685  0  4.423537  0  0  0.734856  0  4.429873  0  0  0.096704  0.687757  0  4.418726  0
O  O40  1  0.28090269  0.15667639  0.07718901  1  0  -0.511637  0  1.839527  0  0  -0.476502  0  2.096878  0  0  -0.497406  0  2.084202  0  0  -0.218075  -0.461801  0  2.105332  0
O  O41  1  0.71909767  0.84332414  0.92281050  1  0  -0.511586  0  1.839527  0  0  -0.476511  0  2.096825  0  0  -0.497416  0  2.08415  0  0  -0.218099  -0.461813  0  2.105279  0
O  O42  1  0.14080297  0.28140559  0.90795398  1  0  -0.458556  0  1.783547  0  0  -0.449283  0  1.990958  0  0  -0.464896  0  1.983644  0  0  -0.171521  -0.438503  0  1.996016  0
O  O43  1  0.85919706  0.71859252  0.09204509  1  0  -0.458538  0  1.783527  0  0  -0.449324  0  1.990878  0  0  -0.464939  0  1.983563  0  0  -0.171553  -0.438546  0  1.995934  0
O  O44  1  0.27069008  0.40361054  0.98938522  1  0  -0.385377  0  1.710208  0  0  -0.388422  0  1.897464  0  0  -0.40022  0  1.893165  0  0  -0.158302  -0.380241  0  1.900418  0
O  O45  1  0.72930945  0.59638877  0.01061376  1  0  -0.385294  0  1.710215  0  0  -0.388416  0  1.897413  0  0  -0.400217  0  1.893116  0  0  -0.15831  -0.380239  0  1.900366  0
O  O46  1  0.83128471  0.65577522  0.59780245  1  0  -0.510571  0  1.823601  0  0  -0.473745  0  2.04947  0  0  -0.493776  0  2.041038  0  0  -0.194704  -0.459827  0  2.055259  0
O  O47  1  0.16871565  0.34422531  0.40219705  1  0  -0.510553  0  1.823529  0  0  -0.473721  0  2.0494  0  0  -0.493751  0  2.040971  0  0  -0.194684  -0.459807  0  2.055186  0
O  O48  1  0.71201711  0.84231696  0.44194237  1  0  -0.443309  0  1.785677  0  0  -0.423998  0  2.014387  0  0  -0.44046  0  2.008133  0  0  -0.179244  -0.41246  0  2.018359  0
O  O49  1  0.28798424  0.15768116  0.55805835  1  0  -0.443307  0  1.785685  0  0  -0.423987  0  2.014382  0  0  -0.440454  0  2.008141  0  0  -0.179242  -0.412451  0  2.018349  0
O  O50  1  0.92903068  0.86439581  0.51435251  1  0  -0.392504  0  1.781548  0  0  -0.387018  0  1.998009  0  0  -0.399773  0  1.994315  0  0  -0.149036  -0.378256  0  2.000603  0
O  O51  1  0.07096969  0.13560472  0.48564699  1  0  -0.39251  0  1.781631  0  0  -0.387029  0  1.998095  0  0  -0.399783  0  1.994402  0  0  -0.149054  -0.378278  0  2.000691  0
O  O52  1  0.83271889  0.50651984  0.34190966  1  0  -0.82947  0  1.94765  0  0  -0.772456  0  2.15725  0  0  -0.793692  0  2.123549  0  0  -0.586001  -0.757184  0  2.180672  0
O  O53  1  0.16728580  0.49348312  0.65809213  1  0  -0.829309  0  1.947803  0  0  -0.772262  0  2.15738  0  0  -0.793511  0  2.123708  0  0  -0.585989  -0.756994  0  2.180796  0
