# generated using pymatgen
data_CsH5C14N4O
_symmetry_space_group_name_H-M   'P 1'
_cell_length_a   8.36470521
_cell_length_b   9.72374737
_cell_length_c   18.44271787
_cell_angle_alpha   90.00013381
_cell_angle_beta   89.99993720
_cell_angle_gamma   108.90112646
_symmetry_Int_Tables_number   1
_chemical_formula_structural   CsH5C14N4O
_chemical_formula_sum   'Cs4 H20 C56 N16 O4'
_cell_volume   1419.17720803
_cell_formula_units_Z   4
loop_
 _symmetry_equiv_pos_site_id
 _symmetry_equiv_pos_as_xyz
  1  'x, y, z'
loop_
 _atom_site_type_symbol
 _atom_site_label
 _atom_site_symmetry_multiplicity
 _atom_site_fract_x
 _atom_site_fract_y
 _atom_site_fract_z
 _atom_site_occupancy
 _atom_site_hle17_bader_spin_density
 _atom_site_hle17_ddec_charge
 _atom_site_hle17_ddec_spin_density
 _atom_site_hle17_ddec_sum_bond_order
 _atom_site_hle17_magmom
 _atom_site_hse06_10hf_bader_charge
 _atom_site_hse06_10hf_bader_spin_density
 _atom_site_hse06_10hf_ddec_charge
 _atom_site_hse06_10hf_ddec_spin_density
 _atom_site_hse06_10hf_ddec_sum_bond_order
 _atom_site_hse06_10hf_magmom
 _atom_site_hse06_bader_spin_density
 _atom_site_hse06_ddec_charge
 _atom_site_hse06_ddec_spin_density
 _atom_site_hse06_ddec_sum_bond_order
 _atom_site_hse06_magmom
 _atom_site_pbe_bader_spin_density
 _atom_site_pbe_cm5_charge
 _atom_site_pbe_ddec_charge
 _atom_site_pbe_ddec_spin_density
 _atom_site_pbe_ddec_sum_bond_order
 _atom_site_pbe_magmom
Cs  Cs0  1  0.36443794  0.20991857  0.16606504  1  0  0.930884  0  0.550152  0  0.92158  0  0.874398  0  0.780679  0  0  0.887414  0  0.760544  0  0  0.920654  0.864893  0  0.794924  0
Cs  Cs1  1  0.13556135  0.79008367  0.66606334  1  0  0.930871  0  0.550162  0  0.921601  0  0.874383  0  0.780695  0  0  0.887396  0  0.760558  0  0  0.920652  0.864888  0  0.794942  0
Cs  Cs2  1  0.63555978  0.79008116  0.83393490  1  0  0.930885  0  0.550146  0  0.921613  0  0.874405  0  0.780671  0  0  0.887419  0  0.760534  0  0  0.920655  0.864912  0  0.794918  0
Cs  Cs3  1  0.86443835  0.20991824  0.33393551  1  0  0.930882  0  0.550159  0  0.921603  0  0.874402  0  0.780688  0  0  0.887417  0  0.760553  0  0  0.920678  0.864896  0  0.794933  0
H  H4  1  0.69059920  0.43510620  0.97589693  1  0  0.106622  0  0.952282  0  0.128833  0  0.113721  0  1.016845  0  0  0.116522  0  1.015218  0  0  0.108652  0.111715  0  1.018033  0
H  H5  1  0.80939998  0.56489706  0.47589801  1  0  0.106562  0  0.95232  0  0.128905  0  0.113656  0  1.016888  0  0  0.116454  0  1.015268  0  0  0.108617  0.111647  0  1.018085  0
H  H6  1  0.30939928  0.56489895  0.02410464  1  0  0.106572  0  0.952323  0  0.128888  0  0.113661  0  1.016904  0  0  0.116459  0  1.015282  0  0  0.108611  0.111655  0  1.01809  0
H  H7  1  0.19059572  0.43510373  0.52410031  1  0  0.106568  0  0.952272  0  0.128986  0  0.11367  0  1.016841  0  0  0.116471  0  1.015214  0  0  0.108615  0.11166  0  1.01804  0
H  H8  1  0.90708422  0.48169763  0.87712459  1  0  0.096637  0  0.952282  0  0.084781  0  0.106122  0  1.012608  0  0  0.108091  0  1.013584  0  0  0.103028  0.104711  0  1.012043  0
H  H9  1  0.59291426  0.51830303  0.37712572  1  0  0.096672  0  0.952288  0  0.085021  0  0.106152  0  1.012614  0  0  0.108122  0  1.01359  0  0  0.103047  0.104739  0  1.012049  0
H  H10  1  0.09291550  0.51830103  0.12287806  1  0  0.096682  0  0.95221  0  0.084957  0  0.106141  0  1.012563  0  0  0.10811  0  1.01354  0  0  0.103045  0.104728  0  1.011998  0
H  H11  1  0.40708066  0.48169557  0.62287314  1  0  0.096728  0  0.952217  0  0.074707  0  0.106189  0  1.012559  0  0  0.108158  0  1.013534  0  0  0.103063  0.104781  0  1.011994  0
H  H12  1  0.15305554  0.70901632  0.87840618  1  0  0.094819  0  0.958557  0  0.105193  0  0.103358  0  1.023731  0  0  0.106173  0  1.02191  0  0  0.109618  0.101392  0  1.02494  0
H  H13  1  0.34694397  0.29098465  0.37840744  1  0  0.094799  0  0.958621  0  0.105052  0  0.103349  0  1.023774  0  0  0.106164  0  1.021954  0  0  0.1096  0.101382  0  1.024982  0
H  H14  1  0.84694457  0.29098343  0.12159485  1  0  0.094827  0  0.958519  0  0.106123  0  0.103348  0  1.023719  0  0  0.106164  0  1.021897  0  0  0.109602  0.101381  0  1.024929  0
H  H15  1  0.65305135  0.70901180  0.62159250  1  0  0.094848  0  0.958617  0  0.105091  0  0.103396  0  1.02377  0  0  0.106212  0  1.02195  0  0  0.109597  0.10143  0  1.024978  0
H  H16  1  0.18737973  0.88804801  0.97865886  1  0  0.097277  0  0.960492  0  0.060565  0  0.106438  0  1.021181  0  0  0.108714  0  1.021294  0  0  0.104513  0.104826  0  1.021205  0
H  H17  1  0.31262171  0.11195232  0.47865884  1  0  0.097153  0  0.960479  0  0.06059  0  0.106308  0  1.021205  0  0  0.108584  0  1.021318  0  0  0.104443  0.104694  0  1.021228  0
H  H18  1  0.81262037  0.11195499  0.02134108  1  0  0.097128  0  0.960456  0  0.060606  0  0.106275  0  1.021189  0  0  0.108551  0  1.021302  0  0  0.10442  0.104662  0  1.021213  0
H  H19  1  0.68737722  0.88804417  0.52134111  1  0  0.097143  0  0.960492  0  0.060627  0  0.106298  0  1.02122  0  0  0.108575  0  1.021332  0  0  0.104424  0.104685  0  1.021241  0
H  H20  1  0.96935881  0.84489569  0.07471378  1  0  0.092143  0  0.964632  0  0.091489  0  0.100185  0  1.030338  0  0  0.102851  0  1.029069  0  0  0.10429  0.098311  0  1.031187  0
H  H21  1  0.53064352  0.15510699  0.57471406  1  0  0.092166  0  0.964643  0  0.091502  0  0.100168  0  1.030395  0  0  0.102834  0  1.029127  0  0  0.104289  0.098297  0  1.03124  0
H  H22  1  0.03064007  0.15511054  0.92528562  1  0  0.09213  0  0.964606  0  0.091556  0  0.100118  0  1.030379  0  0  0.102783  0  1.029111  0  0  0.104293  0.098248  0  1.031225  0
H  H23  1  0.46935739  0.84489493  0.42528534  1  0  0.092153  0  0.964626  0  0.091481  0  0.10017  0  1.030359  0  0  0.102836  0  1.02909  0  0  0.104294  0.098294  0  1.031207  0
C  C24  1  0.69037725  0.72408119  0.14382344  1  0  0.032599  0  3.721885  0  -0.0248  0  0.017768  0  3.971354  0  0  0.029169  0  3.986104  0  0  0.029064  0.010667  0  3.96091  0
C  C25  1  0.80962663  0.27591963  0.64382211  1  0  0.032535  0  3.722  0  -0.025558  0  0.017814  0  3.971375  0  0  0.029203  0  3.986149  0  0  0.029092  0.010712  0  3.96093  0
C  C26  1  0.30962487  0.27591750  0.85617867  1  0  0.032435  0  3.722072  0  -0.025325  0  0.017705  0  3.971413  0  0  0.029109  0  3.986169  0  0  0.029065  0.010608  0  3.960968  0
C  C27  1  0.19037708  0.72408015  0.35617621  1  0  0.032591  0  3.721929  0  -0.024859  0  0.017804  0  3.97138  0  0  0.029194  0  3.986143  0  0  0.029107  0.0107  0  3.960936  0
C  C28  1  0.68389841  0.60788781  0.08708498  1  0  0.390069  0  3.72193  0  0.938529  0  0.379614  0  3.97523  0  0  0.398846  0  3.979015  0  0  0.172983  0.366417  0  3.972456  0
C  C29  1  0.81610193  0.39210949  0.58708596  1  0  0.390059  0  3.721972  0  0.938743  0  0.379573  0  3.975306  0  0  0.39881  0  3.979092  0  0  0.172939  0.366378  0  3.972533  0
C  C30  1  0.31609729  0.39211297  0.91291658  1  0  0.390133  0  3.721988  0  0.938444  0  0.379652  0  3.97526  0  0  0.398888  0  3.979037  0  0  0.172998  0.366456  0  3.972485  0
C  C31  1  0.18389818  0.60789026  0.41291398  1  0  0.390084  0  3.721872  0  0.938568  0  0.379607  0  3.975223  0  0  0.398843  0  3.979008  0  0  0.172993  0.366412  0  3.972449  0
C  C32  1  0.81344928  0.63880674  0.02993504  1  0  -0.064334  0  3.798337  0  -0.033551  0  -0.047316  0  4.031389  0  0  -0.057211  0  4.05991  0  0  -0.022089  -0.040771  0  4.012092  0
C  C33  1  0.68655387  0.36119793  0.52993605  1  0  -0.064354  0  3.798386  0  -0.033272  0  -0.047383  0  4.031516  0  0  -0.057278  0  4.060035  0  0  -0.02211  -0.040839  0  4.01222  0
C  C34  1  0.18654881  0.36119732  0.97006436  1  0  -0.064325  0  3.798434  0  -0.033414  0  -0.047289  0  4.031455  0  0  -0.057185  0  4.059974  0  0  -0.022064  -0.040745  0  4.01216  0
C  C35  1  0.31344624  0.63880182  0.47006444  1  0  -0.064374  0  3.798396  0  -0.033276  0  -0.047403  0  4.031541  0  0  -0.057298  0  4.060061  0  0  -0.022126  -0.040858  0  4.012245  0
C  C36  1  0.79768210  0.53509388  0.97460161  1  0  -0.043695  0  3.688473  0  -0.012763  0  -0.067611  0  3.935901  0  0  -0.065345  0  3.955548  0  0  -0.069729  -0.06889  0  3.922493  0
C  C37  1  0.70231709  0.46490937  0.47460207  1  0  -0.04366  0  3.688423  0  -0.013097  0  -0.067556  0  3.93587  0  0  -0.06529  0  3.955519  0  0  -0.069738  -0.068836  0  3.922461  0
C  C38  1  0.20231599  0.46491018  0.02539996  1  0  -0.043715  0  3.688526  0  -0.012975  0  -0.067629  0  3.935944  0  0  -0.065362  0  3.955592  0  0  -0.069729  -0.068907  0  3.922534  0
C  C39  1  0.29767822  0.53509033  0.52539733  1  0  -0.04365  0  3.688375  0  -0.013226  0  -0.067546  0  3.935799  0  0  -0.06528  0  3.955446  0  0  -0.069713  -0.068828  0  3.922395  0
C  C40  1  0.91853945  0.56139065  0.92003154  1  0  -0.088105  0  3.761051  0  -0.070497  0  -0.097969  0  4.010997  0  0  -0.10344  0  4.035052  0  0  -0.085533  -0.094332  0  3.994509  0
C  C41  1  0.58145939  0.43861128  0.42003204  1  0  -0.088107  0  3.761011  0  -0.070779  0  -0.097962  0  4.01094  0  0  -0.103431  0  4.034993  0  0  -0.085505  -0.094323  0  3.994449  0
C  C42  1  0.08146025  0.43861126  0.07997002  1  0  -0.088075  0  3.761044  0  -0.07066  0  -0.097914  0  4.010988  0  0  -0.103385  0  4.035042  0  0  -0.085536  -0.094276  0  3.994496  0
C  C43  1  0.41853513  0.56138624  0.57996899  1  0  -0.088135  0  3.761089  0  -0.060351  0  -0.097971  0  4.011002  0  0  -0.103441  0  4.035057  0  0  -0.085522  -0.094334  0  3.994511  0
C  C44  1  0.05764004  0.68955974  0.92093192  1  0  -0.039459  0  3.720405  0  -0.073359  0  -0.057254  0  3.968619  0  0  -0.056971  0  3.990218  0  0  -0.066917  -0.057006  0  3.953535  0
C  C45  1  0.44235944  0.31044141  0.42093208  1  0  -0.039482  0  3.720616  0  -0.072924  0  -0.057289  0  3.968812  0  0  -0.057007  0  3.990412  0  0  -0.066918  -0.057036  0  3.953721  0
C  C46  1  0.94235807  0.31044107  0.07906911  1  0  -0.03956  0  3.720474  0  -0.074278  0  -0.05735  0  3.968683  0  0  -0.057067  0  3.990282  0  0  -0.066931  -0.0571  0  3.953598  0
C  C47  1  0.55763588  0.68955504  0.57906732  1  0  -0.039565  0  3.720758  0  -0.0732  0  -0.057364  0  3.968938  0  0  -0.057084  0  3.990539  0  0  -0.06692  -0.057112  0  3.953851  0
C  C48  1  0.07593009  0.79138575  0.97657399  1  0  -0.078671  0  3.752034  0  0.03616  0  -0.086962  0  3.996909  0  0  -0.091907  0  4.020446  0  0  -0.083545  -0.083697  0  3.980771  0
C  C49  1  0.42407094  0.20861673  0.47657295  1  0  -0.078515  0  3.751958  0  0.035905  0  -0.086793  0  3.996805  0  0  -0.091739  0  4.020347  0  0  -0.083469  -0.083526  0  3.980662  0
C  C50  1  0.92406960  0.20861941  0.02342758  1  0  -0.078435  0  3.751918  0  0.035973  0  -0.086698  0  3.996755  0  0  -0.091643  0  4.020294  0  0  -0.083412  -0.083433  0  3.980618  0
C  C51  1  0.57592758  0.79138191  0.52342699  1  0  -0.078505  0  3.752004  0  0.036083  0  -0.086789  0  3.996853  0  0  -0.091734  0  4.020394  0  0  -0.08344  -0.083521  0  3.980708  0
C  C52  1  0.95368658  0.76681288  0.03074571  1  0  -0.071331  0  3.734174  0  -0.089167  0  -0.094406  0  3.980695  0  0  -0.094582  0  4.003676  0  0  -0.074629  -0.093922  0  3.964846  0
C  C53  1  0.54631819  0.23318965  0.53074554  1  0  -0.071343  0  3.734103  0  -0.089241  0  -0.094376  0  3.980641  0  0  -0.094553  0  4.003623  0  0  -0.074606  -0.093898  0  3.964792  0
C  C54  1  0.04631311  0.23319228  0.96925478  1  0  -0.071314  0  3.73414  0  -0.089103  0  -0.094357  0  3.98066  0  0  -0.094531  0  4.003641  0  0  -0.074641  -0.093881  0  3.964812  0
C  C55  1  0.45368313  0.76681012  0.46925332  1  0  -0.071317  0  3.734067  0  -0.089235  0  -0.094355  0  3.980589  0  0  -0.094532  0  4.003571  0  0  -0.074616  -0.093872  0  3.964742  0
C  C56  1  0.74047692  0.69860006  0.21376213  1  0  -0.143861  0  3.934094  0  0.298912  0  -0.128041  0  4.176516  0  0  -0.140344  0  4.1963  0  0  -0.020251  -0.119945  0  4.163089  0
C  C57  1  0.75952971  0.30139893  0.71376139  1  0  -0.143651  0  3.933917  0  0.298858  0  -0.127894  0  4.176368  0  0  -0.1402  0  4.196161  0  0  -0.020177  -0.119798  0  4.162939  0
C  C58  1  0.25952640  0.30139864  0.78623999  1  0  -0.143682  0  3.933944  0  0.298898  0  -0.127888  0  4.17634  0  0  -0.140203  0  4.19613  0  0  -0.020221  -0.119803  0  4.162914  0
C  C59  1  0.24047522  0.69859763  0.28623801  1  0  -0.143816  0  3.933878  0  0.298918  0  -0.128047  0  4.176361  0  0  -0.140346  0  4.196147  0  0  -0.020256  -0.11995  0  4.162934  0
C  C60  1  0.72998630  0.78233569  0.27515335  1  0  0.290094  0  3.816862  0  0.808037  0  0.27632  0  4.086773  0  0  0.288632  0  4.105608  0  0  0.180768  0.268002  0  4.07407  0
C  C61  1  0.77002028  0.21766355  0.77515034  1  0  0.290203  0  3.816486  0  0.807865  0  0.276447  0  4.086416  0  0  0.288764  0  4.10525  0  0  0.180812  0.268127  0  4.07371  0
C  C62  1  0.27001940  0.21766629  0.72484931  1  0  0.290109  0  3.816631  0  0.807915  0  0.276335  0  4.086553  0  0  0.288652  0  4.105388  0  0  0.180795  0.268022  0  4.073846  0
C  C63  1  0.22998145  0.78233405  0.22484581  1  0  0.290115  0  3.816768  0  0.807951  0  0.276358  0  4.086694  0  0  0.28867  0  4.105529  0  0  0.180837  0.268039  0  4.073991  0
C  C64  1  0.79404384  0.57699751  0.22679645  1  0  0.299102  0  3.827022  0  0.824804  0  0.281891  0  4.102839  0  0  0.294285  0  4.121758  0  0  0.186429  0.273478  0  4.090115  0
C  C65  1  0.70596036  0.42300475  0.72679806  1  0  0.298919  0  3.827522  0  0.824883  0  0.28171  0  4.103373  0  0  0.294105  0  4.122292  0  0  0.186329  0.273299  0  4.090647  0
C  C66  1  0.20595785  0.42300659  0.77320403  1  0  0.298948  0  3.827184  0  0.82484  0  0.281732  0  4.103015  0  0  0.294128  0  4.12193  0  0  0.186319  0.273325  0  4.09029  0
C  C67  1  0.29404374  0.57699613  0.27320242  1  0  0.299083  0  3.826964  0  0.824822  0  0.281889  0  4.102788  0  0  0.294281  0  4.121705  0  0  0.186384  0.273475  0  4.090066  0
C  C68  1  0.63625664  0.83978423  0.12081444  1  0  -0.163306  0  3.941794  0  0.308771  0  -0.146496  0  4.184215  0  0  -0.159374  0  4.203653  0  0  -0.022641  -0.138069  0  4.171116  0
C  C69  1  0.86374287  0.16021428  0.62081240  1  0  -0.163293  0  3.941599  0  0.309179  0  -0.146517  0  4.184008  0  0  -0.1594  0  4.203455  0  0  -0.022631  -0.138087  0  4.170906  0
C  C70  1  0.36374707  0.16021555  0.87918713  1  0  -0.163333  0  3.941723  0  0.309398  0  -0.146542  0  4.18411  0  0  -0.15943  0  4.203556  0  0  -0.022651  -0.13812  0  4.17101  0
C  C71  1  0.13625885  0.83978332  0.37918429  1  0  -0.163349  0  3.941789  0  0.308668  0  -0.146535  0  4.18419  0  0  -0.159406  0  4.203629  0  0  -0.022657  -0.138107  0  4.171089  0
C  C72  1  0.64137847  0.96092473  0.16381794  1  0  0.32737  0  3.831286  0  0.848538  0  0.311571  0  4.096292  0  0  0.325567  0  4.114321  0  0  0.191955  0.302111  0  4.084129  0
C  C73  1  0.85861944  0.03906637  0.66381846  1  0  0.327559  0  3.831651  0  0.848771  0  0.311765  0  4.096636  0  0  0.325762  0  4.114664  0  0  0.192055  0.302305  0  4.084478  0
C  C74  1  0.35862048  0.03906851  0.83618146  1  0  0.327589  0  3.83159  0  0.848728  0  0.311784  0  4.096577  0  0  0.325784  0  4.114602  0  0  0.19208  0.302328  0  4.084419  0
C  C75  1  0.14137830  0.96092686  0.33618094  1  0  0.327496  0  3.831484  0  0.84867  0  0.311698  0  4.096472  0  0  0.325692  0  4.114498  0  0  0.191984  0.302235  0  4.084313  0
C  C76  1  0.57378590  0.84069653  0.04962050  1  0  0.289741  0  3.829966  0  0.825272  0  0.274159  0  4.104728  0  0  0.286124  0  4.123358  0  0  0.182758  0.266056  0  4.092228  0
C  C77  1  0.92621487  0.15930170  0.54961951  1  0  0.289661  0  3.830024  0  0.825767  0  0.274081  0  4.104791  0  0  0.28605  0  4.123421  0  0  0.182721  0.265975  0  4.092287  0
C  C78  1  0.42621821  0.15930435  0.95038107  1  0  0.289716  0  3.830064  0  0.825423  0  0.274121  0  4.104839  0  0  0.286091  0  4.12347  0  0  0.182764  0.266021  0  4.092335  0
C  C79  1  0.07378563  0.84069914  0.45037718  1  0  0.289739  0  3.829647  0  0.825398  0  0.274151  0  4.104413  0  0  0.286114  0  4.123048  0  0  0.182746  0.266048  0  4.091913  0
N  N80  1  0.71901659  0.84932353  0.32667020  1  0  -0.446054  0  2.592337  0  -1.186039  0  -0.423705  0  2.820289  0  0  -0.435263  0  2.833007  0  0  -0.363841  -0.415917  0  2.811755  0
N  N81  1  0.78098477  0.15067154  0.82667036  1  0  -0.446254  0  2.591945  0  -1.185937  0  -0.423908  0  2.819896  0  0  -0.435468  0  2.832614  0  0  -0.363931  -0.416117  0  2.811362  0
N  N82  1  0.28098791  0.15067843  0.67332974  1  0  -0.446121  0  2.592085  0  -1.185904  0  -0.42377  0  2.820035  0  0  -0.435329  0  2.832753  0  0  -0.363861  -0.415981  0  2.811501  0
N  N83  1  0.21901378  0.84932062  0.17332904  1  0  -0.446055  0  2.592358  0  -1.185918  0  -0.423711  0  2.820315  0  0  -0.435268  0  2.833034  0  0  -0.363857  -0.415922  0  2.811782  0
N  N84  1  0.83688333  0.47537978  0.23754154  1  0  -0.471332  0  2.616333  0  -1.221259  0  -0.449711  0  2.856791  0  0  -0.460796  0  2.867636  0  0  -0.388598  -0.442234  0  2.849557  0
N  N85  1  0.66312412  0.52461174  0.73754384  1  0  -0.471206  0  2.616955  0  -1.221244  0  -0.449575  0  2.857412  0  0  -0.460657  0  2.868255  0  0  -0.388511  -0.442109  0  2.850202  0
N  N86  1  0.16312441  0.52461464  0.76245678  1  0  -0.471214  0  2.616661  0  -1.221257  0  -0.449593  0  2.857125  0  0  -0.460675  0  2.867964  0  0  -0.3885  -0.442124  0  2.849906  0
N  N87  1  0.33688323  0.47538160  0.26245773  1  0  -0.471328  0  2.616367  0  -1.221297  0  -0.449704  0  2.856814  0  0  -0.46079  0  2.867662  0  0  -0.388578  -0.442226  0  2.849581  0
N  N88  1  0.52181345  0.84128556  0.99066186  1  0  -0.446599  0  2.616368  0  -1.209413  0  -0.425121  0  2.856026  0  0  -0.436026  0  2.867262  0  0  -0.399609  -0.417758  0  2.848551  0
N  N89  1  0.97818253  0.15871555  0.49066127  1  0  -0.446555  0  2.61639  0  -1.209757  0  -0.425073  0  2.856034  0  0  -0.435979  0  2.86727  0  0  -0.399614  -0.417707  0  2.848555  0
N  N90  1  0.47818426  0.15871416  0.00933808  1  0  -0.446612  0  2.616457  0  -1.209665  0  -0.425127  0  2.856109  0  0  -0.436033  0  2.867344  0  0  -0.399655  -0.417761  0  2.84863  0
N  N91  1  0.02181036  0.84128736  0.50933867  1  0  -0.446611  0  2.616013  0  -1.209491  0  -0.42513  0  2.85568  0  0  -0.436036  0  2.86692  0  0  -0.399617  -0.417765  0  2.848204  0
N  N92  1  0.64777107  0.06573094  0.19671763  1  0  -0.524573  0  2.681239  0  -1.24481  0  -0.495236  0  2.922472  0  0  -0.508268  0  2.932557  0  0  -0.48484  -0.486402  0  2.915738  0
N  N93  1  0.85222436  0.93427001  0.69671275  1  0  -0.524676  0  2.681884  0  -1.245034  0  -0.495349  0  2.923113  0  0  -0.508374  0  2.933181  0  0  -0.484895  -0.486517  0  2.916383  0
N  N94  1  0.35222303  0.93427199  0.80328556  1  0  -0.524691  0  2.681763  0  -1.245006  0  -0.495356  0  2.922981  0  0  -0.508389  0  2.933064  0  0  -0.484914  -0.486526  0  2.916251  0
N  N95  1  0.14777335  0.06572971  0.30328394  1  0  -0.524652  0  2.681541  0  -1.244857  0  -0.495321  0  2.922766  0  0  -0.508351  0  2.932845  0  0  -0.484859  -0.486487  0  2.916032  0
O  O96  1  0.56778953  0.49144329  0.09217584  1  0  -0.466037  0  1.976848  0  -1.115832  0  -0.425713  0  2.19455  0  0  -0.442856  0  2.192787  0  0  -0.312493  -0.413634  0  2.195486  0
O  O97  1  0.93220999  0.50855835  0.59217636  1  0  -0.466065  0  1.976781  0  -1.115816  0  -0.425737  0  2.194519  0  0  -0.442876  0  2.192742  0  0  -0.312509  -0.413657  0  2.195456  0
O  O98  1  0.43220777  0.50855859  0.90782302  1  0  -0.466079  0  1.976841  0  -1.115744  0  -0.425773  0  2.194575  0  0  -0.442915  0  2.1928  0  0  -0.312534  -0.413695  0  2.195512  0
O  O99  1  0.06778572  0.49144243  0.40782304  1  0  -0.466065  0  1.976738  0  -1.115845  0  -0.425749  0  2.194496  0  0  -0.442886  0  2.192715  0  0  -0.312538  -0.413661  0  2.195421  0
