# generated using pymatgen
data_Zn8H36C70Cl6O29
_symmetry_space_group_name_H-M   'P 1'
_cell_length_a   18.20219847
_cell_length_b   18.34469781
_cell_length_c   18.30706423
_cell_angle_alpha   90.13569038
_cell_angle_beta   119.41215599
_cell_angle_gamma   120.23281307
_symmetry_Int_Tables_number   1
_chemical_formula_structural   Zn8H36C70Cl6O29
_chemical_formula_sum   'Zn8 H36 C70 Cl6 O29'
_cell_volume   4340.33780070
_cell_formula_units_Z   1
loop_
 _symmetry_equiv_pos_site_id
 _symmetry_equiv_pos_as_xyz
  1  'x, y, z'
loop_
 _atom_site_type_symbol
 _atom_site_label
 _atom_site_symmetry_multiplicity
 _atom_site_fract_x
 _atom_site_fract_y
 _atom_site_fract_z
 _atom_site_occupancy
 _atom_site_pbe_bader_charge
 _atom_site_pbe_bader_spin_density
 _atom_site_pbe_cm5_charge
 _atom_site_pbe_ddec_charge
 _atom_site_pbe_ddec_spin_density
 _atom_site_pbe_ddec_sum_bond_order
 _atom_site_pbe_magmom
Zn  Zn0  1  0.91077436  0.04721900  0.45903062  1  1.325187  0  0.676425  0.988942  0  2.294163  0
Zn  Zn1  1  0.91402942  0.87256387  0.45851313  1  1.300099  0  0.674569  0.959552  0  2.383983  0
Zn  Zn2  1  0.08697017  0.04200573  0.63107281  1  1.307282  0  0.671312  0.965136  0  2.397136  0
Zn  Zn3  1  0.08892218  0.04724208  0.45903167  1  1.307045  0  0.673864  0.964193  0  2.371844  0
Zn  Zn4  1  0.08125980  0.45162310  0.04190001  1  1.306218  0  0.67381  0.957058  0  2.378392  0
Zn  Zn5  1  0.91261286  0.45577088  0.87151495  1  1.325462  0  0.679824  0.968442  0  2.3321  0
Zn  Zn6  1  0.08820407  0.63113287  0.04286525  1  1.307511  0  0.672164  0.97428  0  2.365278  0
Zn  Zn7  1  0.91570084  0.45619199  0.05121842  1  1.306763  0  0.670127  0.972745  0  2.355849  0
H  H8  1  0.96782689  0.34637943  0.28065430  1  0.092534  0  0.115092  0.103393  0  0.9446  0
H  H9  1  0.31965874  0.27744435  0.55717650  1  0.112769  0  0.091852  0.106616  0  1.059772  0
H  H10  1  0.42357606  0.41798868  0.53840273  1  0.057339  0  0.096823  0.094913  0  1.001178  0
H  H11  1  0.61358673  0.52601645  0.65577092  1  0.097602  0  0.109536  0.12591  0  0.980965  0
H  H12  1  0.59107001  0.23291996  0.88197582  1  0.071758  0  0.109287  0.113767  0  0.982196  0
H  H13  1  0.92365182  0.90200961  0.22446565  1  0.084346  0  0.102868  0.108446  0  1.014263  0
H  H14  1  0.84358779  0.89313773  0.06684606  1  0.045609  0  0.10232  0.102625  0  0.991557  0
H  H15  1  0.82731531  0.79032481  0.96146004  1  0.070232  0  0.109265  0.121781  0  0.982434  0
H  H16  1  0.15530607  0.33238878  0.26308376  1  0.080414  0  0.09714  0.11455  0  0.98238  0
H  H17  1  0.06306123  0.66443224  0.30175616  1  0.081055  0  0.112888  0.130201  0  0.978968  0
H  H18  1  0.03139923  0.88732785  0.78734103  1  0.09673  0  0.109792  0.116337  0  0.987669  0
H  H19  1  0.85154152  0.17581162  0.25060487  1  0.057453  0  0.114589  0.068553  0  0.934824  0
H  H20  1  0.01592131  0.74107105  0.55639287  1  0.087587  0  0.091711  0.10088  0  1.061415  0
H  H21  1  0.01069423  0.60793763  0.52382786  1  0.052242  0  0.095522  0.090627  0  1.009004  0
H  H22  1  0.99930740  0.50932768  0.61807686  1  0.063119  0  0.099825  0.097558  0  1.006439  0
H  H23  1  0.99613434  0.54643793  0.74477744  1  0.088123  0  0.099976  0.108631  0  1.041558  0
H  H24  1  0.02663271  0.79178389  0.88450597  1  0.075733  0  0.107665  0.112704  0  0.993391  0
H  H25  1  0.60010561  0.88138136  0.23771196  1  0.107748  0  0.11204  0.119465  0  0.983217  0
H  H26  1  0.68074599  0.74816776  0.46573706  1  0.086878  0  0.102089  0.111645  0  1.018828  0
H  H27  1  0.57737485  0.61897537  0.49673682  1  0.063261  0  0.102465  0.098931  0  0.990883  0
H  H28  1  0.06652230  0.25338631  0.15540217  1  0.083388  0  0.101594  0.125574  0  0.975808  0
H  H29  1  0.38464138  0.51735553  0.38939986  1  0.065057  0  0.096474  0.091697  0  1.008777  0
H  H30  1  0.83327172  0.22829801  0.12944940  1  0.064526  0  0.10208  0.121354  0  0.973319  0
H  H31  1  0.29764612  0.54591772  0.25212093  1  0.066467  0  0.096216  0.103119  0  1.039505  0
H  H32  1  0.40755206  0.78101266  0.13220077  1  0.090877  0  0.111164  0.116551  0  0.982697  0
H  H33  1  0.87069734  0.16935043  0.09635923  1  0.061713  0  0.099399  0.113317  0  0.978823  0
H  H34  1  0.01061077  0.28158750  0.38729787  1  0.102864  0  0.113487  0.100881  0  0.96407  0
H  H35  1  0.98243179  0.24648160  0.91154968  1  0.650292  0  0.311165  0.362497  0  0.947124  0
H  H36  1  0.73478811  0.50130938  0.85667510  1  0.603928  0  0.315337  0.341896  0  0.931707  0
H  H37  1  0.83766738  0.04692819  0.15102897  1  0.588892  0  0.281955  0.312387  0  1.005512  0
H  H38  1  0.96527504  0.11401933  0.75775699  1  0.108669  0  0.119257  0.141939  0  0.964248  0
H  H39  1  0.21588468  0.47489029  0.65660187  1  0.090542  0  0.106517  0.121087  0  0.989096  0
H  H40  1  0.19688071  0.56311022  0.74188865  1  0.074664  0  0.107541  0.105394  0  0.983899  0
H  H41  1  0.10657251  0.49235689  0.81302215  1  0.076522  0  0.101693  0.11033  0  1.026851  0
H  H42  1  0.39801959  0.14175847  0.78384540  1  0.111406  0  0.111909  0.118902  0  0.985005  0
H  H43  1  0.12846059  0.20905700  0.31073475  1  0.118605  0  0.106129  0.09265  0  0.973501  0
C  C44  1  0.00137161  0.86724140  0.36139786  1  1.604606  0  0.227942  0.618752  0  4.200649  0
C  C45  1  0.11106567  0.45256551  0.77342895  1  -0.059503  0  -0.097426  -0.149671  0  3.980959  0
C  C46  1  0.06659342  0.36102180  0.76542687  1  0.004699  0  0.005702  0.107955  0  3.959669  0
C  C47  1  0.01225472  0.14850846  0.64371702  1  1.607745  0  0.223334  0.60487  0  4.209738  0
C  C48  1  0.07285384  0.30834538  0.71290005  1  0.026577  0  -0.009258  -0.026465  0  3.934833  0
C  C49  1  0.02814175  0.21632950  0.70672564  1  -0.034197  0  0.001393  -0.01038  0  3.934184  0
C  C50  1  0.99461116  0.18292918  0.75963004  1  0.053291  0  -0.087385  -0.205292  0  3.923796  0
C  C51  1  0.99678266  0.23618251  0.81744707  1  0.499  0  0.098234  0.326968  0  4.078872  0
C  C52  1  0.02379583  0.32203336  0.81476401  1  0.064937  0  -0.039159  -0.251243  0  3.951893  0
C  C53  1  0.40285372  0.32147429  0.60565187  1  -0.009516  0  -0.110029  -0.171434  0  4.008915  0
C  C54  1  0.46134631  0.40036757  0.59556377  1  -0.038704  0  -0.093025  -0.056877  0  4.073297  0
C  C55  1  0.04689295  0.28684989  0.35245297  1  0.091775  0  -0.038988  0.026106  0  3.738929  0
C  C56  1  0.56822190  0.46090856  0.66021200  1  -0.03462  0  -0.104198  -0.20082  0  3.993063  0
C  C57  1  0.61687112  0.44029752  0.73384022  1  0.477337  0  0.08224  0.273781  0  4.04116  0
C  C58  1  0.56165255  0.35515059  0.74229257  1  0.050056  0  -0.009712  -0.06243  0  3.931772  0
C  C59  1  0.72208911  0.86168251  0.37722513  1  1.557539  0  0.233396  0.615739  0  4.148744  0
C  C60  1  0.45054644  0.29692758  0.67909517  1  -0.029104  0  0.004157  0.090324  0  3.94328  0
C  C61  1  0.39343397  0.21876698  0.69632154  1  -0.023706  0  -0.007867  -0.07257  0  3.913391  0
C  C62  1  0.44384377  0.19988257  0.77101765  1  -0.061806  0  -0.079644  -0.085322  0  3.992631  0
C  C63  1  0.55210120  0.25215992  0.82724098  1  -0.017208  0  -0.085266  -0.100921  0  3.998588  0
C  C64  1  0.61069394  0.32702126  0.81205552  1  -0.029926  0  -0.010332  -0.049462  0  3.951921  0
C  C65  1  0.91766422  0.85788570  0.17869391  1  -0.079872  0  -0.089942  -0.133784  0  3.972891  0
C  C66  1  0.99379431  0.19086137  0.29489388  1  0.020736  0  -0.024954  -0.127177  0  3.774968  0
C  C67  1  0.87330106  0.85325234  0.09102278  1  0.075692  0  -0.089049  -0.058015  0  4.043803  0
C  C68  1  0.86444741  0.79581036  0.03137374  1  0.02629  0  -0.095733  -0.153829  0  4.015187  0
C  C69  1  0.90158667  0.74465656  0.06056794  1  0.034171  0  0.017642  0.105667  0  4.010302  0
C  C70  1  0.95124570  0.74858858  0.15137341  1  0.019946  0  -0.000366  -0.004356  0  3.921238  0
C  C71  1  0.27840857  0.15355749  0.63700820  1  1.569685  0  0.231512  0.612642  0  4.152244  0
C  C72  1  0.95641914  0.80607850  0.21052122  1  0.006333  0  0.007427  0.090831  0  3.944671  0
C  C73  1  0.99917774  0.80956258  0.30090834  1  0.050677  0  -0.01045  -0.123711  0  3.921057  0
C  C74  1  0.03594388  0.75866304  0.33194643  1  0.053015  0  0.01762  0.130309  0  4.071184  0
C  C75  1  0.03279037  0.70347682  0.27545944  1  0.06148  0  -0.085781  -0.162552  0  3.968885  0
C  C76  1  0.99280163  0.69906792  0.18769141  1  -0.014376  0  -0.004957  -0.028424  0  3.926897  0
C  C77  1  0.00033052  0.29782322  0.20004205  1  0.031626  0  -0.019051  0.005199  0  3.8067  0
C  C78  1  0.01210535  0.69930038  0.59823736  1  -0.018598  0  -0.097609  -0.137286  0  3.982674  0
C  C79  1  0.00862700  0.62428384  0.57984289  1  -0.033739  0  -0.094343  -0.078366  0  4.039343  0
C  C80  1  0.00246942  0.56883141  0.63298718  1  -0.054804  0  -0.092866  -0.077132  0  4.035073  0
C  C81  1  0.00122636  0.58985445  0.70450652  1  -0.071841  0  -0.09409  -0.13532  0  3.973246  0
C  C82  1  0.00553842  0.66704897  0.72613177  1  0.028752  0  0.002159  0.060794  0  3.936538  0
C  C83  1  0.01315436  0.86041331  0.63791002  1  1.539251  0  0.230512  0.610013  0  4.154996  0
C  C84  1  0.01018773  0.72297464  0.67100005  1  -0.026652  0  0.002116  0.066025  0  3.931693  0
C  C85  1  0.01680172  0.80177547  0.69411018  1  -0.02114  0  -0.010407  -0.07571  0  3.92983  0
C  C86  1  0.02447654  0.82617330  0.77063442  1  -0.0215  0  -0.082045  -0.090499  0  3.996548  0
C  C87  1  0.02157325  0.77254800  0.82498459  1  -0.005894  0  -0.083225  -0.09672  0  4.000346  0
C  C88  1  0.88932747  0.21157295  0.15403698  1  -0.072064  0  -0.164024  -0.270971  0  3.855357  0
C  C89  1  0.00977315  0.69345726  0.80253313  1  0.010781  0  -0.005287  -0.060334  0  3.924299  0
C  C90  1  0.59710253  0.70454310  0.41868604  1  -0.004937  0  -0.091747  -0.133366  0  3.98001  0
C  C91  1  0.53900327  0.63185576  0.43579421  1  -0.101185  0  -0.092085  -0.079884  0  4.04236  0
C  C92  1  0.43036573  0.57440983  0.37524340  1  -0.012693  0  -0.094068  -0.079794  0  4.04495  0
C  C93  1  0.38138288  0.59055973  0.29836698  1  -0.029287  0  -0.09571  -0.136904  0  3.983748  0
C  C94  1  0.43851936  0.66508333  0.27855161  1  0.037988  0  0.002843  0.064932  0  3.932063  0
C  C95  1  0.99072359  0.13171212  0.35401329  1  1.601492  0  0.225453  0.605183  0  4.144264  0
C  C96  1  0.54955134  0.72380008  0.34031253  1  -0.024904  0  0.003404  0.067151  0  3.928592  0
C  C97  1  0.60641836  0.80113361  0.32213040  1  0.006799  0  -0.007235  -0.073044  0  3.92548  0
C  C98  1  0.55514951  0.82132529  0.24908136  1  -0.004599  0  -0.079391  -0.089381  0  3.993642  0
C  C99  1  0.03099666  0.34384579  0.29074546  1  0.108966  0  -0.042377  0.018548  0  3.754908  0
C  C100  1  0.44710675  0.76464199  0.18952594  1  -0.044054  0  -0.081226  -0.09527  0  4.001694  0
C  C101  1  0.38960638  0.68692776  0.20216072  1  -0.065917  0  -0.007314  -0.068389  0  3.933072  0
C  C102  1  0.72488543  0.36962394  0.86790766  1  1.5203  0  0.223329  0.592305  0  4.200663  0
C  C103  1  0.27512273  0.62986946  0.13485604  1  1.565892  0  0.233349  0.618185  0  4.148033  0
C  C104  1  0.00576959  0.36821375  0.86316878  1  1.483461  0  0.225795  0.620961  0  4.141902  0
C  C105  1  0.00084178  0.64112219  0.13803109  1  1.600233  0  0.222725  0.606421  0  4.209799  0
C  C106  1  0.00173777  0.63769105  0.86113240  1  1.562498  0  0.231  0.613486  0  4.151753  0
C  C107  1  0.05613366  0.19817338  0.25785924  1  0.071437  0  -0.044947  0.086749  0  3.734634  0
C  C108  1  0.00059015  0.35868947  0.14311238  1  1.547831  0  0.229409  0.601733  0  4.118864  0
C  C109  1  0.07516883  0.27333629  0.21704072  1  -0.033353  0  -0.170273  -0.249086  0  3.886044  0
C  C110  1  0.12906261  0.35340971  0.67558155  1  0.041052  0  0.015651  0.112039  0  4.020529  0
C  C111  1  0.88191153  0.15942062  0.21908983  1  0.522997  0  0.000453  0.206498  0  3.838989  0
C  C112  1  0.17216828  0.44298268  0.68504599  1  0.029297  0  -0.104221  -0.171077  0  4.03394  0
C  C113  1  0.16209411  0.49229411  0.73381013  1  -0.040137  0  -0.088109  -0.056968  0  4.056312  0
Cl  Cl114  1  0.99231670  0.09296330  0.17612411  1  -0.279479  0  -0.03104  -0.138711  0  1.413108  0
Cl  Cl115  1  0.15443681  0.30051956  0.62186464  1  -0.210041  0  -0.000364  -0.075345  0  1.597088  0
Cl  Cl116  1  0.08839942  0.76224983  0.44153232  1  -0.201103  0  0.007245  -0.065949  0  1.484999  0
Cl  Cl117  1  0.88084028  0.67314836  0.97929003  1  -0.214994  0  0.011514  -0.06822  0  1.608324  0
Cl  Cl118  1  0.17961086  0.33426299  0.43971700  1  -0.231827  0  -0.028735  -0.112209  0  1.523687  0
Cl  Cl119  1  0.13930839  0.45862551  0.33849703  1  -0.234476  0  -0.045757  -0.121609  0  1.426254  0
O  O120  1  0.99880448  0.00369994  0.50077767  1  -1.205403  0  -0.573597  -1.032752  0  2.535792  0
O  O121  1  0.07022919  0.68105913  0.12305880  1  -1.163063  0  -0.312961  -0.542556  0  2.343576  0
O  O122  1  0.93259307  0.55379575  0.82328473  1  -1.172542  0  -0.306329  -0.531575  0  2.371711  0
O  O123  1  0.07662729  0.94952720  0.39713756  1  -1.153573  0  -0.306434  -0.53123  0  2.308409  0
O  O124  1  0.93729657  0.37939448  0.12222609  1  -1.157385  0  -0.312776  -0.546645  0  2.335646  0
O  O125  1  0.06405143  0.67948390  0.94485834  1  -1.170547  0  -0.316031  -0.553788  0  2.336357  0
O  O126  1  0.06315359  0.38258857  0.12079619  1  -1.149979  0  -0.305451  -0.524376  0  2.363534  0
O  O127  1  0.01938529  0.35414104  0.93708520  1  -1.182465  0  -0.322715  -0.582043  0  2.335142  0
O  O128  1  0.94217861  0.55748223  0.12217010  1  -1.165316  0  -0.31567  -0.545479  0  2.336705  0
O  O129  1  0.76656470  0.37378879  0.82736187  1  -1.153985  0  -0.312409  -0.533275  0  2.321957  0
O  O130  1  0.23300952  0.67136234  0.10994918  1  -1.166929  0  -0.310887  -0.541432  0  2.330338  0
O  O131  1  0.76386257  0.94496789  0.38792135  1  -1.164666  0  -0.312789  -0.548404  0  2.31293  0
O  O132  1  0.94455119  0.12549220  0.56125256  1  -1.165585  0  -0.314706  -0.547329  0  2.32636  0
O  O133  1  0.76962725  0.82474997  0.40661192  1  -1.182419  0  -0.310016  -0.540119  0  2.358017  0
O  O134  1  0.23374380  0.11576246  0.67530201  1  -1.174632  0  -0.314022  -0.550484  0  2.348741  0
O  O135  1  0.95789505  0.82375061  0.55369982  1  -1.168432  0  -0.309047  -0.53874  0  2.364092  0
O  O136  1  0.04211558  0.09960260  0.36783877  1  -1.169608  0  -0.309471  -0.542179  0  2.39534  0
O  O137  1  0.06371440  0.94340495  0.67895602  1  -1.165631  0  -0.315303  -0.545885  0  2.336611  0
O  O138  1  0.93874127  0.12220286  0.38522264  1  -1.167989  0  -0.306733  -0.538169  0  2.330058  0
O  O139  1  0.96725229  0.19813789  0.86969187  1  -1.155463  0  -0.353133  -0.439327  0  2.23561  0
O  O140  1  0.71922603  0.50572099  0.79841427  1  -1.125576  0  -0.359601  -0.454436  0  2.32795  0
O  O141  1  0.81079409  0.06527997  0.17648648  1  -1.112583  0  -0.417168  -0.489057  0  2.180864  0
O  O142  1  0.23363772  0.13841248  0.55321022  1  -1.169947  0  -0.308684  -0.534563  0  2.355201  0
O  O143  1  0.92680048  0.82791143  0.37009322  1  -1.163774  0  -0.306519  -0.532735  0  2.310781  0
O  O144  1  0.06284277  0.11564434  0.68066483  1  -1.170883  0  -0.315044  -0.544882  0  2.352949  0
O  O145  1  0.99884176  0.49941596  0.00243246  1  -1.219238  0  -0.573848  -1.033002  0  2.536511  0
O  O146  1  0.76927377  0.39438157  0.95195995  1  -1.141255  0  -0.317059  -0.551006  0  2.330311  0
O  O147  1  0.22907560  0.54515849  0.10677521  1  -1.173255  0  -0.314713  -0.545835  0  2.334977  0
O  O148  1  0.97428954  0.41598459  0.83099502  1  -1.158874  0  -0.300131  -0.52404  0  2.317596  0
