# generated using pymatgen
data_CsH14C6ClO4
_symmetry_space_group_name_H-M   'P 1'
_cell_length_a   8.77740550
_cell_length_b   8.71921138
_cell_length_c   16.03860000
_cell_angle_alpha   90.00000000
_cell_angle_beta   90.00000000
_cell_angle_gamma   107.61658062
_symmetry_Int_Tables_number   1
_chemical_formula_structural   CsH14C6ClO4
_chemical_formula_sum   'Cs4 H56 C24 Cl4 O16'
_cell_volume   1169.90263541
_cell_formula_units_Z   4
loop_
 _symmetry_equiv_pos_site_id
 _symmetry_equiv_pos_as_xyz
  1  'x, y, z'
loop_
 _atom_site_type_symbol
 _atom_site_label
 _atom_site_symmetry_multiplicity
 _atom_site_fract_x
 _atom_site_fract_y
 _atom_site_fract_z
 _atom_site_occupancy
 _atom_site_hle17_bader_spin_density
 _atom_site_hle17_ddec_charge
 _atom_site_hle17_ddec_spin_density
 _atom_site_hle17_ddec_sum_bond_order
 _atom_site_hle17_magmom
 _atom_site_hse06_10hf_bader_spin_density
 _atom_site_hse06_10hf_ddec_charge
 _atom_site_hse06_10hf_ddec_spin_density
 _atom_site_hse06_10hf_ddec_sum_bond_order
 _atom_site_hse06_10hf_magmom
 _atom_site_hse06_bader_spin_density
 _atom_site_hse06_ddec_charge
 _atom_site_hse06_ddec_spin_density
 _atom_site_hse06_ddec_sum_bond_order
 _atom_site_hse06_magmom
 _atom_site_pbe_bader_charge
 _atom_site_pbe_bader_spin_density
 _atom_site_pbe_cm5_charge
 _atom_site_pbe_ddec_charge
 _atom_site_pbe_ddec_spin_density
 _atom_site_pbe_ddec_sum_bond_order
 _atom_site_pbe_magmom
Cs  Cs0  1  0.10348234  0.10342698  0.59671854  1  0  0.896059  0  0.655959  0  0  0.818328  0  0.923419  0  0  0.836804  0  0.896203  0  0.877474  0  0.744624  0.804727  0  0.942796  0
Cs  Cs1  1  0.89647538  0.89661181  0.09671792  1  0  0.895952  0  0.656026  0  0  0.818215  0  0.923484  0  0  0.836696  0  0.896266  0  0.87746  0  0.744565  0.804609  0  0.942865  0
Cs  Cs2  1  0.10350295  0.10341976  0.90327896  1  0  0.896031  0  0.655975  0  0  0.818296  0  0.923452  0  0  0.836774  0  0.896232  0  0.877689  0  0.74457  0.804692  0  0.942831  0
Cs  Cs3  1  0.89646932  0.89661061  0.40328271  1  0  0.895954  0  0.656053  0  0  0.818202  0  0.923537  0  0  0.836675  0  0.896314  0  0.877644  0  0.744585  0.804593  0  0.94292  0
H  H4  1  0.25771683  0.43367107  0.32509571  1  0  0.061884  0  0.913705  0  0  0.078144  0  0.974114  0  0  0.078542  0  0.973265  0  0.067017  0  0.103558  0.077701  0  0.974914  0
H  H5  1  0.74224763  0.56634847  0.82510381  1  0  0.061937  0  0.913915  0  0  0.078221  0  0.974255  0  0  0.07863  0  0.973391  0  0.067031  0  0.103581  0.077775  0  0.975063  0
H  H6  1  0.43222159  0.25938149  0.17512750  1  0  0.061982  0  0.914592  0  0  0.078095  0  0.975436  0  0  0.078522  0  0.974579  0  0.081508  0  0.103336  0.077644  0  0.976227  0
H  H7  1  0.56775963  0.74065971  0.67512501  1  0  0.061914  0  0.914575  0  0  0.078042  0  0.975352  0  0  0.078469  0  0.974487  0  0.082893  0  0.103362  0.077591  0  0.976143  0
H  H8  1  0.74225172  0.56635449  0.67489931  1  0  0.061901  0  0.913899  0  0  0.078182  0  0.974278  0  0  0.078596  0  0.973417  0  0.06216  0  0.103587  0.077737  0  0.975083  0
H  H9  1  0.25771149  0.43367227  0.17490741  1  0  0.061942  0  0.913753  0  0  0.07821  0  0.974146  0  0  0.078612  0  0.973294  0  0.062182  0  0.103594  0.077766  0  0.974949  0
H  H10  1  0.56775819  0.74065489  0.82487624  1  0  0.061981  0  0.91456  0  0  0.078118  0  0.975347  0  0  0.078544  0  0.974484  0  0.087762  0  0.103409  0.077668  0  0.976134  0
H  H11  1  0.43221942  0.25937427  0.32487000  1  0  0.061985  0  0.914568  0  0  0.078082  0  0.975436  0  0  0.078504  0  0.974583  0  0.076723  0  0.103331  0.07763  0  0.976228  0
H  H12  1  0.25840873  0.42638494  0.43591461  1  0  0.053114  0  0.921878  0  0  0.068735  0  0.985888  0  0  0.069125  0  0.985269  0  0.031506  0  0.104317  0.06834  0  0.986447  0
H  H13  1  0.74157168  0.57363460  0.93591959  1  0  0.053224  0  0.921997  0  0  0.068791  0  0.986026  0  0  0.069181  0  0.985414  0  0.0313  0  0.104308  0.068413  0  0.986568  0
H  H14  1  0.42538557  0.25993382  0.06432357  1  0  0.05353  0  0.921031  0  0  0.069323  0  0.984678  0  0  0.069821  0  0.983929  0  0.047248  0  0.104555  0.068837  0  0.985374  0
H  H15  1  0.57458722  0.74008692  0.56431920  1  0  0.053463  0  0.921053  0  0  0.069339  0  0.984581  0  0  0.069784  0  0.983888  0  0.046945  0  0.104586  0.06885  0  0.985284  0
H  H16  1  0.74156557  0.57363701  0.56408228  1  0  0.053166  0  0.922051  0  0  0.068755  0  0.986088  0  0  0.069148  0  0.985482  0  0.031389  0  0.104312  0.068375  0  0.98663  0
H  H17  1  0.25841240  0.42639336  0.06408851  1  0  0.053092  0  0.921895  0  0  0.068682  0  0.985951  0  0  0.069074  0  0.98533  0  0.031537  0  0.104302  0.068302  0  0.986494  0
H  H18  1  0.57458572  0.74008572  0.93568142  1  0  0.05343  0  0.921067  0  0  0.06934  0  0.984577  0  0  0.069781  0  0.983887  0  0.046913  0  0.104591  0.068852  0  0.985279  0
H  H19  1  0.42538563  0.25993021  0.43567394  1  0  0.053553  0  0.921042  0  0  0.069355  0  0.984671  0  0  0.069854  0  0.983919  0  0.047309  0  0.10459  0.06887  0  0.985365  0
H  H20  1  0.01431506  0.48308079  0.37226005  1  0  0.063316  0  0.957891  0  0  0.073948  0  1.028065  0  0  0.074757  0  1.027387  0  0.076565  0  0.092379  0.073265  0  1.028706  0
H  H21  1  0.98565821  0.51693393  0.87226317  1  0  0.063331  0  0.95787  0  0  0.073924  0  1.028108  0  0  0.074733  0  1.027428  0  0.076885  0  0.09231  0.073229  0  1.028761  0
H  H22  1  0.48223049  0.01420044  0.12768384  1  0  0.063043  0  0.95736  0  0  0.073563  0  1.027055  0  0  0.074349  0  1.026413  0  0.077498  0  0.092228  0.072876  0  1.027679  0
H  H23  1  0.51773516  0.98581549  0.62767449  1  0  0.063119  0  0.957292  0  0  0.073622  0  1.027015  0  0  0.074407  0  1.026375  0  0.076978  0  0.092231  0.072942  0  1.027634  0
H  H24  1  0.98565221  0.51692912  0.62773683  1  0  0.063328  0  0.957762  0  0  0.073931  0  1.027992  0  0  0.07474  0  1.027312  0  0.076847  0  0.092338  0.073238  0  1.028643  0
H  H25  1  0.01431200  0.48308200  0.12773995  1  0  0.063283  0  0.957933  0  0  0.073942  0  1.02809  0  0  0.074749  0  1.027412  0  0.076525  0  0.09239  0.073259  0  1.028732  0
H  H26  1  0.51772957  0.98580827  0.87232614  1  0  0.063096  0  0.957305  0  0  0.073675  0  1.026958  0  0  0.074462  0  1.026316  0  0.076936  0  0.092249  0.07299  0  1.027588  0
H  H27  1  0.48222904  0.01419562  0.37231492  1  0  0.063035  0  0.957372  0  0  0.0735  0  1.027113  0  0  0.074285  0  1.02647  0  0.077296  0  0.092219  0.072816  0  1.027733  0
H  H28  1  0.95987036  0.28977267  0.32596424  1  0  0.051485  0  0.922339  0  0  0.063798  0  0.99124  0  0  0.06486  0  0.989716  0  0.05465  0  0.101291  0.062934  0  0.99246  0
H  H29  1  0.04010187  0.71023484  0.82596486  1  0  0.051408  0  0.922502  0  0  0.06383  0  0.991282  0  0  0.064905  0  0.989733  0  0.0547  0  0.101287  0.062949  0  0.992518  0
H  H30  1  0.29013953  0.95909566  0.17402392  1  0  0.052126  0  0.922185  0  0  0.064035  0  0.990941  0  0  0.065096  0  0.989417  0  0.058108  0  0.101237  0.063155  0  0.992171  0
H  H31  1  0.70982524  0.04092869  0.67401644  1  0  0.052136  0  0.922142  0  0  0.064087  0  0.990877  0  0  0.065146  0  0.989349  0  0.034407  0  0.101225  0.063209  0  0.992109  0
H  H32  1  0.04010379  0.71023364  0.67403265  1  0  0.051325  0  0.922479  0  0  0.063773  0  0.991243  0  0  0.064849  0  0.989692  0  0.059205  0  0.101256  0.062879  0  0.992509  0
H  H33  1  0.95986922  0.28977267  0.17403389  1  0  0.051506  0  0.922304  0  0  0.063808  0  0.991239  0  0  0.06488  0  0.989692  0  0.05913  0  0.101285  0.062935  0  0.992479  0
H  H34  1  0.70981959  0.04092508  0.82598356  1  0  0.052161  0  0.922112  0  0  0.064126  0  0.990838  0  0  0.065184  0  0.989316  0  0.038912  0  0.101247  0.06325  0  0.99207  0
H  H35  1  0.29013695  0.95909085  0.32597608  1  0  0.052135  0  0.922216  0  0  0.064039  0  0.990947  0  0  0.065102  0  0.989417  0  0.053579  0  0.101231  0.063159  0  0.992178  0
H  H36  1  0.71985070  0.21669114  0.40596498  1  0  0.053312  0  0.926749  0  0  0.067396  0  0.993923  0  0  0.067914  0  0.993418  0  0.063339  0  0.103273  0.066897  0  0.994396  0
H  H37  1  0.28012327  0.78335247  0.90596311  1  0  0.053145  0  0.926778  0  0  0.067094  0  0.994117  0  0  0.067642  0  0.993583  0  0.062905  0  0.103197  0.066599  0  0.994586  0
H  H38  1  0.21645469  0.71843550  0.09372140  1  0  0.052654  0  0.928152  0  0  0.066393  0  0.996147  0  0  0.066856  0  0.995697  0  0.058121  0  0.103162  0.065959  0  0.996565  0
H  H39  1  0.78351417  0.28159487  0.59372077  1  0  0.052479  0  0.92817  0  0  0.066213  0  0.996196  0  0  0.066692  0  0.995744  0  0.057965  0  0.103138  0.065769  0  0.996616  0
H  H40  1  0.28011680  0.78335367  0.59403689  1  0  0.053125  0  0.926814  0  0  0.067047  0  0.994163  0  0  0.067597  0  0.993628  0  0.063257  0  0.103196  0.066552  0  0.994633  0
H  H41  1  0.71985334  0.21669234  0.09403315  1  0  0.053291  0  0.92677  0  0  0.067378  0  0.993915  0  0  0.067902  0  0.993404  0  0.063399  0  0.103259  0.06688  0  0.994385  0
H  H42  1  0.78351914  0.28159246  0.90627673  1  0  0.052476  0  0.92821  0  0  0.066256  0  0.996213  0  0  0.066731  0  0.995779  0  0.057989  0  0.103136  0.065824  0  0.996622  0
H  H43  1  0.21645966  0.71843309  0.40627923  1  0  0.052657  0  0.928203  0  0  0.066376  0  0.996184  0  0  0.066836  0  0.995736  0  0.058155  0  0.103167  0.065943  0  0.996602  0
H  H44  1  0.77753162  0.41080308  0.45358759  1  0  0.061227  0  0.917083  0  0  0.078675  0  0.976956  0  0  0.07892  0  0.976576  0  0.062004  0  0.107237  0.078333  0  0.977432  0
H  H45  1  0.22246783  0.58923811  0.95358635  1  0  0.061136  0  0.917235  0  0  0.078643  0  0.977015  0  0  0.078887  0  0.976641  0  0.062199  0  0.107183  0.078296  0  0.977502  0
H  H46  1  0.40896780  0.77550077  0.04571845  1  0  0.061622  0  0.915833  0  0  0.079241  0  0.975527  0  0  0.079501  0  0.975132  0  0.067214  0  0.107478  0.078928  0  0.975978  0
H  H47  1  0.59100995  0.22454403  0.54571409  1  0  0.061715  0  0.915875  0  0  0.079327  0  0.97555  0  0  0.079594  0  0.975171  0  0.067267  0  0.107471  0.078969  0  0.976052  0
H  H48  1  0.22246820  0.58923932  0.54641552  1  0  0.061141  0  0.917251  0  0  0.078628  0  0.977039  0  0  0.078867  0  0.976671  0  0.062224  0  0.107187  0.078283  0  0.977521  0
H  H49  1  0.77752970  0.41080429  0.04641116  1  0  0.06123  0  0.917076  0  0  0.07866  0  0.976945  0  0  0.078912  0  0.976558  0  0.061993  0  0.10722  0.078319  0  0.97742  0
H  H50  1  0.59101440  0.22455125  0.95428342  1  0  0.061747  0  0.915805  0  0  0.079332  0  0.975551  0  0  0.079603  0  0.975167  0  0.067364  0  0.107469  0.078975  0  0.976055  0
H  H51  1  0.40896708  0.77549837  0.45428591  1  0  0.06164  0  0.915829  0  0  0.07925  0  0.975503  0  0  0.079504  0  0.975115  0  0.067147  0  0.107478  0.078936  0  0.975954  0
H  H52  1  0.41804952  0.31001981  0.67503398  1  0  0.384535  0  0.924304  0  0  0.359306  0  0.986378  0  0  0.368871  0  0.972206  0  0.591622  0  0.254293  0.352523  0  0.99642  0
H  H53  1  0.58202787  0.68976147  0.17503523  1  0  0.384022  0  0.9244  0  0  0.358936  0  0.986721  0  0  0.368499  0  0.972553  0  0.592713  0  0.254269  0.352152  0  0.996765  0
H  H54  1  0.31031240  0.41874503  0.82487935  1  0  0.383592  0  0.925794  0  0  0.35847  0  0.98754  0  0  0.368022  0  0.973391  0  0.590927  0  0.254113  0.351694  0  0.997572  0
H  H55  1  0.68996402  0.58118667  0.32488808  1  0  0.382655  0  0.926702  0  0  0.357547  0  0.988775  0  0  0.367101  0  0.974622  0  0.589609  0  0.253736  0.350772  0  0.998805  0
H  H56  1  0.58201444  0.68979637  0.32496851  1  0  0.384168  0  0.924289  0  0  0.359001  0  0.986631  0  0  0.368566  0  0.972463  0  0.592632  0  0.254307  0.352216  0  0.996676  0
H  H57  1  0.41808307  0.30996085  0.82496415  1  0  0.384716  0  0.924391  0  0  0.3595  0  0.986141  0  0  0.369058  0  0.971983  0  0.593388  0  0.254366  0.352717  0  0.996182  0
H  H58  1  0.69001456  0.58118426  0.17512065  1  0  0.382761  0  0.92674  0  0  0.35773  0  0.988621  0  0  0.367285  0  0.974464  0  0.589049  0  0.253768  0.350952  0  0.998655  0
H  H59  1  0.31022312  0.41874743  0.67511940  1  0  0.38344  0  0.926069  0  0  0.358229  0  0.987927  0  0  0.367781  0  0.973776  0  0.590787  0  0.253946  0.351453  0  0.997958  0
C  C60  1  0.19610284  0.36493956  0.37966032  1  0  0.064517  0  3.672869  0  0  0.00528  0  3.946298  0  0  0.01162  0  3.952872  0  0.442073  0  -0.073264  0.001075  0  3.941691  0
C  C61  1  0.80387006  0.63507396  0.87966780  1  0  0.064299  0  3.673074  0  0  0.005132  0  3.946449  0  0  0.011462  0  3.953028  0  0.44245  0  -0.073298  0.000918  0  3.94183  0
C  C62  1  0.36435130  0.19703001  0.12053359  1  0  0.065223  0  3.673036  0  0  0.005188  0  3.946981  0  0  0.011456  0  3.953562  0  0.413834  0  -0.073459  0.001014  0  3.942342  0
C  C63  1  0.63562667  0.80300036  0.62052735  1  0  0.065339  0  3.672969  0  0  0.00541  0  3.946689  0  0  0.011714  0  3.95326  0  0.407497  0  -0.07349  0.001236  0  3.942055  0
C  C64  1  0.80386887  0.63507757  0.62033407  1  0  0.064418  0  3.672989  0  0  0.005167  0  3.946518  0  0  0.011472  0  3.953124  0  0.442369  0  -0.073318  0.000955  0  3.941894  0
C  C65  1  0.19610201  0.36494437  0.12034093  1  0  0.064484  0  3.672868  0  0  0.00526  0  3.94633  0  0  0.011599  0  3.952898  0  0.442099  0  -0.073257  0.001045  0  3.941726  0
C  C66  1  0.63562336  0.80299314  0.87947327  1  0  0.065333  0  3.672861  0  0  0.005317  0  3.946737  0  0  0.011625  0  3.953307  0  0.407584  0  -0.073528  0.001145  0  3.942103  0
C  C67  1  0.36435021  0.19702640  0.37946517  1  0  0.06524  0  3.673072  0  0  0.005179  0  3.946973  0  0  0.011442  0  3.953563  0  0.4137  0  -0.073491  0.001005  0  3.942337  0
C  C68  1  0.02352693  0.36046078  0.37970459  1  0  0.047751  0  3.676099  0  0  -0.010889  0  3.950466  0  0  -0.005082  0  3.956648  0  0.388445  0  -0.081273  -0.014819  0  3.946281  0
C  C69  1  0.97644633  0.63955394  0.87970334  1  0  0.048015  0  3.676084  0  0  -0.010641  0  3.950287  0  0  -0.004836  0  3.956482  0  0.388337  0  -0.081106  -0.014533  0  3.94605  0
C  C70  1  0.36037981  0.02346484  0.12036337  1  0  0.04686  0  3.678069  0  0  -0.010261  0  3.950402  0  0  -0.004428  0  3.956613  0  0.390654  0  -0.080868  -0.014142  0  3.946092  0
C  C71  1  0.63959179  0.97655952  0.62035464  1  0  0.046796  0  3.678072  0  0  -0.010458  0  3.950514  0  0  -0.004616  0  3.956698  0  0.409969  0  -0.080836  -0.014351  0  3.946221  0
C  C72  1  0.97644447  0.63955154  0.62029479  1  0  0.048094  0  3.6759  0  0  -0.010536  0  3.950118  0  0  -0.004727  0  3.956323  0  0.388397  0  -0.081074  -0.014432  0  3.94588  0
C  C73  1  0.02352688  0.36046439  0.12029541  1  0  0.04777  0  3.67602  0  0  -0.010888  0  3.950403  0  0  -0.005077  0  3.956583  0  0.388297  0  -0.081269  -0.014821  0  3.946219  0
C  C74  1  0.63958729  0.97655591  0.87964536  1  0  0.046784  0  3.67813  0  0  -0.010529  0  3.950628  0  0  -0.004687  0  3.956809  0  0.409913  0  -0.080905  -0.01443  0  3.946345  0
C  C75  1  0.36037909  0.02346243  0.37963538  1  0  0.04682  0  3.678139  0  0  -0.010209  0  3.950362  0  0  -0.004374  0  3.956571  0  0.39086  0  -0.080863  -0.014095  0  3.94606  0
C  C76  1  0.78604111  0.28728299  0.45905254  1  0  0.057587  0  3.670975  0  0  -0.001047  0  3.944758  0  0  0.005023  0  3.951336  0  0.420546  0  -0.074064  -0.005033  0  3.940168  0
C  C77  1  0.21393417  0.71274979  0.95905191  1  0  0.058178  0  3.670966  0  0  -0.000379  0  3.944699  0  0  0.005657  0  3.95125  0  0.421365  0  -0.073936  -0.004373  0  3.940127  0
C  C78  1  0.28651330  0.78494326  0.04059581  1  0  0.058625  0  3.673348  0  0  -0.000712  0  3.948128  0  0  0.005347  0  3.954789  0  0.399433  0  -0.073488  -0.004755  0  3.943494  0
C  C79  1  0.71345887  0.21509432  0.54059332  1  0  0.058983  0  3.673354  0  0  -0.000343  0  3.948109  0  0  0.005655  0  3.95487  0  0.400361  0  -0.073416  -0.004349  0  3.943454  0
C  C80  1  0.21393417  0.71274979  0.54094746  1  0  0.058175  0  3.671008  0  0  -0.000315  0  3.944657  0  0  0.005716  0  3.951212  0  0.420997  0  -0.073926  -0.00431  0  3.940085  0
C  C81  1  0.78604375  0.28728419  0.04094559  1  0  0.057542  0  3.670922  0  0  -0.000991  0  3.944611  0  0  0.005072  0  3.951187  0  0.420579  0  -0.073999  -0.004976  0  3.940024  0
C  C82  1  0.71346001  0.21509432  0.95940419  1  0  0.059036  0  3.673264  0  0  -0.000392  0  3.948136  0  0  0.005598  0  3.954904  0  0.400198  0  -0.073446  -0.004414  0  3.943503  0
C  C83  1  0.28651449  0.78493965  0.45940481  1  0  0.0586  0  3.673506  0  0  -0.000668  0  3.948159  0  0  0.005399  0  3.95481  0  0.399422  0  -0.073487  -0.004714  0  3.943526  0
Cl  Cl84  1  0.07720480  0.36196614  0.75001434  1  0  -0.781481  0  0.668692  0  0  -0.72082  0  0.873286  0  0  -0.736906  0  0.854102  0  -0.79846  0  -0.462502  -0.708904  0  0.886591  0
Cl  Cl85  1  0.92307196  0.63817132  0.25000499  1  0  -0.781327  0  0.668901  0  0  -0.720535  0  0.873432  0  0  -0.73663  0  0.854244  0  -0.797913  0  -0.462361  -0.708621  0  0.886737  0
Cl  Cl86  1  0.36157171  0.07616686  0.74998628  1  0  -0.781495  0  0.666186  0  0  -0.720954  0  0.869762  0  0  -0.737015  0  0.850584  0  -0.796237  0  -0.460461  -0.709056  0  0.883071  0
Cl  Cl87  1  0.63826245  0.92352538  0.24999564  1  0  -0.781508  0  0.666342  0  0  -0.720889  0  0.869928  0  0  -0.736957  0  0.85074  0  -0.796404  0  -0.460423  -0.708992  0  0.88324  0
O  O88  1  0.20355748  0.20352436  0.37717070  1  0  -0.354726  0  2.299621  0  0  -0.284613  0  2.556542  0  0  -0.300473  0  2.55801  0  -1.072885  0  -0.292657  -0.273378  0  2.55504  0
O  O89  1  0.79641490  0.79649879  0.87717943  1  0  -0.354697  0  2.299512  0  0  -0.284739  0  2.556536  0  0  -0.300594  0  2.55798  0  -1.071854  0  -0.292731  -0.273504  0  2.555034  0
O  O90  1  0.20355779  0.20352917  0.12282868  1  0  -0.354675  0  2.299501  0  0  -0.284576  0  2.556434  0  0  -0.300437  0  2.557901  0  -1.072172  0  -0.292665  -0.273342  0  2.554936  0
O  O91  1  0.79641676  0.79650120  0.62282182  1  0  -0.354724  0  2.299634  0  0  -0.284763  0  2.556654  0  0  -0.300614  0  2.558109  0  -1.072705  0  -0.292747  -0.273527  0  2.555152  0
O  O92  1  0.94961062  0.28964993  0.45605477  1  0  -0.35584  0  2.288648  0  0  -0.287479  0  2.547098  0  0  -0.303654  0  2.549534  0  -1.068216  0  -0.296745  -0.276014  0  2.545004  0
O  O93  1  0.05036756  0.71036600  0.95605664  1  0  -0.356159  0  2.288917  0  0  -0.287848  0  2.547388  0  0  -0.30403  0  2.549838  0  -1.068451  0  -0.296766  -0.276388  0  2.545286  0
O  O94  1  0.28989759  0.94975305  0.04391780  1  0  -0.354046  0  2.29068  0  0  -0.285862  0  2.548682  0  0  -0.302023  0  2.551119  0  -1.069906  0  -0.293911  -0.274436  0  2.546599  0
O  O95  1  0.71007385  0.05028213  0.54391156  1  0  -0.354133  0  2.290825  0  0  -0.285887  0  2.548832  0  0  -0.302026  0  2.551279  0  -1.070113  0  -0.293919  -0.274456  0  2.546733  0
O  O96  1  0.05036084  0.71035878  0.54394211  1  0  -0.356106  0  2.288775  0  0  -0.28787  0  2.547277  0  0  -0.304049  0  2.549723  0  -1.068477  0  -0.296783  -0.276409  0  2.545177  0
O  O97  1  0.94961171  0.28965354  0.04394274  1  0  -0.355813  0  2.288553  0  0  -0.287488  0  2.547004  0  0  -0.303665  0  2.549443  0  -1.068084  0  -0.29675  -0.276022  0  2.544911  0
O  O98  1  0.71006857  0.05027973  0.95608844  1  0  -0.354168  0  2.290811  0  0  -0.285888  0  2.548864  0  0  -0.302026  0  2.551315  0  -1.070121  0  -0.293866  -0.274447  0  2.546767  0
O  O99  1  0.28989651  0.94974944  0.45608158  1  0  -0.353976  0  2.290636  0  0  -0.285837  0  2.548588  0  0  -0.302  0  2.551019  0  -1.069835  0  -0.293846  -0.274407  0  2.546506  0
O  O100  1  0.39780582  0.39834025  0.64269263  1  0  -0.848063  0  1.777295  0  0  -0.806198  0  1.922091  0  0  -0.822808  0  1.894428  0  -1.247221  0  -0.675767  -0.794357  0  1.941458  0
O  O101  1  0.60235550  0.60146630  0.14269637  1  0  -0.846782  0  1.778091  0  0  -0.805365  0  1.922687  0  0  -0.821983  0  1.89506  0  -1.247  0  -0.675614  -0.79352  0  1.942042  0
O  O102  1  0.39789548  0.39831257  0.85729802  1  0  -0.848334  0  1.777442  0  0  -0.806554  0  1.92198  0  0  -0.823163  0  1.894317  0  -1.249317  0  -0.675934  -0.794716  0  1.941358  0
O  O103  1  0.60233057  0.60150842  0.35731298  1  0  -0.846829  0  1.777715  0  0  -0.80519  0  1.922959  0  0  -0.821762  0  1.895245  0  -1.247197  0  -0.675606  -0.79335  0  1.942318  0
