# generated using pymatgen
data_CdH12C18N2(O3F2)2
_symmetry_space_group_name_H-M   'P 1'
_cell_length_a   7.12380911
_cell_length_b   7.91442030
_cell_length_c   8.27039227
_cell_angle_alpha   85.90951458
_cell_angle_beta   72.11119746
_cell_angle_gamma   86.91581667
_symmetry_Int_Tables_number   1
_chemical_formula_structural   CdH12C18N2(O3F2)2
_chemical_formula_sum   'Cd1 H12 C18 N2 O6 F4'
_cell_volume   442.36810197
_cell_formula_units_Z   1
loop_
 _symmetry_equiv_pos_site_id
 _symmetry_equiv_pos_as_xyz
  1  'x, y, z'
loop_
 _atom_site_type_symbol
 _atom_site_label
 _atom_site_symmetry_multiplicity
 _atom_site_fract_x
 _atom_site_fract_y
 _atom_site_fract_z
 _atom_site_occupancy
 _atom_site_pbe_bader_spin_density
 _atom_site_pbe_cm5_charge
 _atom_site_pbe_ddec_charge
 _atom_site_pbe_ddec_spin_density
 _atom_site_pbe_ddec_sum_bond_order
 _atom_site_pbe_magmom
Cd  Cd0  1  0.00000577  0.99999787  0.99999845  1  0  0.76972  0.923609  0  2.153672  0
H  H1  1  0.35695176  0.86435067  0.09818760  1  0  0.286973  0.386109  0  0.949812  0
H  H2  1  0.64305392  0.13565081  0.90181458  1  0  0.286959  0.386087  0  0.949867  0
H  H3  1  0.38702501  0.93587212  0.91076371  1  0  0.281824  0.368801  0  0.978926  0
H  H4  1  0.61298073  0.06412556  0.08923867  1  0  0.281824  0.368839  0  0.978866  0
H  H5  1  0.86461312  0.40365282  0.79243859  1  0  0.110826  0.129161  0  1.010515  0
H  H6  1  0.13538377  0.59634505  0.20756249  1  0  0.11083  0.129121  0  1.010527  0
H  H7  1  0.13643198  0.96369104  0.59266026  1  0  0.113975  0.089066  0  1.018558  0
H  H8  1  0.86357086  0.03630291  0.40734069  1  0  0.113984  0.089058  0  1.018558  0
H  H9  1  0.13987371  0.76375444  0.37717070  1  0  0.109622  0.120514  0  1.01926  0
H  H10  1  0.86011875  0.23624354  0.62282912  1  0  0.109595  0.120527  0  1.019229  0
H  H11  1  0.86557026  0.62184329  0.98779364  1  0  0.110627  0.078934  0  1.035728  0
H  H12  1  0.13443849  0.37815053  0.01220939  1  0  0.110625  0.078914  0  1.035819  0
C  C13  1  0.00029770  0.56253210  0.56248095  1  0  0.011152  0.092571  0  3.966173  0
C  C14  1  0.99969619  0.43746838  0.43751835  1  0  0.011153  0.092697  0  3.966084  0
C  C15  1  0.47763261  0.50485578  0.67147613  1  0  0.087265  0.150353  0  4.096533  0
C  C16  1  0.52235531  0.49514989  0.32852323  1  0  0.087313  0.150463  0  4.096431  0
C  C17  1  0.92459998  0.52587051  0.73886618  1  0  -0.078593  -0.159138  0  3.919732  0
C  C18  1  0.07539840  0.47412607  0.26113458  1  0  -0.078609  -0.15912  0  3.919727  0
C  C19  1  0.43470449  0.35625129  0.61140033  1  0  -0.030429  -0.223106  0  4.05351  0
C  C20  1  0.56528639  0.64375302  0.38860196  1  0  -0.030279  -0.223016  0  4.053353  0
C  C21  1  0.07471925  0.83867361  0.63117033  1  0  0.043771  0.093392  0  3.945366  0
C  C22  1  0.92528952  0.16131899  0.36882793  1  0  0.043835  0.093472  0  3.9455  0
C  C23  1  0.54218747  0.64613307  0.56182317  1  0  0.08758  0.152129  0  4.104186  0
C  C24  1  0.45780635  0.35387250  0.43817464  1  0  0.087643  0.152179  0  4.104041  0
C  C25  1  0.36311898  0.20238623  0.73085674  1  0  0.220558  0.626925  0  4.20706  0
C  C26  1  0.63688663  0.79762036  0.26914152  1  0  0.220615  0.627006  0  4.206835  0
C  C27  1  0.07686617  0.72421253  0.51065789  1  0  -0.079726  -0.164208  0  3.941803  0
C  C28  1  0.92313372  0.27578149  0.48934263  1  0  -0.079718  -0.164301  0  3.941932  0
C  C29  1  0.92539900  0.64810609  0.85101959  1  0  0.044126  0.098479  0  3.946437  0
C  C30  1  0.07460973  0.35188903  0.14897973  1  0  0.044068  0.098423  0  3.946572  0
N  N31  1  0.99861041  0.80283326  0.79956109  1  0  -0.327148  -0.241288  0  3.484472  0
N  N32  1  0.00139242  0.19716196  0.20043979  1  0  -0.327144  -0.241265  0  3.484412  0
O  O33  1  0.49082633  0.11064995  0.77616185  1  0  -0.302353  -0.548037  0  2.220019  0
O  O34  1  0.50917479  0.88936049  0.22383979  1  0  -0.302393  -0.548116  0  2.219927  0
O  O35  1  0.29919702  0.86300817  0.00372030  1  0  -0.598623  -0.768279  0  2.080471  0
O  O36  1  0.70081023  0.13698695  0.99628183  1  0  -0.598629  -0.768298  0  2.080459  0
O  O37  1  0.17891145  0.18076039  0.77306336  1  0  -0.315116  -0.548349  0  2.24856  0
O  O38  1  0.82109278  0.81923994  0.22693081  1  0  -0.315121  -0.548374  0  2.24852  0
F  F39  1  0.58253366  0.78866447  0.62463048  1  0  -0.081012  -0.095163  0  1.415549  0
F  F40  1  0.41745717  0.21134369  0.37536676  1  0  -0.081049  -0.095215  0  1.415514  0
F  F41  1  0.45711060  0.51184683  0.83937913  1  0  -0.080246  -0.100765  0  1.424503  0
F  F42  1  0.54288612  0.48816247  0.16061890  1  0  -0.080277  -0.100789  0  1.424393  0
