# generated using pymatgen
data_AlC24(OF2)6
_symmetry_space_group_name_H-M   'P 1'
_cell_length_a   3.97094250
_cell_length_b   29.08863773
_cell_length_c   29.08906965
_cell_angle_alpha   119.99872505
_cell_angle_beta   90.00078501
_cell_angle_gamma   89.99865208
_symmetry_Int_Tables_number   1
_chemical_formula_structural   AlC24(OF2)6
_chemical_formula_sum   'Al2 C48 O12 F24'
_cell_volume   2909.93323126
_cell_formula_units_Z   2
loop_
 _symmetry_equiv_pos_site_id
 _symmetry_equiv_pos_as_xyz
  1  'x, y, z'
loop_
 _atom_site_type_symbol
 _atom_site_label
 _atom_site_symmetry_multiplicity
 _atom_site_fract_x
 _atom_site_fract_y
 _atom_site_fract_z
 _atom_site_occupancy
 _atom_site_pbe_bader_charge
 _atom_site_pbe_bader_spin_density
 _atom_site_pbe_cm5_charge
 _atom_site_pbe_ddec_charge
 _atom_site_pbe_ddec_spin_density
 _atom_site_pbe_ddec_sum_bond_order
 _atom_site_pbe_magmom
Al  Al0  1  0.00002969  0.49999837  0.49999977  1  2.50543  0  0.432654  1.598294  0  2.573097  0
Al  Al1  1  0.99958947  0.16666398  0.83334493  1  2.506247  0  0.432085  1.597608  0  2.57427  0
C  C2  1  0.50000876  0.45936020  0.41871449  1  1.582575  0  0.287234  0.702816  0  4.04217  0
C  C3  1  0.49999947  0.45935465  0.54064299  1  1.60252  0  0.287129  0.702423  0  4.042458  0
C  C4  1  0.49999930  0.58128566  0.54063993  1  1.58309  0  0.287245  0.70294  0  4.042155  0
C  C5  1  0.49957184  0.20731577  0.79270739  1  1.598982  0  0.287451  0.703065  0  4.041403  0
C  C6  1  0.49957956  0.08537655  0.79269391  1  1.586151  0  0.287454  0.703303  0  4.041306  0
C  C7  1  0.49963306  0.20730576  0.91462866  1  1.581403  0  0.287535  0.702975  0  4.041791  0
C  C8  1  0.49962332  0.23701104  0.76300887  1  -0.011175  0  -0.021887  -0.223335  0  4.003972  0
C  C9  1  0.49239293  0.20993028  0.70743044  1  0.679717  0  0.095761  0.159365  0  4.105386  0
C  C10  1  0.49635309  0.23741331  0.67969728  1  0.439074  0  0.098596  0.133403  0  4.072505  0
C  C11  1  0.49981484  0.29337321  0.70662638  1  0.315673  0  -0.013768  -0.051618  0  4.185494  0
C  C12  1  0.50316458  0.32031616  0.76259218  1  0.434416  0  0.098485  0.132927  0  4.073205  0
C  C13  1  0.50705647  0.29259129  0.79007835  1  0.682106  0  0.095788  0.159871  0  4.105312  0
C  C14  1  0.49985650  0.32125087  0.67874679  1  -0.021146  0  -0.024437  -0.038016  0  4.084118  0
C  C15  1  0.49990368  0.34540007  0.65459006  1  -0.245861  0  -0.024838  -0.038363  0  4.083834  0
C  C16  1  0.49995793  0.37328006  0.62670884  1  0.319884  0  -0.013429  -0.050801  0  4.185107  0
C  C17  1  0.50325397  0.34634266  0.57074503  1  0.431516  0  0.098498  0.132558  0  4.073299  0
C  C18  1  0.50721160  0.37407453  0.54325873  1  0.68181  0  0.095936  0.160484  0  4.104366  0
C  C19  1  0.50003360  0.42965225  0.57033557  1  -0.011117  0  -0.02197  -0.223504  0  4.003948  0
C  C20  1  0.49280396  0.45673440  0.62591538  1  0.681659  0  0.095844  0.16001  0  4.10486  0
C  C21  1  0.49668325  0.42924433  0.65364389  1  0.435345  0  0.098516  0.132874  0  4.073192  0
C  C22  1  0.49964861  0.02598513  0.76299268  1  0.21861  0  -0.021845  -0.223185  0  4.004067  0
C  C23  1  0.49239364  0.99747621  0.79006513  1  0.485744  0  0.09568  0.159396  0  4.105638  0
C  C24  1  0.49633558  0.94226767  0.76258063  1  0.688755  0  0.098393  0.13306  0  4.073371  0
C  C25  1  0.49983326  0.91323646  0.70661499  1  0.214211  0  -0.013825  -0.051579  0  4.185322  0
C  C26  1  0.50319397  0.94227474  0.67968483  1  0.473194  0  0.098573  0.133112  0  4.072603  0
C  C27  1  0.50707135  0.99748273  0.70741532  1  0.572567  0  0.095876  0.15986  0  4.105063  0
C  C28  1  0.49986180  0.85748764  0.67873985  1  -0.261866  0  -0.024659  -0.038084  0  4.083649  0
C  C29  1  0.49991507  0.80917558  0.65458190  1  0.071094  0  -0.024447  -0.038144  0  4.083472  0
C  C30  1  0.49996375  0.75342217  0.62670653  1  0.093634  0  -0.013714  -0.051303  0  4.185113  0
C  C31  1  0.50327904  0.72438643  0.65363964  1  0.475752  0  0.098583  0.13281  0  4.073381  0
C  C32  1  0.50721845  0.66918028  0.62591418  1  0.572103  0  0.095832  0.160218  0  4.104966  0
C  C33  1  0.50002594  0.64067414  0.57033584  1  0.219052  0  -0.021985  -0.223539  0  4.003865  0
C  C34  1  0.49278971  0.66918084  0.54326074  1  0.484526  0  0.095817  0.160185  0  4.104785  0
C  C35  1  0.49667967  0.72438697  0.57074007  1  0.689197  0  0.098669  0.132979  0  4.07339  0
C  C36  1  0.49967621  0.23700737  0.97402156  1  0.219834  0  -0.021958  -0.223093  0  4.003941  0
C  C37  1  0.49243796  0.29258635  0.00251915  1  0.572487  0  0.095799  0.159424  0  4.105322  0
C  C38  1  0.49636932  0.32032017  0.05773125  1  0.474115  0  0.098407  0.1331  0  4.072776  0
C  C39  1  0.49981296  0.29338752  0.08676623  1  0.212949  0  -0.013704  -0.051409  0  4.185683  0
C  C40  1  0.50319583  0.23742266  0.05774101  1  0.692647  0  0.098525  0.13292  0  4.073324  0
C  C41  1  0.50707368  0.20993230  0.00252746  1  0.484934  0  0.095919  0.159912  0  4.104906  0
C  C42  1  0.49987120  0.32126812  0.14251770  1  -0.265216  0  -0.024822  -0.038232  0  4.083535  0
C  C43  1  0.49990925  0.34542627  0.19082885  1  0.070914  0  -0.024337  -0.038023  0  4.083602  0
C  C44  1  0.49997252  0.37330317  0.24658058  1  0.094063  0  -0.013661  -0.051272  0  4.185509  0
C  C45  1  0.50328580  0.42926692  0.27561104  1  0.689166  0  0.098469  0.13253  0  4.073186  0
C  C46  1  0.50722222  0.45675144  0.33082354  1  0.483699  0  0.095917  0.160549  0  4.10463  0
C  C47  1  0.50002857  0.42967117  0.35932344  1  0.21923  0  -0.02188  -0.223343  0  4.003907  0
C  C48  1  0.49279934  0.37409107  0.33082032  1  0.57241  0  0.09569  0.159728  0  4.105376  0
C  C49  1  0.49666965  0.34636459  0.27561120  1  0.476597  0  0.098644  0.133106  0  4.073242  0
O  O50  1  0.73654001  0.55838344  0.55085012  1  -1.236689  0  -0.22579  -0.581952  0  2.356584  0
O  O51  1  0.73654789  0.49246864  0.44161526  1  -1.23538  0  -0.225775  -0.581895  0  2.356642  0
O  O52  1  0.73656224  0.44914366  0.50753446  1  -1.240811  0  -0.225763  -0.581685  0  2.356611  0
O  O53  1  0.26349659  0.55838497  0.50753171  1  -1.235999  0  -0.22565  -0.581846  0  2.357027  0
O  O54  1  0.26350672  0.49246385  0.55085260  1  -1.24116  0  -0.22567  -0.581635  0  2.357193  0
O  O55  1  0.26351270  0.44914876  0.44161490  1  -1.236724  0  -0.22576  -0.581927  0  2.357092  0
O  O56  1  0.73610002  0.17418587  0.89172083  1  -1.235577  0  -0.225752  -0.581874  0  2.356564  0
O  O57  1  0.73608820  0.21751972  0.82582163  1  -1.240201  0  -0.225725  -0.582102  0  2.356503  0
O  O58  1  0.73610286  0.10828892  0.78248874  1  -1.239318  0  -0.22581  -0.582155  0  2.356384  0
O  O59  1  0.26304999  0.21750950  0.89173520  1  -1.235303  0  -0.225857  -0.581682  0  2.356715  0
O  O60  1  0.26306610  0.10827020  0.82579467  1  -1.236272  0  -0.225696  -0.581675  0  2.356793  0
O  O61  1  0.26306101  0.17421350  0.78249834  1  -1.239555  0  -0.225846  -0.581532  0  2.35693  0
F  F62  1  0.49197555  0.15647327  0.67994010  1  -0.58843  0  -0.077246  -0.084468  0  1.357058  0
F  F63  1  0.50735135  0.32008781  0.84353598  1  -0.588934  0  -0.077455  -0.084869  0  1.356761  0
F  F64  1  0.50175367  0.37368412  0.78977832  1  -0.591965  0  -0.076826  -0.087563  0  1.361625  0
F  F65  1  0.49786380  0.21021789  0.62632838  1  -0.591751  0  -0.0769  -0.08772  0  1.361072  0
F  F66  1  0.50164545  0.29297486  0.54355667  1  -0.592139  0  -0.076773  -0.087502  0  1.361742  0
F  F67  1  0.49825241  0.45643497  0.70701000  1  -0.591674  0  -0.076907  -0.087662  0  1.361557  0
F  F68  1  0.49256406  0.51019397  0.65340867  1  -0.588715  0  -0.077375  -0.084827  0  1.356556  0
F  F69  1  0.50747830  0.34657640  0.48979790  1  -0.589133  0  -0.07748  -0.085036  0  1.356398  0
F  F70  1  0.49196936  0.02343951  0.84352421  1  -0.635543  0  -0.077235  -0.084571  0  1.35659  0
F  F71  1  0.50736343  0.02344766  0.67991943  1  -0.589667  0  -0.077465  -0.084887  0  1.356438  0
F  F72  1  0.50179345  0.91609721  0.62631562  1  -0.626435  0  -0.076887  -0.087663  0  1.361291  0
F  F73  1  0.49781228  0.91608588  0.78976955  1  -0.59119  0  -0.076683  -0.087503  0  1.361381  0
F  F74  1  0.50169538  0.75056492  0.70700584  1  -0.629115  0  -0.076888  -0.087565  0  1.361523  0
F  F75  1  0.49823248  0.75056718  0.54355273  1  -0.590869  0  -0.076963  -0.087688  0  1.361536  0
F  F76  1  0.49254759  0.64321502  0.48979876  1  -0.635173  0  -0.077454  -0.084986  0  1.356254  0
F  F77  1  0.50749140  0.64321325  0.65341155  1  -0.589757  0  -0.077353  -0.084898  0  1.356387  0
F  F78  1  0.49202884  0.32007924  0.97655043  1  -0.589735  0  -0.077246  -0.084551  0  1.356626  0
F  F79  1  0.50736641  0.15647458  0.97657148  1  -0.635594  0  -0.077425  -0.084843  0  1.356831  0
F  F80  1  0.50176142  0.21023470  0.08392299  1  -0.590828  0  -0.076809  -0.087601  0  1.361534  0
F  F81  1  0.49783929  0.37368739  0.08390401  1  -0.627099  0  -0.076808  -0.087606  0  1.361336  0
F  F82  1  0.50169322  0.45645880  0.24943338  1  -0.591313  0  -0.076788  -0.087496  0  1.361487  0
F  F83  1  0.49822668  0.29299762  0.24943473  1  -0.630337  0  -0.076947  -0.087651  0  1.361449  0
F  F84  1  0.49255358  0.34659630  0.35678798  1  -0.589434  0  -0.077331  -0.084741  0  1.356615  0
F  F85  1  0.50750605  0.51021118  0.35678554  1  -0.634883  0  -0.077498  -0.085107  0  1.356428  0
