# generated using pymatgen
data_ZnH11C15N3Cl2O
_symmetry_space_group_name_H-M   'P 1'
_cell_length_a   7.33115940
_cell_length_b   10.22566880
_cell_length_c   19.87000126
_cell_angle_alpha   89.99985961
_cell_angle_beta   89.99982282
_cell_angle_gamma   92.00618311
_symmetry_Int_Tables_number   1
_chemical_formula_structural   ZnH11C15N3Cl2O
_chemical_formula_sum   'Zn4 H44 C60 N12 Cl8 O4'
_cell_volume   1488.66164554
_cell_formula_units_Z   4
loop_
 _symmetry_equiv_pos_site_id
 _symmetry_equiv_pos_as_xyz
  1  'x, y, z'
loop_
 _atom_site_type_symbol
 _atom_site_label
 _atom_site_symmetry_multiplicity
 _atom_site_fract_x
 _atom_site_fract_y
 _atom_site_fract_z
 _atom_site_occupancy
 _atom_site_hle17_bader_spin_density
 _atom_site_hle17_ddec_charge
 _atom_site_hle17_ddec_spin_density
 _atom_site_hle17_ddec_sum_bond_order
 _atom_site_hle17_magmom
 _atom_site_hse06_10hf_bader_spin_density
 _atom_site_hse06_10hf_ddec_charge
 _atom_site_hse06_10hf_ddec_spin_density
 _atom_site_hse06_10hf_ddec_sum_bond_order
 _atom_site_hse06_10hf_magmom
 _atom_site_hse06_bader_spin_density
 _atom_site_hse06_ddec_charge
 _atom_site_hse06_ddec_spin_density
 _atom_site_hse06_ddec_sum_bond_order
 _atom_site_hse06_magmom
 _atom_site_pbe_bader_spin_density
 _atom_site_pbe_cm5_charge
 _atom_site_pbe_ddec_charge
 _atom_site_pbe_ddec_spin_density
 _atom_site_pbe_ddec_sum_bond_order
 _atom_site_pbe_magmom
Zn  Zn0  1  0.75797924  0.70908838  0.73205040  1  0  0.835267  0  2.133053  0  0  0.65582  0  2.627796  0  0  0.696036  0  2.58204  0  0  0.558111  0.628144  0  2.658856  0
Zn  Zn1  1  0.74202585  0.79091925  0.23205391  1  0  0.835282  0  2.13308  0  0  0.655798  0  2.627797  0  0  0.696028  0  2.58205  0  0  0.558103  0.628117  0  2.658877  0
Zn  Zn2  1  0.24202255  0.29091419  0.26794983  1  0  0.835253  0  2.1331  0  0  0.655777  0  2.627858  0  0  0.696004  0  2.582106  0  0  0.558103  0.628099  0  2.658921  0
Zn  Zn3  1  0.25797443  0.20908039  0.76794683  1  0  0.835239  0  2.133118  0  0  0.655714  0  2.627887  0  0  0.695937  0  2.582141  0  0  0.558086  0.628034  0  2.658966  0
H  H4  1  0.37752153  0.67472250  0.78372754  1  0  0.08004  0  0.966939  0  0  0.085979  0  1.035741  0  0  0.088722  0  1.033344  0  0  0.104543  0.083813  0  1.037858  0
H  H5  1  0.12248297  0.82527154  0.28373366  1  0  0.080033  0  0.966829  0  0  0.086  0  1.035633  0  0  0.088728  0  1.033252  0  0  0.104583  0.083834  0  1.037747  0
H  H6  1  0.62247323  0.32527617  0.21626867  1  0  0.080097  0  0.966862  0  0  0.086006  0  1.035701  0  0  0.088747  0  1.03331  0  0  0.104571  0.083841  0  1.037813  0
H  H7  1  0.87752509  0.17472026  0.71626959  1  0  0.080108  0  0.966888  0  0  0.086032  0  1.035708  0  0  0.088774  0  1.033313  0  0  0.104586  0.083868  0  1.037821  0
H  H8  1  0.21123579  0.54456259  0.86953898  1  0  0.109683  0  0.968365  0  0  0.117799  0  1.031544  0  0  0.12133  0  1.029869  0  0  0.105519  0.11526  0  1.032989  0
H  H9  1  0.28876778  0.95542712  0.36954827  1  0  0.109675  0  0.968235  0  0  0.117747  0  1.031459  0  0  0.121277  0  1.029786  0  0  0.105485  0.115209  0  1.032905  0
H  H10  1  0.78875761  0.45543608  0.13045722  1  0  0.109726  0  0.96838  0  0  0.117811  0  1.031592  0  0  0.121342  0  1.029917  0  0  0.105494  0.115271  0  1.033038  0
H  H11  1  0.71123351  0.04456567  0.63045699  1  0  0.10961  0  0.968432  0  0  0.117732  0  1.031616  0  0  0.121262  0  1.029943  0  0  0.105479  0.115191  0  1.033058  0
H  H12  1  0.72962029  0.38250507  0.92614422  1  0  0.115506  0  0.975125  0  0  0.119583  0  1.04427  0  0  0.124033  0  1.042044  0  0  0.102487  0.116412  0  1.045926  0
H  H13  1  0.77038634  0.11750109  0.42615043  1  0  0.115545  0  0.97502  0  0  0.119631  0  1.044152  0  0  0.124087  0  1.041909  0  0  0.102473  0.116457  0  1.045815  0
H  H14  1  0.27037628  0.61750241  0.07385450  1  0  0.115518  0  0.975178  0  0  0.119628  0  1.044235  0  0  0.124075  0  1.042016  0  0  0.102478  0.116449  0  1.045914  0
H  H15  1  0.22961545  0.88250149  0.57384728  1  0  0.115617  0  0.975052  0  0  0.119732  0  1.04412  0  0  0.124185  0  1.041885  0  0  0.102526  0.116555  0  1.045798  0
H  H16  1  0.87149963  0.51950123  0.83732372  1  0  0.080073  0  0.948787  0  0  0.088198  0  1.015011  0  0  0.091025  0  1.011907  0  0  0.107065  0.086007  0  1.01742  0
H  H17  1  0.62850733  0.98050686  0.33732813  1  0  0.080069  0  0.948773  0  0  0.088139  0  1.015045  0  0  0.090965  0  1.011943  0  0  0.107044  0.085953  0  1.017444  0
H  H18  1  0.12849709  0.48050918  0.16267550  1  0  0.080091  0  0.948778  0  0  0.088222  0  1.014987  0  0  0.091048  0  1.011881  0  0  0.107095  0.086035  0  1.017387  0
H  H19  1  0.37149971  0.01949180  0.66266959  1  0  0.080036  0  0.948788  0  0  0.088141  0  1.015043  0  0  0.090968  0  1.011935  0  0  0.107046  0.085954  0  1.017446  0
H  H20  1  0.09380043  0.45396948  0.94477212  1  0  0.11737  0  0.960356  0  0  0.121923  0  1.02878  0  0  0.126405  0  1.023746  0  0  0.126078  0.118653  0  1.032512  0
H  H21  1  0.40621049  0.04603303  0.44477223  1  0  0.117301  0  0.960388  0  0  0.121897  0  1.02878  0  0  0.126381  0  1.023749  0  0  0.126062  0.118627  0  1.032515  0
H  H22  1  0.90620398  0.54603114  0.05522962  1  0  0.117258  0  0.960365  0  0  0.121898  0  1.028715  0  0  0.126385  0  1.023687  0  0  0.126061  0.118629  0  1.032447  0
H  H23  1  0.59378473  0.95397444  0.55522700  1  0  0.117223  0  0.960335  0  0  0.121896  0  1.028668  0  0  0.126376  0  1.023656  0  0  0.126029  0.118637  0  1.032365  0
H  H24  1  0.08302071  0.16642621  0.08917397  1  0  0.113272  0  0.974896  0  0  0.12034  0  1.04391  0  0  0.124415  0  1.039287  0  0  0.11782  0.117379  0  1.047114  0
H  H25  1  0.41698647  0.33357904  0.58917414  1  0  0.113246  0  0.974835  0  0  0.120341  0  1.043828  0  0  0.124416  0  1.039205  0  0  0.117808  0.117373  0  1.047035  0
H  H26  1  0.91698361  0.83357245  0.91082475  1  0  0.113347  0  0.974856  0  0  0.120421  0  1.043855  0  0  0.124497  0  1.039229  0  0  0.117806  0.117445  0  1.047072  0
H  H27  1  0.58301093  0.66641767  0.41082961  1  0  0.113272  0  0.974928  0  0  0.120304  0  1.043974  0  0  0.124381  0  1.039344  0  0  0.117781  0.117334  0  1.047189  0
H  H28  1  0.59343670  0.25302724  0.98501755  1  0  0.116544  0  0.965415  0  0  0.127124  0  1.02766  0  0  0.131064  0  1.024352  0  0  0.110652  0.124217  0  1.030205  0
H  H29  1  0.90656605  0.24696591  0.48502244  1  0  0.116609  0  0.96531  0  0  0.127197  0  1.027528  0  0  0.131133  0  1.02423  0  0  0.110666  0.124289  0  1.030075  0
H  H30  1  0.40656645  0.74697534  0.01498218  1  0  0.116591  0  0.965355  0  0  0.127146  0  1.027622  0  0  0.131099  0  1.024299  0  0  0.110667  0.124237  0  1.030168  0
H  H31  1  0.09343139  0.75303178  0.51497981  1  0  0.116637  0  0.965209  0  0  0.127207  0  1.027457  0  0  0.131155  0  1.024144  0  0  0.110682  0.124296  0  1.030007  0
H  H32  1  0.19250243  0.98588927  0.11406870  1  0  0.106674  0  0.962938  0  0  0.115086  0  1.02655  0  0  0.11845  0  1.025017  0  0  0.104075  0.112598  0  1.028026  0
H  H33  1  0.30750119  0.51411345  0.61406790  1  0  0.106647  0  0.962946  0  0  0.115051  0  1.026577  0  0  0.118415  0  1.025044  0  0  0.104059  0.112566  0  1.028046  0
H  H34  1  0.80749906  0.01410744  0.88592448  1  0  0.106592  0  0.962952  0  0  0.115007  0  1.026589  0  0  0.118373  0  1.025054  0  0  0.104025  0.11252  0  1.028059  0
H  H35  1  0.69249918  0.48588815  0.38592881  1  0  0.106646  0  0.962945  0  0  0.115068  0  1.026554  0  0  0.118432  0  1.025023  0  0  0.104057  0.112579  0  1.028025  0
H  H36  1  0.35330305  0.83567562  0.18866961  1  0  0.083776  0  0.968445  0  0  0.087225  0  1.0409  0  0  0.090029  0  1.038595  0  0  0.1049  0.084963  0  1.042983  0
H  H37  1  0.14670295  0.66433260  0.68866679  1  0  0.083804  0  0.968404  0  0  0.087244  0  1.040862  0  0  0.090051  0  1.038556  0  0  0.104873  0.084981  0  1.042949  0
H  H38  1  0.64669581  0.16432305  0.81132559  1  0  0.083758  0  0.968413  0  0  0.08718  0  1.040884  0  0  0.089983  0  1.038583  0  0  0.104897  0.084918  0  1.042969  0
H  H39  1  0.85330444  0.33567291  0.31133093  1  0  0.083812  0  0.968439  0  0  0.087273  0  1.04086  0  0  0.090079  0  1.038555  0  0  0.104904  0.085014  0  1.042942  0
H  H40  1  0.85815877  0.00104776  0.13784046  1  0  0.076669  0  0.961019  0  0  0.084179  0  1.029089  0  0  0.086847  0  1.025894  0  0  0.104709  0.082086  0  1.031616  0
H  H41  1  0.64184456  0.49895394  0.63784275  1  0  0.076665  0  0.960976  0  0  0.084184  0  1.029036  0  0  0.086851  0  1.02584  0  0  0.104715  0.082087  0  1.031561  0
H  H42  1  0.14183868  0.99894993  0.86216078  1  0  0.076682  0  0.960962  0  0  0.0842  0  1.029049  0  0  0.086867  0  1.025855  0  0  0.104706  0.082111  0  1.031568  0
H  H43  1  0.35815581  0.50104766  0.36216201  1  0  0.076685  0  0.961053  0  0  0.084207  0  1.029122  0  0  0.086875  0  1.025926  0  0  0.104718  0.082097  0  1.031661  0
H  H44  1  0.72135374  0.16809135  0.06520833  1  0  0.119203  0  0.988681  0  0  0.122618  0  1.057889  0  0  0.127757  0  1.054985  0  0  0.103776  0.118963  0  1.060046  0
H  H45  1  0.77865280  0.33190778  0.56521118  1  0  0.119167  0  0.98876  0  0  0.122608  0  1.057926  0  0  0.127746  0  1.055023  0  0  0.103773  0.118956  0  1.060074  0
H  H46  1  0.27864795  0.83190927  0.93479341  1  0  0.119205  0  0.988805  0  0  0.122638  0  1.057989  0  0  0.127776  0  1.055085  0  0  0.103778  0.118982  0  1.060145  0
H  H47  1  0.22134339  0.66809187  0.43479157  1  0  0.119236  0  0.988868  0  0  0.122668  0  1.058039  0  0  0.127806  0  1.055137  0  0  0.103781  0.119015  0  1.060188  0
C  C48  1  0.71083582  0.00278215  0.13103732  1  0  0.141977  0  3.699847  0  0  0.109128  0  3.948104  0  0  0.116999  0  3.966031  0  0  0.044293  0.10414  0  3.93551  0
C  C49  1  0.78917161  0.49721860  0.63103744  1  0  0.141972  0  3.699788  0  0  0.109154  0  3.94808  0  0  0.117025  0  3.966006  0  0  0.044299  0.104166  0  3.935485  0
C  C50  1  0.28916455  0.99721945  0.86896240  1  0  0.141905  0  3.699732  0  0  0.109007  0  3.948062  0  0  0.116877  0  3.965986  0  0  0.044249  0.104018  0  3.935467  0
C  C51  1  0.21083665  0.50277712  0.36896330  1  0  0.141943  0  3.69969  0  0  0.10906  0  3.948018  0  0  0.11693  0  3.965949  0  0  0.044248  0.104091  0  3.935419  0
C  C52  1  0.44922236  0.60835417  0.81660272  1  0  0.134861  0  3.702436  0  0  0.102792  0  3.949048  0  0  0.10983  0  3.967594  0  0  0.044349  0.098084  0  3.937315  0
C  C53  1  0.05078645  0.89164949  0.31661086  1  0  0.13501  0  3.702554  0  0  0.10285  0  3.949199  0  0  0.109901  0  3.967749  0  0  0.044278  0.098149  0  3.93746  0
C  C54  1  0.55076988  0.39164841  0.18339650  1  0  0.13482  0  3.702512  0  0  0.102736  0  3.949173  0  0  0.109775  0  3.967717  0  0  0.044314  0.098033  0  3.93743  0
C  C55  1  0.94921650  0.10834917  0.68339441  1  0  0.134786  0  3.70249  0  0  0.102669  0  3.949133  0  0  0.10971  0  3.96768  0  0  0.04422  0.097965  0  3.93739  0
C  C56  1  0.35752104  0.53398087  0.86497474  1  0  -0.142952  0  3.692391  0  0  -0.161713  0  3.938457  0  0  -0.169439  0  3.959538  0  0  -0.078636  -0.157343  0  3.925406  0
C  C57  1  0.14247571  0.96600789  0.36497864  1  0  -0.142935  0  3.692674  0  0  -0.161607  0  3.938726  0  0  -0.169332  0  3.959804  0  0  -0.078603  -0.157238  0  3.925672  0
C  C58  1  0.64247656  0.46601975  0.13502298  1  0  -0.143008  0  3.692374  0  0  -0.161698  0  3.938444  0  0  -0.169424  0  3.959526  0  0  -0.078637  -0.157329  0  3.925387  0
C  C59  1  0.85751998  0.03398197  0.63502209  1  0  -0.142795  0  3.692658  0  0  -0.161531  0  3.938659  0  0  -0.169256  0  3.959739  0  0  -0.078544  -0.15716  0  3.925603  0
C  C60  1  0.45373141  0.44791871  0.90586049  1  0  0.106779  0  3.734026  0  0  0.120302  0  3.958648  0  0  0.124954  0  3.9816  0  0  0.016293  0.116958  0  3.943913  0
C  C61  1  0.04627560  0.05208107  0.40586554  1  0  0.106658  0  3.734028  0  0  0.120162  0  3.958632  0  0  0.124817  0  3.981582  0  0  0.016294  0.116816  0  3.943901  0
C  C62  1  0.54626356  0.55208388  0.09413873  1  0  0.106916  0  3.733851  0  0  0.12037  0  3.958565  0  0  0.125022  0  3.981518  0  0  0.016375  0.117031  0  3.943828  0
C  C63  1  0.95372609  0.94791955  0.59413469  1  0  0.106785  0  3.73398  0  0  0.120322  0  3.95856  0  0  0.124975  0  3.981511  0  0  0.016261  0.116975  0  3.943834  0
C  C64  1  0.64318703  0.44421561  0.89589863  1  0  -0.153951  0  3.679782  0  0  -0.172468  0  3.931386  0  0  -0.18148  0  3.953378  0  0  -0.0834  -0.166286  0  3.916497  0
C  C65  1  0.85681537  0.05578287  0.39590181  1  0  -0.153957  0  3.680125  0  0  -0.172489  0  3.931703  0  0  -0.1815  0  3.953696  0  0  -0.083396  -0.166304  0  3.916804  0
C  C66  1  0.35680687  0.55579285  0.10409958  1  0  -0.154114  0  3.679934  0  0  -0.172587  0  3.931484  0  0  -0.181602  0  3.953475  0  0  -0.083455  -0.166412  0  3.916597  0
C  C67  1  0.14318880  0.94421286  0.60409591  1  0  -0.154168  0  3.680004  0  0  -0.172696  0  3.931536  0  0  -0.181709  0  3.953526  0  0  -0.08345  -0.166522  0  3.916657  0
C  C68  1  0.72525624  0.52238250  0.84663533  1  0  0.140486  0  3.700719  0  0  0.104031  0  3.956605  0  0  0.111724  0  3.974634  0  0  0.042309  0.099404  0  3.943736  0
C  C69  1  0.77475464  0.97762358  0.34664410  1  0  0.140352  0  3.701092  0  0  0.10395  0  3.956972  0  0  0.111637  0  3.975016  0  0  0.042277  0.09932  0  3.944097  0
C  C70  1  0.27474028  0.47762399  0.15336339  1  0  0.140456  0  3.700685  0  0  0.103986  0  3.956594  0  0  0.111672  0  3.974637  0  0  0.042231  0.099357  0  3.943724  0
C  C71  1  0.22524832  0.02237508  0.65335814  1  0  0.140499  0  3.701007  0  0  0.10403  0  3.956903  0  0  0.111724  0  3.974939  0  0  0.042287  0.099399  0  3.94404  0
C  C72  1  0.35936487  0.36407417  0.95661903  1  0  0.030613  0  3.780427  0  0  0.047948  0  4.020474  0  0  0.044327  0  4.041746  0  0  0.00129  0.049907  0  4.006341  0
C  C73  1  0.14063903  0.13592633  0.45662235  1  0  0.030827  0  3.78035  0  0  0.048235  0  4.020348  0  0  0.044609  0  4.041626  0  0  0.001395  0.050191  0  4.006223  0
C  C74  1  0.64064237  0.63592840  0.04338120  1  0  0.030575  0  3.780368  0  0  0.047919  0  4.02046  0  0  0.044296  0  4.041737  0  0  0.001266  0.049872  0  4.006333  0
C  C75  1  0.85935185  0.86407625  0.54337989  1  0  0.030736  0  3.780436  0  0  0.04806  0  4.020499  0  0  0.044442  0  4.041772  0  0  0.001338  0.050015  0  4.006371  0
C  C76  1  0.17393873  0.37970938  0.96822707  1  0  -0.006021  0  3.570352  0  0  -0.067645  0  3.826399  0  0  -0.059424  0  3.835233  0  0  0.040072  -0.072632  0  3.820436  0
C  C77  1  0.32607325  0.12029105  0.46823071  1  0  -0.006027  0  3.570298  0  0  -0.067745  0  3.826415  0  0  -0.059524  0  3.835254  0  0  0.040063  -0.07274  0  3.820463  0
C  C78  1  0.82605765  0.62029418  0.03177165  1  0  -0.005862  0  3.570675  0  0  -0.067642  0  3.826667  0  0  -0.059433  0  3.835517  0  0  0.040085  -0.072632  0  3.820705  0
C  C79  1  0.67393627  0.87970271  0.53176801  1  0  -0.005825  0  3.570695  0  0  -0.067636  0  3.826627  0  0  -0.059431  0  3.835479  0  0  0.040154  -0.072612  0  3.82066  0
C  C80  1  0.16692839  0.21298256  0.05030424  1  0  -0.035029  0  3.563986  0  0  -0.094194  0  3.810704  0  0  -0.087782  0  3.82235  0  0  0.033746  -0.097714  0  3.802495  0
C  C81  1  0.33307614  0.28701799  0.55030206  1  0  -0.035044  0  3.564239  0  0  -0.09423  0  3.810975  0  0  -0.087816  0  3.822619  0  0  0.033711  -0.097748  0  3.802769  0
C  C82  1  0.83307071  0.78702100  0.94969548  1  0  -0.035145  0  3.56402  0  0  -0.094377  0  3.810696  0  0  -0.087964  0  3.822339  0  0  0.033705  -0.097889  0  3.802496  0
C  C83  1  0.66691570  0.71297676  0.44969566  1  0  -0.035021  0  3.564037  0  0  -0.09422  0  3.810695  0  0  -0.087801  0  3.822333  0  0  0.033725  -0.097739  0  3.802499  0
C  C84  1  0.35200908  0.19210444  0.04080340  1  0  0.03014  0  3.794768  0  0  0.047422  0  4.03647  0  0  0.043759  0  4.058842  0  0  -0.001701  0.04943  0  4.021454  0
C  C85  1  0.14799689  0.30789615  0.54080643  1  0  0.030195  0  3.794796  0  0  0.047445  0  4.036494  0  0  0.043807  0  4.058881  0  0  -0.001628  0.049454  0  4.021475  0
C  C86  1  0.64799260  0.80789618  0.95919382  1  0  0.030227  0  3.794853  0  0  0.047435  0  4.03663  0  0  0.043786  0  4.059013  0  0  -0.001714  0.049443  0  4.02161  0
C  C87  1  0.85200747  0.69210349  0.45919481  1  0  0.030284  0  3.79458  0  0  0.047494  0  4.036347  0  0  0.043847  0  4.058733  0  0  -0.001663  0.049504  0  4.021332  0
C  C88  1  0.44891952  0.26801391  0.99304530  1  0  -0.108007  0  3.6345  0  0  -0.149239  0  3.890238  0  0  -0.145779  0  3.905771  0  0  -0.074501  -0.15115  0  3.880006  0
C  C89  1  0.05108372  0.23197956  0.49304760  1  0  -0.108096  0  3.634511  0  0  -0.149333  0  3.890219  0  0  -0.145864  0  3.90576  0  0  -0.074514  -0.151241  0  3.879985  0
C  C90  1  0.55108773  0.73198866  0.00695342  1  0  -0.108039  0  3.63443  0  0  -0.149224  0  3.890178  0  0  -0.14577  0  3.9057  0  0  -0.074493  -0.15113  0  3.879944  0
C  C91  1  0.94890963  0.76801813  0.50695213  1  0  -0.108252  0  3.634386  0  0  -0.14945  0  3.890136  0  0  -0.145997  0  3.905668  0  0  -0.074597  -0.151356  0  3.8799  0
C  C92  1  0.44158235  0.09330904  0.08259656  1  0  0.109201  0  3.741659  0  0  0.121659  0  3.967213  0  0  0.126591  0  3.990557  0  0  0.01597  0.118322  0  3.952026  0
C  C93  1  0.05842332  0.40669233  0.58259756  1  0  0.109131  0  3.741703  0  0  0.121683  0  3.967133  0  0  0.126526  0  3.990588  0  0  0.015989  0.118344  0  3.95195  0
C  C94  1  0.55842222  0.90669451  0.91740015  1  0  0.10933  0  3.7418  0  0  0.121835  0  3.967306  0  0  0.126719  0  3.990707  0  0  0.016045  0.118495  0  3.952124  0
C  C95  1  0.94157145  0.59330634  0.41740217  1  0  0.10928  0  3.741719  0  0  0.121793  0  3.967217  0  0  0.126665  0  3.990634  0  0  0.016009  0.118445  0  3.952048  0
C  C96  1  0.34031410  0.99617329  0.11786378  1  0  -0.152558  0  3.696438  0  0  -0.170106  0  3.940812  0  0  -0.178227  0  3.961978  0  0  -0.080319  -0.165729  0  3.927602  0
C  C97  1  0.15968560  0.50383332  0.61786417  1  0  -0.152463  0  3.6965  0  0  -0.170034  0  3.940825  0  0  -0.178132  0  3.962028  0  0  -0.080283  -0.165661  0  3.927614  0
C  C98  1  0.65968330  0.00382342  0.88213192  1  0  -0.152539  0  3.696614  0  0  -0.170105  0  3.940944  0  0  -0.178216  0  3.962129  0  0  -0.080298  -0.165715  0  3.927709  0
C  C99  1  0.84031629  0.49617121  0.38213657  1  0  -0.152541  0  3.69655  0  0  -0.170113  0  3.940906  0  0  -0.17822  0  3.962094  0  0  -0.080282  -0.165732  0  3.927701  0
C  C100  1  0.42890115  0.91027929  0.15971733  1  0  0.13489  0  3.691189  0  0  0.104754  0  3.936809  0  0  0.111858  0  3.955142  0  0  0.047411  0.100139  0  3.925033  0
C  C101  1  0.07110359  0.58972613  0.65971419  1  0  0.134782  0  3.691125  0  0  0.104705  0  3.936757  0  0  0.111808  0  3.955084  0  0  0.047374  0.10009  0  3.924988  0
C  C102  1  0.57109367  0.08972036  0.84028039  1  0  0.134862  0  3.691097  0  0  0.104763  0  3.93672  0  0  0.111866  0  3.955049  0  0  0.04736  0.100146  0  3.924952  0
C  C103  1  0.92889941  0.41027351  0.34028303  1  0  0.134749  0  3.69109  0  0  0.104639  0  3.936706  0  0  0.111744  0  3.955037  0  0  0.047351  0.100018  0  3.924935  0
C  C104  1  0.63229874  0.09455442  0.08970767  1  0  -0.1585  0  3.674813  0  0  -0.174334  0  3.919248  0  0  -0.183525  0  3.939988  0  0  -0.08321  -0.167803  0  3.905161  0
C  C105  1  0.86770359  0.40544655  0.58970882  1  0  -0.158506  0  3.674956  0  0  -0.17436  0  3.919314  0  0  -0.183525  0  3.940083  0  0  -0.083233  -0.167826  0  3.905216  0
C  C106  1  0.36769866  0.90544229  0.91029709  1  0  -0.158523  0  3.674741  0  0  -0.174359  0  3.919139  0  0  -0.183534  0  3.939891  0  0  -0.08318  -0.167825  0  3.90505  0
C  C107  1  0.13229970  0.59455896  0.41029544  1  0  -0.158595  0  3.674623  0  0  -0.174424  0  3.919016  0  0  -0.183597  0  3.939775  0  0  -0.08318  -0.167891  0  3.904921  0
N  N108  1  0.61180364  0.91361688  0.16662915  1  0  -0.315879  0  3.320381  0  0  -0.228456  0  3.587919  0  0  -0.247722  0  3.604252  0  0  -0.332734  -0.215187  0  3.576557  0
N  N109  1  0.88819771  0.58638716  0.66662866  1  0  -0.315776  0  3.320084  0  0  -0.22851  0  3.587795  0  0  -0.247768  0  3.60411  0  0  -0.332738  -0.215243  0  3.576431  0
N  N110  1  0.38818966  0.08637983  0.83336957  1  0  -0.315788  0  3.320437  0  0  -0.228341  0  3.587961  0  0  -0.247608  0  3.604296  0  0  -0.332684  -0.215082  0  3.576612  0
N  N111  1  0.11180685  0.41361639  0.33337308  1  0  -0.315745  0  3.320383  0  0  -0.228389  0  3.588026  0  0  -0.247648  0  3.604342  0  0  -0.332729  -0.215126  0  3.576661  0
N  N112  1  0.07907456  0.30404668  0.01345321  1  0  0.252331  0  3.826577  0  0  0.341657  0  4.041047  0  0  0.342252  0  4.063531  0  0  -0.112005  0.340479  0  4.02577  0
N  N113  1  0.42092079  0.19595503  0.51345405  1  0  0.252509  0  3.826609  0  0  0.341838  0  4.041135  0  0  0.342431  0  4.063618  0  0  -0.111969  0.340664  0  4.025855  0
N  N114  1  0.92092132  0.69594709  0.98655004  1  0  0.252051  0  3.826916  0  0  0.341627  0  4.041102  0  0  0.342221  0  4.063591  0  0  -0.112018  0.340447  0  4.025824  0
N  N115  1  0.57907135  0.80404559  0.48654920  1  0  0.252065  0  3.827161  0  0  0.341674  0  4.041268  0  0  0.342269  0  4.06375  0  0  -0.112042  0.340493  0  4.025989  0
N  N116  1  0.63055465  0.60253667  0.80711093  1  0  -0.322798  0  3.347906  0  0  -0.234088  0  3.617706  0  0  -0.253825  0  3.634843  0  0  -0.337158  -0.220625  0  3.605717  0
N  N117  1  0.86944824  0.89746668  0.30711516  1  0  -0.322824  0  3.347601  0  0  -0.234076  0  3.617391  0  0  -0.253815  0  3.634526  0  0  -0.337084  -0.220604  0  3.605392  0
N  N118  1  0.36943910  0.39746885  0.19288629  1  0  -0.322743  0  3.347851  0  0  -0.234012  0  3.617652  0  0  -0.253746  0  3.63478  0  0  -0.337076  -0.220541  0  3.60564  0
N  N119  1  0.13056275  0.10252904  0.69288406  1  0  -0.322753  0  3.347695  0  0  -0.233973  0  3.61743  0  0  -0.253715  0  3.634569  0  0  -0.337026  -0.220496  0  3.605425  0
Cl  Cl120  1  0.52106189  0.78253228  0.67380087  1  0  -0.561686  0  0.959348  0  0  -0.499781  0  1.242067  0  0  -0.516347  0  1.220263  0  0  -0.304402  -0.487214  0  1.256981  0
Cl  Cl121  1  0.97894233  0.71747564  0.17380420  1  0  -0.561692  0  0.95937  0  0  -0.499785  0  1.242073  0  0  -0.51635  0  1.220264  0  0  -0.304397  -0.487213  0  1.256994  0
Cl  Cl122  1  0.47894141  0.21747323  0.32619987  1  0  -0.56169  0  0.959362  0  0  -0.499768  0  1.242051  0  0  -0.516337  0  1.220245  0  0  -0.304406  -0.487203  0  1.256966  0
Cl  Cl123  1  0.02105668  0.28252596  0.82619653  1  0  -0.561691  0  0.959334  0  0  -0.499754  0  1.242016  0  0  -0.516319  0  1.220206  0  0  -0.304393  -0.487183  0  1.256936  0
Cl  Cl124  1  0.98900080  0.81949726  0.78165714  1  0  -0.560106  0  0.961066  0  0  -0.499029  0  1.243458  0  0  -0.515435  0  1.222794  0  0  -0.309139  -0.486777  0  1.25779  0
Cl  Cl125  1  0.51100640  0.68050621  0.28166005  1  0  -0.560109  0  0.961032  0  0  -0.499038  0  1.243428  0  0  -0.515431  0  1.222731  0  0  -0.30915  -0.486781  0  1.257765  0
Cl  Cl126  1  0.01100630  0.18050238  0.21834360  1  0  -0.560087  0  0.961049  0  0  -0.499028  0  1.243461  0  0  -0.515432  0  1.22279  0  0  -0.309153  -0.486776  0  1.257797  0
Cl  Cl127  1  0.48899003  0.31949833  0.71834119  1  0  -0.56011  0  0.96108  0  0  -0.499044  0  1.243495  0  0  -0.515428  0  1.222786  0  0  -0.309158  -0.486788  0  1.257835  0
O  O128  1  0.90520287  0.32092688  0.02255337  1  0  -0.517875  0  1.715553  0  0  -0.494503  0  1.916484  0  0  -0.519415  0  1.918995  0  0  -0.238257  -0.476893  0  1.914476  0
O  O129  1  0.59480846  0.17907930  0.52255411  1  0  -0.518029  0  1.715265  0  0  -0.494674  0  1.916254  0  0  -0.519589  0  1.918761  0  0  -0.238329  -0.477063  0  1.914239  0
O  O130  1  0.09479891  0.67907569  0.97744636  1  0  -0.517728  0  1.71557  0  0  -0.494437  0  1.916408  0  0  -0.51935  0  1.918921  0  0  -0.238206  -0.476811  0  1.914381  0
O  O131  1  0.40518737  0.82091350  0.47744914  1  0  -0.517761  0  1.715517  0  0  -0.494511  0  1.916355  0  0  -0.519426  0  1.918865  0  0  -0.238204  -0.476888  0  1.914331  0
