# generated using pymatgen
data_AgH11C7SBrN2
_symmetry_space_group_name_H-M   'P 1'
_cell_length_a   6.65357780
_cell_length_b   10.78449276
_cell_length_c   14.20090846
_cell_angle_alpha   89.99972995
_cell_angle_beta   90.00057030
_cell_angle_gamma   104.43378874
_symmetry_Int_Tables_number   1
_chemical_formula_structural   AgH11C7SBrN2
_chemical_formula_sum   'Ag4 H44 C28 S4 Br4 N8'
_cell_volume   986.82959548
_cell_formula_units_Z   4
loop_
 _symmetry_equiv_pos_site_id
 _symmetry_equiv_pos_as_xyz
  1  'x, y, z'
loop_
 _atom_site_type_symbol
 _atom_site_label
 _atom_site_symmetry_multiplicity
 _atom_site_fract_x
 _atom_site_fract_y
 _atom_site_fract_z
 _atom_site_occupancy
 _atom_site_hle17_bader_spin_density
 _atom_site_hle17_ddec_charge
 _atom_site_hle17_ddec_spin_density
 _atom_site_hle17_ddec_sum_bond_order
 _atom_site_hle17_magmom
 _atom_site_hse06_10hf_bader_spin_density
 _atom_site_hse06_10hf_ddec_charge
 _atom_site_hse06_10hf_ddec_spin_density
 _atom_site_hse06_10hf_ddec_sum_bond_order
 _atom_site_hse06_10hf_magmom
 _atom_site_hse06_bader_spin_density
 _atom_site_hse06_ddec_charge
 _atom_site_hse06_ddec_spin_density
 _atom_site_hse06_ddec_sum_bond_order
 _atom_site_hse06_magmom
 _atom_site_pbe_bader_spin_density
 _atom_site_pbe_cm5_charge
 _atom_site_pbe_ddec_charge
 _atom_site_pbe_ddec_spin_density
 _atom_site_pbe_ddec_sum_bond_order
 _atom_site_pbe_magmom
Ag  Ag0  1  0.74296560  0.99469424  0.02122607  1  0  0.356034  0  1.832026  0  0  0.259821  0  2.33258  0  0  0.28287  0  2.28783  0  0  0.249103  0.24329  0  2.363716  0
Ag  Ag1  1  0.75703622  0.50529846  0.52121683  1  0  0.355978  0  1.832042  0  0  0.259754  0  2.332565  0  0  0.282815  0  2.287814  0  0  0.249077  0.243227  0  2.363686  0
Ag  Ag2  1  0.25703058  0.00529924  0.97878376  1  0  0.355988  0  1.83187  0  0  0.259759  0  2.332387  0  0  0.282813  0  2.287638  0  0  0.24905  0.243225  0  2.363516  0
Ag  Ag3  1  0.24295625  0.49470077  0.47877468  1  0  0.355986  0  1.831953  0  0  0.259763  0  2.332466  0  0  0.282816  0  2.287724  0  0  0.24908  0.243234  0  2.36359  0
H  H4  1  0.13070630  0.35289257  0.74757438  1  0  0.120261  0  1.00516  0  0  0.127601  0  1.070201  0  0  0.13089  0  1.068666  0  0  0.107554  0.125257  0  1.071399  0
H  H5  1  0.36928922  0.14711488  0.24759252  1  0  0.120217  0  1.005364  0  0  0.127625  0  1.070326  0  0  0.130913  0  1.068792  0  0  0.10761  0.125297  0  1.071501  0
H  H6  1  0.86929151  0.64711623  0.25241714  1  0  0.120166  0  1.004905  0  0  0.127416  0  1.070076  0  0  0.130702  0  1.068545  0  0  0.107525  0.125088  0  1.071254  0
H  H7  1  0.63068787  0.85288720  0.75242294  1  0  0.120341  0  1.005469  0  0  0.127642  0  1.070513  0  0  0.130927  0  1.068983  0  0  0.107587  0.125281  0  1.07173  0
H  H8  1  0.77767879  0.25014781  0.64389893  1  0  0.111326  0  0.998946  0  0  0.117549  0  1.070202  0  0  0.120596  0  1.068216  0  0  0.108702  0.115416  0  1.071588  0
H  H9  1  0.72229157  0.24985991  0.14390685  1  0  0.111436  0  0.99889  0  0  0.117646  0  1.070127  0  0  0.120699  0  1.068144  0  0  0.108704  0.115518  0  1.071519  0
H  H10  1  0.22231561  0.74985620  0.35609399  1  0  0.111394  0  0.999128  0  0  0.117612  0  1.070332  0  0  0.120662  0  1.068351  0  0  0.108707  0.115478  0  1.071719  0
H  H11  1  0.27767649  0.75014215  0.85609735  1  0  0.111349  0  0.998972  0  0  0.117558  0  1.070221  0  0  0.12061  0  1.068241  0  0  0.108697  0.115425  0  1.07161  0
H  H12  1  0.07612454  0.23998199  0.98009902  1  0  0.063706  0  0.959555  0  0  0.06995  0  1.045764  0  0  0.071661  0  1.043143  0  0  0.090812  0.068683  0  1.04748  0
H  H13  1  0.42387848  0.26001708  0.48010785  1  0  0.063735  0  0.959542  0  0  0.069981  0  1.045799  0  0  0.071692  0  1.043163  0  0  0.090782  0.06871  0  1.047521  0
H  H14  1  0.92389356  0.76002492  0.01989321  1  0  0.063761  0  0.959629  0  0  0.070064  0  1.045817  0  0  0.071771  0  1.043197  0  0  0.090814  0.068796  0  1.047537  0
H  H15  1  0.57611172  0.73998023  0.51990479  1  0  0.063689  0  0.959526  0  0  0.069931  0  1.045758  0  0  0.071644  0  1.043124  0  0  0.090784  0.068662  0  1.047479  0
H  H16  1  0.96927373  0.37281398  0.99740894  1  0  0.067231  0  0.929492  0  0  0.085363  0  0.989776  0  0  0.085576  0  0.990457  0  0  0.10265  0.08511  0  0.989424  0
H  H17  1  0.53073660  0.12718886  0.49742273  1  0  0.067195  0  0.929367  0  0  0.085346  0  0.989687  0  0  0.085558  0  0.990363  0  0  0.102591  0.08509  0  0.989332  0
H  H18  1  0.03074962  0.62719103  0.00258398  1  0  0.067308  0  0.929248  0  0  0.085469  0  0.989553  0  0  0.085686  0  0.990227  0  0  0.102624  0.085213  0  0.989198  0
H  H19  1  0.46925811  0.87280845  0.50258569  1  0  0.067267  0  0.929395  0  0  0.085383  0  0.989715  0  0  0.085596  0  0.990392  0  0  0.102627  0.085133  0  0.989364  0
H  H20  1  0.24043973  0.50235743  0.88379734  1  0  0.068565  0  0.933981  0  0  0.086866  0  0.996514  0  0  0.0876  0  0.996885  0  0  0.08752  0.086126  0  0.996559  0
H  H21  1  0.25957889  0.99764566  0.38380383  1  0  0.068563  0  0.933947  0  0  0.086826  0  0.996535  0  0  0.087564  0  0.996902  0  0  0.08751  0.086082  0  0.996588  0
H  H22  1  0.75958180  0.49765428  0.11619769  1  0  0.068553  0  0.933958  0  0  0.086805  0  0.996527  0  0  0.087541  0  0.996896  0  0  0.087483  0.086065  0  0.996574  0
H  H23  1  0.74042676  0.00235645  0.61620036  1  0  0.068486  0  0.934032  0  0  0.08683  0  0.996547  0  0  0.087565  0  0.996915  0  0  0.087518  0.086088  0  0.9966  0
H  H24  1  0.35018010  0.36988136  0.87482588  1  0  0.073705  0  0.942204  0  0  0.09111  0  1.005467  0  0  0.091778  0  1.006256  0  0  0.087209  0.09039  0  1.00526  0
H  H25  1  0.14983439  0.13011806  0.37483248  1  0  0.073682  0  0.942184  0  0  0.091109  0  1.005443  0  0  0.091784  0  1.006221  0  0  0.087178  0.090388  0  1.005236  0
H  H26  1  0.64983310  0.63012459  0.12516211  1  0  0.07372  0  0.942236  0  0  0.091114  0  1.005478  0  0  0.091784  0  1.006256  0  0  0.0872  0.090393  0  1.005272  0
H  H27  1  0.85016749  0.86988213  0.62517101  1  0  0.073686  0  0.94219  0  0  0.091131  0  1.005443  0  0  0.091807  0  1.006226  0  0  0.087201  0.090412  0  1.005232  0
H  H28  1  0.39919204  0.37564168  0.05233002  1  0  0.063463  0  0.950458  0  0  0.083672  0  1.010126  0  0  0.083904  0  1.011684  0  0  0.080858  0.08306  0  1.009854  0
H  H29  1  0.10081725  0.12435779  0.55233440  1  0  0.063473  0  0.950254  0  0  0.08368  0  1.009982  0  0  0.083914  0  1.011537  0  0  0.080855  0.083064  0  1.009718  0
H  H30  1  0.60082974  0.62435567  0.94765868  1  0  0.063446  0  0.950383  0  0  0.083652  0  1.010122  0  0  0.083891  0  1.011672  0  0  0.080854  0.083053  0  1.009834  0
H  H31  1  0.89917142  0.87563569  0.44766698  1  0  0.063565  0  0.95017  0  0  0.083692  0  1.009967  0  0  0.083925  0  1.011524  0  0  0.080867  0.0831  0  1.009671  0
H  H32  1  0.31199183  0.51789114  0.05586383  1  0  0.058051  0  0.945001  0  0  0.077397  0  1.005765  0  0  0.077701  0  1.00692  0  0  0.080968  0.076648  0  1.005904  0
H  H33  1  0.18801692  0.98210435  0.55587085  1  0  0.057992  0  0.945012  0  0  0.077357  0  1.005787  0  0  0.077664  0  1.006943  0  0  0.080932  0.076613  0  1.005927  0
H  H34  1  0.68803373  0.48210812  0.94413120  1  0  0.058082  0  0.944806  0  0  0.077438  0  1.005601  0  0  0.077743  0  1.006757  0  0  0.080983  0.076691  0  1.005744  0
H  H35  1  0.81197889  0.01788818  0.44413334  1  0  0.058061  0  0.945026  0  0  0.077432  0  1.005775  0  0  0.07774  0  1.006926  0  0  0.080979  0.076684  0  1.005924  0
H  H36  1  0.41519558  0.03712003  0.75127117  1  0  0.099434  0  0.955298  0  0  0.115187  0  1.027692  0  0  0.115866  0  1.027829  0  0  0.095825  0.114434  0  1.027891  0
H  H37  1  0.08479694  0.46287974  0.25127413  1  0  0.099407  0  0.955336  0  0  0.11519  0  1.027699  0  0  0.115867  0  1.027837  0  0  0.095803  0.114438  0  1.027898  0
H  H38  1  0.58481078  0.96287634  0.24872951  1  0  0.099386  0  0.955251  0  0  0.115131  0  1.027654  0  0  0.115805  0  1.027798  0  0  0.095768  0.114379  0  1.027851  0
H  H39  1  0.91518351  0.53711947  0.74872513  1  0  0.09947  0  0.955179  0  0  0.115187  0  1.027634  0  0  0.11587  0  1.027765  0  0  0.095788  0.114434  0  1.02783  0
H  H40  1  0.39715329  0.17849251  0.68703484  1  0  0.112523  0  0.942627  0  0  0.132382  0  1.00451  0  0  0.13376  0  1.003924  0  0  0.103155  0.131221  0  1.005097  0
H  H41  1  0.10283983  0.32150460  0.18704192  1  0  0.112565  0  0.942733  0  0  0.132472  0  1.004552  0  0  0.133847  0  1.003969  0  0  0.103188  0.131311  0  1.005135  0
H  H42  1  0.60285870  0.82150291  0.31296091  1  0  0.112556  0  0.942639  0  0  0.132396  0  1.004532  0  0  0.133772  0  1.003946  0  0  0.103164  0.131236  0  1.005115  0
H  H43  1  0.89714398  0.67849174  0.81296086  1  0  0.112515  0  0.942703  0  0  0.13244  0  1.004511  0  0  0.133819  0  1.003926  0  0  0.103149  0.131277  0  1.005096  0
H  H44  1  0.32123720  0.15817124  0.80755938  1  0  0.103318  0  0.974149  0  0  0.117621  0  1.048897  0  0  0.119345  0  1.047386  0  0  0.092926  0.116219  0  1.050135  0
H  H45  1  0.17875267  0.34183027  0.30756675  1  0  0.103399  0  0.974073  0  0  0.117746  0  1.048773  0  0  0.119471  0  1.047256  0  0  0.092982  0.116342  0  1.050015  0
H  H46  1  0.67876128  0.84182800  0.19243496  1  0  0.103384  0  0.974068  0  0  0.117693  0  1.048786  0  0  0.119418  0  1.047275  0  0  0.092972  0.116291  0  1.050027  0
H  H47  1  0.82123081  0.65817277  0.69243674  1  0  0.103481  0  0.974028  0  0  0.117814  0  1.04872  0  0  0.119539  0  1.047205  0  0  0.092983  0.116391  0  1.049976  0
C  C48  1  0.71377644  0.22754533  0.87211098  1  0  0.269544  0  3.729628  0  0  0.22183  0  4.02185  0  0  0.242761  0  4.032653  0  0  0.211123  0.207984  0  4.013813  0
C  C49  1  0.78622159  0.27244831  0.37211771  1  0  0.269675  0  3.729534  0  0  0.22205  0  4.021755  0  0  0.242989  0  4.032546  0  0  0.211161  0.208205  0  4.013715  0
C  C50  1  0.28623594  0.77245105  0.12788476  1  0  0.269537  0  3.729583  0  0  0.22184  0  4.021802  0  0  0.242779  0  4.0326  0  0  0.211155  0.207994  0  4.013761  0
C  C51  1  0.21376526  0.72755186  0.62788719  1  0  0.269441  0  3.729855  0  0  0.221775  0  4.022061  0  0  0.2427  0  4.032863  0  0  0.211168  0.207931  0  4.014018  0
C  C52  1  0.97487157  0.30622670  0.77091512  1  0  -0.045687  0  3.693959  0  0  -0.086441  0  3.956905  0  0  -0.083932  0  3.973595  0  0  0.000545  -0.08823  0  3.946188  0
C  C53  1  0.52512946  0.19377970  0.27092652  1  0  -0.045509  0  3.694  0  0  -0.086254  0  3.95697  0  0  -0.083737  0  3.97366  0  0  0.000616  -0.088059  0  3.946238  0
C  C54  1  0.02515149  0.69378883  0.22907288  1  0  -0.045241  0  3.694143  0  0  -0.085893  0  3.957106  0  0  -0.083372  0  3.973794  0  0  0.000761  -0.087703  0  3.946377  0
C  C55  1  0.47487590  0.80623293  0.72908401  1  0  -0.045661  0  3.693886  0  0  -0.086344  0  3.956803  0  0  -0.083827  0  3.973489  0  0  0.000553  -0.088124  0  3.946098  0
C  C56  1  0.80141834  0.25427553  0.71944063  1  0  -0.045655  0  3.695107  0  0  -0.092192  0  3.964041  0  0  -0.089297  0  3.98016  0  0  1.4e-05  -0.093959  0  3.953156  0
C  C57  1  0.69857035  0.24572528  0.21944844  1  0  -0.045866  0  3.695022  0  0  -0.092351  0  3.963925  0  0  -0.089469  0  3.980049  0  0  -0.000104  -0.09413  0  3.953049  0
C  C58  1  0.19857976  0.74572274  0.28056990  1  0  -0.046067  0  3.694987  0  0  -0.092601  0  3.963902  0  0  -0.089716  0  3.98001  0  0  -0.000212  -0.094365  0  3.953021  0
C  C59  1  0.30140216  0.75426914  0.78055927  1  0  -0.045706  0  3.694965  0  0  -0.092226  0  3.963873  0  0  -0.08935  0  3.98  0  0  7e-06  -0.093997  0  3.952986  0
C  C60  1  0.05442341  0.32802411  0.94653053  1  0  0.012675  0  3.638333  0  0  -0.048266  0  3.896962  0  0  -0.04384  0  3.908247  0  0  -0.058586  -0.050952  0  3.888645  0
C  C61  1  0.44558308  0.17197412  0.44653908  1  0  0.012605  0  3.637962  0  0  -0.048335  0  3.896705  0  0  -0.043939  0  3.908076  0  0  -0.058529  -0.051012  0  3.888379  0
C  C62  1  0.94560256  0.67197995  0.05346028  1  0  0.012612  0  3.637998  0  0  -0.048516  0  3.896808  0  0  -0.044116  0  3.908147  0  0  -0.058562  -0.051177  0  3.888441  0
C  C63  1  0.55440488  0.82802510  0.55346863  1  0  0.012611  0  3.638031  0  0  -0.048335  0  3.896814  0  0  -0.043923  0  3.908138  0  0  -0.058561  -0.051025  0  3.888497  0
C  C64  1  0.26263864  0.41799840  0.92223664  1  0  -0.126945  0  3.688522  0  0  -0.167197  0  3.949615  0  0  -0.168434  0  3.962931  0  0  -0.166819  -0.166058  0  3.940461  0
C  C65  1  0.23736811  0.08199799  0.42224735  1  0  -0.126902  0  3.688446  0  0  -0.167061  0  3.949579  0  0  -0.168304  0  3.962892  0  0  -0.166738  -0.16592  0  3.940422  0
C  C66  1  0.73736890  0.58200467  0.07775277  1  0  -0.126996  0  3.688463  0  0  -0.16704  0  3.949461  0  0  -0.168274  0  3.962773  0  0  -0.166738  -0.165904  0  3.940317  0
C  C67  1  0.76263416  0.91800316  0.57775826  1  0  -0.126903  0  3.68849  0  0  -0.167193  0  3.949667  0  0  -0.168438  0  3.962983  0  0  -0.16685  -0.166057  0  3.940521  0
C  C68  1  0.39044813  0.46069967  0.01111417  1  0  -0.106007  0  3.698222  0  0  -0.143613  0  3.954253  0  0  -0.144965  0  3.970003  0  0  -0.170319  -0.1428  0  3.945041  0
C  C69  1  0.10955767  0.03929323  0.51112031  1  0  -0.105918  0  3.698027  0  0  -0.143628  0  3.954203  0  0  -0.144983  0  3.969946  0  0  -0.170333  -0.142813  0  3.944988  0
C  C70  1  0.60957291  0.53929960  0.98887664  1  0  -0.106  0  3.698005  0  0  -0.14374  0  3.954122  0  0  -0.145102  0  3.969881  0  0  -0.170461  -0.142946  0  3.944932  0
C  C71  1  0.89043250  0.96070025  0.48888389  1  0  -0.10608  0  3.698079  0  0  -0.143684  0  3.954212  0  0  -0.14503  0  3.96994  0  0  -0.170377  -0.142892  0  3.945013  0
C  C72  1  0.43158228  0.14085459  0.75513767  1  0  -0.166293  0  3.636547  0  0  -0.269421  0  3.883891  0  0  -0.265703  0  3.890671  0  0  -0.139015  -0.271395  0  3.879365  0
C  C73  1  0.06840655  0.35914325  0.25513953  1  0  -0.166404  0  3.636789  0  0  -0.269632  0  3.884135  0  0  -0.265908  0  3.890907  0  0  -0.139118  -0.271605  0  3.879606  0
C  C74  1  0.56841430  0.85913985  0.24486300  1  0  -0.166438  0  3.63673  0  0  -0.269527  0  3.884089  0  0  -0.265806  0  3.890871  0  0  -0.139067  -0.271501  0  3.879557  0
C  C75  1  0.93157239  0.64085596  0.74485833  1  0  -0.166451  0  3.636534  0  0  -0.269646  0  3.883884  0  0  -0.265931  0  3.890656  0  0  -0.139027  -0.271602  0  3.879373  0
S  S76  1  0.58504675  0.18734279  0.97567595  1  0  -0.395232  0  2.447824  0  0  -0.354327  0  2.88772  0  0  -0.370774  0  2.869212  0  0  -0.191721  -0.342087  0  2.901152  0
S  S77  1  0.91496872  0.31265151  0.47568244  1  0  -0.395259  0  2.447731  0  0  -0.35436  0  2.887598  0  0  -0.370813  0  2.869117  0  0  -0.191762  -0.342117  0  2.901025  0
S  S78  1  0.41497350  0.81265073  0.02432401  1  0  -0.395153  0  2.447972  0  0  -0.354246  0  2.887846  0  0  -0.370686  0  2.869335  0  0  -0.191726  -0.342008  0  2.901276  0
S  S79  1  0.08503277  0.68734773  0.52431964  1  0  -0.395219  0  2.447845  0  0  -0.354273  0  2.887621  0  0  -0.370744  0  2.869182  0  0  -0.191775  -0.342032  0  2.901048  0
Br  Br80  1  0.94242147  0.95615023  0.85673795  1  0  -0.534792  0  1.140951  0  0  -0.45492  0  1.483775  0  0  -0.476542  0  1.458386  0  0  -0.28845  -0.439046  0  1.500937  0
Br  Br81  1  0.55754764  0.54381841  0.35672329  1  0  -0.534743  0  1.140909  0  0  -0.454853  0  1.483677  0  0  -0.476472  0  1.458283  0  0  -0.288461  -0.438983  0  1.500836  0
Br  Br82  1  0.05754784  0.04382121  0.14327681  1  0  -0.534725  0  1.140916  0  0  -0.454866  0  1.483718  0  0  -0.476494  0  1.458332  0  0  -0.288448  -0.439001  0  1.500886  0
Br  Br83  1  0.44245802  0.45618371  0.64326470  1  0  -0.534752  0  1.141001  0  0  -0.454844  0  1.483764  0  0  -0.476465  0  1.458366  0  0  -0.28844  -0.438976  0  1.500923  0
N  N84  1  0.91887908  0.29053840  0.86490196  1  0  -0.103641  0  3.534954  0  0  -0.012863  0  3.756697  0  0  -0.028545  0  3.78133  0  0  -0.241895  -0.002342  0  3.739984  0
N  N85  1  0.58113201  0.20946199  0.36491498  1  0  -0.103629  0  3.534713  0  0  -0.013081  0  3.756823  0  0  -0.028771  0  3.78145  0  0  -0.241894  -0.002557  0  3.740106  0
N  N86  1  0.08111867  0.70946275  0.13509590  1  0  -0.103898  0  3.535081  0  0  -0.013145  0  3.756961  0  0  -0.02883  0  3.781588  0  0  -0.242019  -0.002623  0  3.740251  0
N  N87  1  0.41885710  0.79054010  0.63509766  1  0  -0.103572  0  3.535049  0  0  -0.012873  0  3.756906  0  0  -0.028554  0  3.781538  0  0  -0.241889  -0.00235  0  3.740183  0
N  N88  1  0.64168901  0.20666861  0.78210886  1  0  -0.055581  0  3.565789  0  0  0.042906  0  3.785337  0  0  0.027751  0  3.810664  0  0  -0.242065  0.053054  0  3.767722  0
N  N89  1  0.85831148  0.29333585  0.28211937  1  0  -0.05568  0  3.565571  0  0  0.042798  0  3.785144  0  0  0.027642  0  3.810466  0  0  -0.242029  0.052944  0  3.767527  0
N  N90  1  0.35832759  0.79333830  0.21788547  1  0  -0.055394  0  3.565369  0  0  0.043107  0  3.784888  0  0  0.027949  0  3.810216  0  0  -0.241928  0.053251  0  3.767271  0
N  N91  1  0.14168218  0.70667008  0.71788764  1  0  -0.055602  0  3.56593  0  0  0.042876  0  3.785477  0  0  0.027732  0  3.810802  0  0  -0.242083  0.053021  0  3.767855  0
