# generated using pymatgen
data_AlH5(C4O3)2
_symmetry_space_group_name_H-M   'P 1'
_cell_length_a   6.74351886
_cell_length_b   13.43612168
_cell_length_c   16.46481877
_cell_angle_alpha   89.98146208
_cell_angle_beta   89.89513189
_cell_angle_gamma   89.84760074
_symmetry_Int_Tables_number   1
_chemical_formula_structural   AlH5(C4O3)2
_chemical_formula_sum   'Al4 H20 C32 O24'
_cell_volume   1491.81570100
_cell_formula_units_Z   4
loop_
 _symmetry_equiv_pos_site_id
 _symmetry_equiv_pos_as_xyz
  1  'x, y, z'
loop_
 _atom_site_type_symbol
 _atom_site_label
 _atom_site_symmetry_multiplicity
 _atom_site_fract_x
 _atom_site_fract_y
 _atom_site_fract_z
 _atom_site_occupancy
 _atom_site_pbe_bader_charge
 _atom_site_pbe_bader_spin_density
 _atom_site_pbe_cm5_charge
 _atom_site_pbe_ddec_charge
 _atom_site_pbe_ddec_spin_density
 _atom_site_pbe_ddec_sum_bond_order
 _atom_site_pbe_magmom
Al  Al0  1  0.00038879  0.99874764  0.50128324  1  2.507116  0  0.407706  1.646007  0  2.571624  0
Al  Al1  1  0.50037149  0.00142158  0.49904013  1  2.506082  0  0.404205  1.653581  0  2.567649  0
Al  Al2  1  0.99789201  0.50003150  0.00003756  1  2.498544  0  0.403845  1.649557  0  2.576839  0
Al  Al3  1  0.49786656  0.50015732  0.00028135  1  2.496745  0  0.403632  1.648279  0  2.576592  0
H  H4  1  0.24949490  0.86685188  0.49722000  1  0.600128  0  0.35946  0.437357  0  0.839929  0
H  H5  1  0.75221599  0.13330289  0.50055800  1  0.598906  0  0.359272  0.43736  0  0.839399  0
H  H6  1  0.24695650  0.63205588  0.99892819  1  0.607485  0  0.356687  0.435931  0  0.843253  0
H  H7  1  0.74831746  0.36811965  0.99980481  1  0.611398  0  0.356933  0.435957  0  0.843915  0
H  H8  1  0.06740105  0.69198402  0.81028655  1  0.076761  0  0.107025  0.114536  0  1.011948  0
H  H9  1  0.42887414  0.69286063  0.81081581  1  0.081485  0  0.115253  0.137288  0  0.997118  0
H  H10  1  0.06697633  0.80670286  0.69170304  1  0.128662  0  0.104058  0.112631  0  1.055615  0
H  H11  1  0.56722925  0.31012267  0.19210299  1  0.115452  0  0.107048  0.115295  0  1.010995  0
H  H12  1  0.92892347  0.30498351  0.18705386  1  0.121195  0  0.115534  0.137619  0  0.9972  0
H  H13  1  0.56501565  0.19547131  0.31071161  1  0.166985  0  0.10399  0.112404  0  1.053794  0
H  H14  1  0.92962406  0.31005769  0.80868539  1  0.103079  0  0.106731  0.11463  0  1.011948  0
H  H15  1  0.56797531  0.30563855  0.81209175  1  0.128444  0  0.114885  0.136637  0  0.996511  0
H  H16  1  0.93154584  0.19509965  0.69037718  1  0.153777  0  0.103914  0.111813  0  1.055064  0
H  H17  1  0.06787619  0.68881744  0.19160613  1  0.110875  0  0.107249  0.115612  0  1.010843  0
H  H18  1  0.42962081  0.69561000  0.18802085  1  0.129578  0  0.11566  0.137417  0  0.997109  0
H  H19  1  0.06742670  0.80376467  0.31001593  1  0.112822  0  0.103682  0.112438  0  1.054012  0
H  H20  1  0.41857850  0.85697206  0.64178383  1  0.639109  0  0.314171  0.352231  0  0.971518  0
H  H21  1  0.91646905  0.13927001  0.35495011  1  0.641701  0  0.314599  0.352241  0  0.970776  0
H  H22  1  0.58071954  0.13990396  0.64456175  1  0.63877  0  0.314313  0.352042  0  0.972984  0
H  H23  1  0.41888428  0.86187603  0.35514444  1  0.660375  0  0.314558  0.351578  0  0.97613  0
C  C24  1  0.75302385  0.88179314  0.38745760  1  1.492427  0  0.266927  0.661044  0  4.058204  0
C  C25  1  0.75382864  0.88159436  0.61266254  1  1.498757  0  0.266631  0.660414  0  4.06294  0
C  C26  1  0.24706597  0.11824480  0.61279287  1  1.497574  0  0.267619  0.661515  0  4.058885  0
C  C27  1  0.24989583  0.11846317  0.38755096  1  1.501044  0  0.266332  0.660252  0  4.06357  0
C  C28  1  0.74763770  0.61744010  0.11123958  1  1.573985  0  0.272065  0.644548  0  4.079694  0
C  C29  1  0.74731581  0.61794423  0.88935370  1  1.577496  0  0.271255  0.643318  0  4.081271  0
C  C30  1  0.24871352  0.38259546  0.88908251  1  1.579034  0  0.2718  0.644117  0  4.081703  0
C  C31  1  0.24802804  0.38230346  0.11096442  1  1.580199  0  0.272836  0.645796  0  4.078812  0
C  C32  1  0.74849441  0.81473431  0.68332615  1  -0.057063  0  -0.034976  -0.20102  0  3.985872  0
C  C33  1  0.74781864  0.68622301  0.81748153  1  -0.056123  0  -0.004843  -0.005354  0  3.983983  0
C  C34  1  0.56620570  0.78240291  0.71768733  1  0.536804  0  0.097599  0.319421  0  4.053685  0
C  C35  1  0.92885655  0.71800595  0.78387395  1  0.02896  0  -0.094229  -0.125832  0  3.988348  0
C  C36  1  0.56831089  0.71803120  0.78458935  1  0.045933  0  -0.091802  -0.215376  0  3.919049  0
C  C37  1  0.92774480  0.78151789  0.71776555  1  -0.012564  0  -0.081148  -0.060006  0  3.99352  0
C  C38  1  0.24641339  0.18514683  0.31677775  1  -0.009516  0  -0.035759  -0.203005  0  3.987824  0
C  C39  1  0.24784169  0.31387338  0.18273508  1  -0.049819  0  -0.00507  -0.006174  0  3.983941  0
C  C40  1  0.06476066  0.21608565  0.28093705  1  0.515269  0  0.098385  0.320207  0  4.05109  0
C  C41  1  0.42830113  0.28321548  0.21758613  1  -0.009599  0  -0.093844  -0.12663  0  3.988464  0
C  C42  1  0.06789187  0.28075404  0.21424653  1  0.01693  0  -0.091733  -0.214648  0  3.918045  0
C  C43  1  0.42614298  0.21970974  0.28371984  1  -0.092985  0  -0.081571  -0.059687  0  3.991611  0
C  C44  1  0.25022647  0.18516778  0.68338816  1  -0.044648  0  -0.034855  -0.201535  0  3.986364  0
C  C45  1  0.24902506  0.31421653  0.81728438  1  -0.056766  0  -0.004422  -0.00595  0  3.986654  0
C  C46  1  0.43192622  0.21646427  0.71873964  1  0.524728  0  0.097043  0.317729  0  4.053547  0
C  C47  1  0.06851570  0.28326057  0.78291580  1  -0.01526  0  -0.093418  -0.12515  0  3.989809  0
C  C48  1  0.42886204  0.28124624  0.78531465  1  0.025387  0  -0.091519  -0.213511  0  3.919447  0
C  C49  1  0.07050962  0.21959794  0.71690701  1  -0.04737  0  -0.081437  -0.059911  0  3.994059  0
C  C50  1  0.74892913  0.81490587  0.31682737  1  -0.050817  0  -0.034763  -0.200931  0  3.983376  0
C  C51  1  0.74833609  0.68580338  0.18302828  1  -0.045299  0  -0.005009  -0.005852  0  3.985014  0
C  C52  1  0.56673560  0.78433542  0.28139577  1  0.51214  0  0.097711  0.31935  0  4.051507  0
C  C53  1  0.92933340  0.71609211  0.21738588  1  -0.019373  0  -0.093406  -0.125875  0  3.987856  0
C  C54  1  0.56896638  0.71949676  0.21486900  1  0.021816  0  -0.091713  -0.214203  0  3.921186  0
C  C55  1  0.92816988  0.77974964  0.28340837  1  0.002168  0  -0.082199  -0.061853  0  3.992815  0
O  O56  1  0.91803278  0.90650441  0.41862870  1  -1.262063  0  -0.233895  -0.585954  0  2.336129  0
O  O57  1  0.58493295  0.90844629  0.58170461  1  -1.262039  0  -0.242817  -0.621041  0  2.385163  0
O  O58  1  0.41764194  0.08886744  0.58458626  1  -1.259753  0  -0.242131  -0.62175  0  2.394608  0
O  O59  1  0.08045867  0.08843188  0.41566419  1  -1.259852  0  -0.239626  -0.614961  0  2.39  0
O  O60  1  0.08228944  0.09277268  0.58187872  1  -1.264367  0  -0.233044  -0.584702  0  2.338153  0
O  O61  1  0.41584555  0.09389685  0.41856050  1  -1.269441  0  -0.236126  -0.592559  0  2.343366  0
O  O62  1  0.58268714  0.91196228  0.41534333  1  -1.259816  0  -0.241804  -0.621865  0  2.395354  0
O  O63  1  0.92050093  0.90936221  0.58454685  1  -1.262925  0  -0.232299  -0.585774  0  2.345428  0
O  O64  1  0.25195471  0.93887182  0.50003205  1  -1.403871  0  -0.447772  -0.991328  0  2.169806  0
O  O65  1  0.75050930  0.06120081  0.50016605  1  -1.403132  0  -0.447718  -0.991885  0  2.170218  0
O  O66  1  0.91604820  0.59108006  0.08338731  1  -1.248555  0  -0.233722  -0.591608  0  2.34857  0
O  O67  1  0.57891445  0.59179801  0.91718424  1  -1.259832  0  -0.233891  -0.592175  0  2.347535  0
O  O68  1  0.41672196  0.40821224  0.91734696  1  -1.25841  0  -0.234499  -0.593046  0  2.346371  0
O  O69  1  0.07991137  0.40793746  0.08258769  1  -1.261719  0  -0.234483  -0.593065  0  2.34852  0
O  O70  1  0.07994499  0.40893796  0.91663364  1  -1.252813  0  -0.233115  -0.590662  0  2.347249  0
O  O71  1  0.41659534  0.40873008  0.08351339  1  -1.250349  0  -0.233367  -0.591143  0  2.345151  0
O  O72  1  0.57931104  0.59184285  0.08329409  1  -1.253666  0  -0.233653  -0.591494  0  2.344688  0
O  O73  1  0.91566350  0.59215605  0.91741759  1  -1.254434  0  -0.232849  -0.590979  0  2.347031  0
O  O74  1  0.24759419  0.56005474  0.00020264  1  -1.410474  0  -0.447975  -0.995474  0  2.189619  0
O  O75  1  0.74804512  0.44013425  0.00005036  1  -1.414682  0  -0.448163  -0.995645  0  2.190432  0
O  O76  1  0.38848854  0.81174856  0.68838016  1  -1.152549  0  -0.342282  -0.434471  0  2.316254  0
O  O77  1  0.88670785  0.18518928  0.30869969  1  -1.153439  0  -0.342562  -0.434667  0  2.312399  0
O  O78  1  0.61023638  0.18587903  0.69070632  1  -1.151075  0  -0.342336  -0.434316  0  2.313897  0
O  O79  1  0.38874301  0.81575702  0.30917560  1  -1.169669  0  -0.342766  -0.435081  0  2.317147  0
