# generated using pymatgen
data_TbH15(C7O3)3
_symmetry_space_group_name_H-M   'P 1'
_cell_length_a   5.27638160
_cell_length_b   12.11580398
_cell_length_c   16.22730845
_cell_angle_alpha   92.85153677
_cell_angle_beta   92.97197292
_cell_angle_gamma   102.30446285
_symmetry_Int_Tables_number   1
_chemical_formula_structural   TbH15(C7O3)3
_chemical_formula_sum   'Tb2 H30 C42 O18'
_cell_volume   1010.21340177
_cell_formula_units_Z   2
loop_
 _symmetry_equiv_pos_site_id
 _symmetry_equiv_pos_as_xyz
  1  'x, y, z'
loop_
 _atom_site_type_symbol
 _atom_site_label
 _atom_site_symmetry_multiplicity
 _atom_site_fract_x
 _atom_site_fract_y
 _atom_site_fract_z
 _atom_site_occupancy
 _atom_site_hle17_bader_spin_density
 _atom_site_hle17_ddec_charge
 _atom_site_hle17_ddec_spin_density
 _atom_site_hle17_ddec_sum_bond_order
 _atom_site_hle17_magmom
 _atom_site_hse06_10hf_bader_spin_density
 _atom_site_hse06_10hf_ddec_charge
 _atom_site_hse06_10hf_ddec_spin_density
 _atom_site_hse06_10hf_ddec_sum_bond_order
 _atom_site_hse06_10hf_magmom
 _atom_site_hse06_bader_spin_density
 _atom_site_hse06_ddec_charge
 _atom_site_hse06_ddec_spin_density
 _atom_site_hse06_ddec_sum_bond_order
 _atom_site_hse06_magmom
 _atom_site_pbe_bader_spin_density
 _atom_site_pbe_cm5_charge
 _atom_site_pbe_ddec_charge
 _atom_site_pbe_ddec_spin_density
 _atom_site_pbe_ddec_sum_bond_order
 _atom_site_pbe_magmom
Tb  Tb0  1  0.07898939  0.87265227  0.42987276  1  0  2.280936  0  1.723336  0  0  2.148485  0  2.190793  0  0  2.257526  0  2.034245  0  0  1.548981  2.108876  0  2.230627  0
Tb  Tb1  1  0.92103358  0.12734149  0.57011421  1  0  2.280984  0  1.723166  0  0  2.148531  0  2.190617  0  0  2.257593  0  2.034062  0  0  1.549073  2.109095  0  2.230192  0
H  H2  1  0.72463704  0.62122757  0.90631983  1  0  0.404701  0  0.827625  0  0  0.383932  0  0.889106  0  0  0.393075  0  0.87845  0  0  0.327572  0.377369  0  0.896752  0
H  H3  1  0.27533450  0.37875004  0.09365143  1  0  0.404825  0  0.827415  0  0  0.384069  0  0.888899  0  0  0.393216  0  0.878235  0  0  0.327686  0.37754  0  0.896513  0
H  H4  1  0.70733378  0.34319868  0.71307942  1  0  0.397234  0  0.890947  0  0  0.371598  0  0.962638  0  0  0.382937  0  0.949885  0  0  0.304257  0.363726  0  0.971213  0
H  H5  1  0.29265978  0.65679662  0.28690489  1  0  0.39727  0  0.890953  0  0  0.371647  0  0.962635  0  0  0.382998  0  0.949883  0  0  0.304174  0.363733  0  0.971288  0
H  H6  1  0.73938239  0.34571719  0.10159195  1  0  0.391603  0  0.873663  0  0  0.365943  0  0.94713  0  0  0.375322  0  0.936609  0  0  0.312327  0.359321  0  0.954459  0
H  H7  1  0.26057698  0.65429355  0.89842094  1  0  0.391466  0  0.873717  0  0  0.365898  0  0.947078  0  0  0.375278  0  0.936556  0  0  0.312363  0.359269  0  0.954424  0
H  H8  1  0.10480323  0.62560101  0.16740683  1  0  0.100475  0  0.968495  0  0  0.108269  0  1.033652  0  0  0.11193  0  1.030549  0  0  0.10632  0.105638  0  1.035739  0
H  H9  1  0.89518566  0.37433580  0.83259236  1  0  0.100633  0  0.968564  0  0  0.10843  0  1.033681  0  0  0.11209  0  1.030582  0  0  0.106453  0.105793  0  1.035781  0
H  H10  1  0.93683753  0.56232728  0.02356125  1  0  0.098113  0  0.977489  0  0  0.109712  0  1.037387  0  0  0.113167  0  1.035518  0  0  0.098046  0.107202  0  1.038964  0
H  H11  1  0.06311724  0.43762799  0.97643025  1  0  0.098218  0  0.977336  0  0  0.109738  0  1.037298  0  0  0.113191  0  1.035441  0  0  0.098162  0.107232  0  1.038867  0
H  H12  1  0.43695373  0.80050571  0.02792315  1  0  0.111177  0  0.940711  0  0  0.124592  0  0.993349  0  0  0.127823  0  0.992962  0  0  0.106649  0.122281  0  0.993764  0
H  H13  1  0.56310487  0.19949423  0.97206079  1  0  0.111246  0  0.940477  0  0  0.124636  0  0.99313  0  0  0.127878  0  0.99274  0  0  0.106668  0.122321  0  0.993548  0
H  H14  1  0.60995711  0.86592952  0.17277190  1  0  0.107713  0  0.935574  0  0  0.119177  0  0.991322  0  0  0.122176  0  0.989254  0  0  0.110206  0.11709  0  0.992617  0
H  H15  1  0.39001599  0.13407032  0.82724220  1  0  0.107572  0  0.93598  0  0  0.119115  0  0.991607  0  0  0.122125  0  0.989536  0  0  0.110178  0.117025  0  0.992906  0
H  H16  1  0.87403895  0.59652541  0.51219249  1  0  0.097914  0  0.949135  0  0  0.107725  0  1.012125  0  0  0.110644  0  1.009991  0  0  0.10894  0.10555  0  1.013859  0
H  H17  1  0.12598529  0.40350299  0.48779337  1  0  0.097874  0  0.949288  0  0  0.10774  0  1.012201  0  0  0.11066  0  1.010076  0  0  0.108973  0.105563  0  1.013957  0
H  H18  1  0.89834256  0.44427986  0.60763826  1  0  0.11345  0  0.965057  0  0  0.122321  0  1.028315  0  0  0.125687  0  1.027503  0  0  0.106884  0.119938  0  1.029051  0
H  H19  1  0.10168136  0.55573266  0.39233527  1  0  0.113339  0  0.964937  0  0  0.122295  0  1.02813  0  0  0.125671  0  1.027302  0  0  0.106904  0.119909  0  1.028869  0
H  H20  1  0.24885065  0.51953882  0.73228195  1  0  0.113315  0  0.94434  0  0  0.123015  0  1.004241  0  0  0.126933  0  1.002604  0  0  0.101489  0.120188  0  1.005602  0
H  H21  1  0.75119766  0.48047441  0.26771330  1  0  0.113458  0  0.944157  0  0  0.123093  0  1.004149  0  0  0.127009  0  1.002516  0  0  0.101586  0.120268  0  1.005506  0
H  H22  1  0.21728711  0.66799715  0.63343109  1  0  0.087778  0  0.999959  0  0  0.096737  0  1.066548  0  0  0.098398  0  1.066962  0  0  0.098527  0.095622  0  1.065973  0
H  H23  1  0.78279414  0.33203640  0.36657577  1  0  0.087708  0  0.999723  0  0  0.096665  0  1.066347  0  0  0.098321  0  1.066775  0  0  0.098579  0.095521  0  1.065801  0
H  H24  1  0.14091872  0.16920963  0.35506292  1  0  0.098392  0  0.959882  0  0  0.104293  0  1.028661  0  0  0.106595  0  1.027571  0  0  0.112188  0.102648  0  1.02949  0
H  H25  1  0.85905710  0.83080636  0.64494448  1  0  0.098352  0  0.959825  0  0  0.104216  0  1.028665  0  0  0.106514  0  1.027583  0  0  0.112152  0.102573  0  1.029495  0
H  H26  1  0.23704727  0.30521765  0.24597510  1  0  0.107529  0  0.978493  0  0  0.115345  0  1.043962  0  0  0.117767  0  1.045268  0  0  0.100242  0.11358  0  1.043279  0
H  H27  1  0.76292467  0.69480252  0.75403358  1  0  0.107488  0  0.978505  0  0  0.115323  0  1.04394  0  0  0.117742  0  1.045256  0  0  0.100295  0.11355  0  1.043264  0
H  H28  1  0.45717565  0.18530387  0.13673748  1  0  0.111305  0  0.966982  0  0  0.119547  0  1.027795  0  0  0.123507  0  1.026054  0  0  0.102147  0.116706  0  1.029185  0
H  H29  1  0.54278958  0.81471696  0.86328213  1  0  0.11143  0  0.966793  0  0  0.119472  0  1.027834  0  0  0.123418  0  1.026101  0  0  0.10209  0.116637  0  1.029224  0
H  H30  1  0.35935144  0.05373661  0.24938424  1  0  0.103157  0  0.941835  0  0  0.114281  0  0.998995  0  0  0.117297  0  0.99703  0  0  0.111367  0.11214  0  1.000345  0
H  H31  1  0.64063314  0.94627173  0.75063114  1  0  0.103082  0  0.941939  0  0  0.114216  0  0.999065  0  0  0.117213  0  0.997121  0  0  0.111334  0.112079  0  1.00041  0
C  C32  1  0.86884946  0.75122124  0.17926368  1  0  -0.082869  0  3.764138  0  0  -0.06355  0  4.001316  0  0  -0.073956  0  4.023645  0  0  -0.023586  -0.056604  0  3.985761  0
C  C33  1  0.13115804  0.24875455  0.82073386  1  0  -0.08271  0  3.764461  0  0  -0.063534  0  4.001813  0  0  -0.073925  0  4.024132  0  0  -0.02369  -0.056601  0  3.986259  0
C  C34  1  0.96034834  0.66502962  0.13736603  1  0  -0.031028  0  3.734414  0  0  -0.056849  0  3.988101  0  0  -0.05318  0  4.006413  0  0  -0.078328  -0.058871  0  3.975294  0
C  C35  1  0.03964410  0.33492403  0.86263823  1  0  -0.031269  0  3.734835  0  0  -0.057075  0  3.988528  0  0  -0.053404  0  4.006825  0  0  -0.078409  -0.05909  0  3.975718  0
C  C36  1  0.86730225  0.62936162  0.05658531  1  0  -0.212571  0  3.777894  0  0  -0.236012  0  4.040589  0  0  -0.243185  0  4.060054  0  0  -0.112574  -0.231417  0  4.027574  0
C  C37  1  0.13271727  0.37060066  0.94341762  1  0  -0.212689  0  3.777974  0  0  -0.236052  0  4.0406  0  0  -0.243226  0  4.060065  0  0  -0.112665  -0.231457  0  4.027581  0
C  C38  1  0.68106068  0.67873832  0.01717471  1  0  0.33494  0  3.813288  0  0  0.32326  0  4.079939  0  0  0.335526  0  4.095599  0  0  0.079961  0.314926  0  4.069258  0
C  C39  1  0.31894622  0.32122898  0.98282619  1  0  0.3348  0  3.813726  0  0  0.323227  0  4.080212  0  0  0.335502  0  4.095863  0  0  0.079917  0.314889  0  4.069546  0
C  C40  1  0.58423035  0.76330939  0.05878790  1  0  -0.201807  0  3.753653  0  0  -0.219996  0  4.004282  0  0  -0.228316  0  4.0254  0  0  -0.104595  -0.214545  0  3.990014  0
C  C41  1  0.41578194  0.23668418  0.94120799  1  0  -0.201672  0  3.753815  0  0  -0.219851  0  4.004358  0  0  -0.228185  0  4.025489  0  0  -0.104466  -0.214397  0  3.990084  0
C  C42  1  0.68030556  0.79948686  0.13920119  1  0  -0.019219  0  3.715071  0  0  -0.043136  0  3.960537  0  0  -0.03907  0  3.97881  0  0  -0.072269  -0.045434  0  3.947611  0
C  C43  1  0.31966731  0.20050714  0.86080775  1  0  -0.019235  0  3.716121  0  0  -0.043158  0  3.961492  0  0  -0.039114  0  3.979785  0  0  -0.072284  -0.045448  0  3.948559  0
C  C44  1  0.95840205  0.79208786  0.26563206  1  0  0.662232  0  3.896269  0  0  0.614541  0  4.189666  0  0  0.649284  0  4.186563  0  0  0.203834  0.590209  0  4.195478  0
C  C45  1  0.04158781  0.20786932  0.73435993  1  0  0.662195  0  3.895773  0  0  0.614575  0  4.189126  0  0  0.649313  0  4.186022  0  0  0.203867  0.590243  0  4.194963  0
C  C46  1  0.54217248  0.64184115  0.56602915  1  0  -0.140069  0  3.79936  0  0  -0.118035  0  4.031872  0  0  -0.131564  0  4.055773  0  0  -0.035709  -0.108906  0  4.014659  0
C  C47  1  0.45786279  0.35818307  0.43395934  1  0  -0.140153  0  3.799197  0  0  -0.117993  0  4.031696  0  0  -0.131511  0  4.055603  0  0  -0.035533  -0.108873  0  4.014455  0
C  C48  1  0.73624352  0.57898753  0.56008012  1  0  -0.019768  0  3.749005  0  0  -0.04318  0  3.996682  0  0  -0.038232  0  4.015827  0  0  -0.074789  -0.046006  0  3.9831  0
C  C49  1  0.26377655  0.42102818  0.43990637  1  0  -0.020087  0  3.749325  0  0  -0.043558  0  3.997124  0  0  -0.038622  0  4.016274  0  0  -0.075018  -0.046404  0  3.983552  0
C  C50  1  0.75049177  0.49418075  0.61327246  1  0  -0.224355  0  3.743507  0  0  -0.240565  0  3.993369  0  0  -0.250262  0  4.013949  0  0  -0.10904  -0.234117  0  3.979142  0
C  C51  1  0.24953560  0.50582995  0.38671282  1  0  -0.223926  0  3.743197  0  0  -0.240172  0  3.993033  0  0  -0.249872  0  4.013626  0  0  -0.108985  -0.233721  0  3.978807  0
C  C52  1  0.57422557  0.47205231  0.67563491  1  0  0.36354  0  3.813945  0  0  0.354538  0  4.073684  0  0  0.37032  0  4.086027  0  0  0.091106  0.343903  0  4.064867  0
C  C53  1  0.42579088  0.52794654  0.32434712  1  0  0.363635  0  3.813738  0  0  0.354577  0  4.073572  0  0  0.370356  0  4.085917  0  0  0.091218  0.343941  0  4.064749  0
C  C54  1  0.38397718  0.53677073  0.68354237  1  0  -0.21186  0  3.730778  0  0  -0.229119  0  3.985373  0  0  -0.237367  0  4.002706  0  0  -0.111031  -0.223773  0  3.973734  0
C  C55  1  0.61604458  0.46323232  0.31644368  1  0  -0.212283  0  3.73084  0  0  -0.229449  0  3.985483  0  0  -0.237695  0  4.002821  0  0  -0.111213  -0.224101  0  3.973835  0
C  C56  1  0.36736232  0.61943033  0.62853276  1  0  -0.037692  0  3.766671  0  0  -0.061644  0  4.013493  0  0  -0.057197  0  4.034063  0  0  -0.083583  -0.064091  0  3.998872  0
C  C57  1  0.63268138  0.38058881  0.37146072  1  0  -0.03738  0  3.766336  0  0  -0.061356  0  4.013132  0  0  -0.056912  0  4.033694  0  0  -0.08372  -0.063778  0  3.998551  0
C  C58  1  0.51929816  0.72776361  0.50624816  1  0  0.751252  0  3.832021  0  0  0.705697  0  4.120576  0  0  0.74347  0  4.110543  0  0  0.242813  0.680137  0  4.128772  0
C  C59  1  0.48072820  0.27225360  0.49375522  1  0  0.75115  0  3.832274  0  0  0.705387  0  4.121201  0  0  0.74314  0  4.111213  0  0  0.242773  0.67988  0  4.129313  0
C  C60  1  0.74197227  0.10532325  0.31100681  1  0  -0.107574  0  3.763145  0  0  -0.090678  0  3.999697  0  0  -0.102209  0  4.021272  0  0  -0.022072  -0.08266  0  3.983976  0
C  C61  1  0.25801980  0.89469536  0.68900241  1  0  -0.107884  0  3.763469  0  0  -0.090823  0  3.999784  0  0  -0.102355  0  4.021351  0  0  -0.022172  -0.082808  0  3.984062  0
C  C62  1  0.99140745  0.17336787  0.30738086  1  0  -0.017895  0  3.716802  0  0  -0.042959  0  3.969008  0  0  -0.038634  0  3.987097  0  0  -0.067267  -0.045492  0  3.956153  0
C  C63  1  0.00859643  0.82664322  0.69262718  1  0  -0.017667  0  3.716714  0  0  -0.042756  0  3.968885  0  0  -0.038423  0  3.986973  0  0  -0.067078  -0.045297  0  3.956039  0
C  C64  1  0.04626056  0.24886672  0.24580063  1  0  -0.195945  0  3.72407  0  0  -0.212841  0  3.973437  0  0  -0.221436  0  3.994979  0  0  -0.102401  -0.207234  0  3.958996  0
C  C65  1  0.95371123  0.75115926  0.75421628  1  0  -0.195996  0  3.723757  0  0  -0.21294  0  3.973104  0  0  -0.221544  0  3.994652  0  0  -0.102611  -0.207322  0  3.958673  0
C  C66  1  0.85061571  0.25563936  0.18592746  1  0  0.348183  0  3.797675  0  0  0.339115  0  4.058842  0  0  0.352221  0  4.07364  0  0  0.085662  0.330166  0  4.048749  0
C  C67  1  0.14936593  0.74437989  0.81409195  1  0  0.348168  0  3.798508  0  0  0.339299  0  4.059454  0  0  0.35241  0  4.07425  0  0  0.085795  0.330354  0  4.049349  0
C  C68  1  0.60592948  0.18176655  0.18503191  1  0  -0.231614  0  3.771361  0  0  -0.247694  0  4.022188  0  0  -0.256126  0  4.042189  0  0  -0.112089  -0.242167  0  4.008718  0
C  C69  1  0.39403671  0.81824756  0.81498500  1  0  -0.231745  0  3.771428  0  0  -0.247716  0  4.022246  0  0  -0.256136  0  4.042235  0  0  -0.112061  -0.242191  0  4.008775  0
C  C70  1  0.55183756  0.10832777  0.24789630  1  0  -0.015362  0  3.72508  0  0  -0.038165  0  3.970128  0  0  -0.033964  0  3.98809  0  0  -0.071882  -0.0405  0  3.957066  0
C  C71  1  0.44813022  0.89168130  0.75211924  1  0  -0.015285  0  3.725175  0  0  -0.038126  0  3.970129  0  0  -0.033903  0  3.98809  0  0  -0.071889  -0.040461  0  3.957063  0
C  C72  1  0.67422231  0.03627287  0.38197863  1  0  0.766008  0  3.817812  0  0  0.719695  0  4.102458  0  0  0.757302  0  4.09477  0  0  0.252174  0.693422  0  4.112223  0
C  C73  1  0.32576075  0.96373971  0.61803441  1  0  0.766156  0  3.817816  0  0  0.719817  0  4.102397  0  0  0.757404  0  4.094747  0  0  0.252147  0.693561  0  4.112145  0
O  O74  1  0.10673794  0.74363136  0.31083235  1  0  -0.716642  0  1.996264  0  0  -0.661017  0  2.23211  0  0  -0.693624  0  2.221186  0  0  -0.366092  -0.64274  0  2.239071  0
O  O75  1  0.89333789  0.25635766  0.68915538  1  0  -0.716689  0  1.996134  0  0  -0.661088  0  2.231936  0  0  -0.693699  0  2.221036  0  0  -0.36618  -0.642866  0  2.238908  0
O  O76  1  0.88543275  0.87801539  0.29695912  1  0  -0.699312  0  2.013711  0  0  -0.653166  0  2.259889  0  0  -0.685795  0  2.25131  0  0  -0.389049  -0.634657  0  2.26509  0
O  O77  1  0.11437842  0.12189320  0.70304609  1  0  -0.699213  0  2.013798  0  0  -0.653058  0  2.259953  0  0  -0.685695  0  2.251384  0  0  -0.389047  -0.634568  0  2.265149  0
O  O78  1  0.58633721  0.64437420  0.93700347  1  0  -0.545574  0  2.133812  0  0  -0.488252  0  2.339853  0  0  -0.505833  0  2.329227  0  0  -0.347767  -0.475499  0  2.346882  0
O  O79  1  0.41367940  0.35557793  0.06299959  1  0  -0.545633  0  2.133696  0  0  -0.488486  0  2.339841  0  0  -0.506084  0  2.32922  0  0  -0.347968  -0.475772  0  2.346804  0
O  O80  1  0.71219796  0.76333375  0.46264961  1  0  -0.78589  0  2.050137  0  0  -0.738053  0  2.32593  0  0  -0.773552  0  2.306971  0  0  -0.444987  -0.720294  0  2.336515  0
O  O81  1  0.28782895  0.23667851  0.53734559  1  0  -0.785744  0  2.050407  0  0  -0.737846  0  2.326302  0  0  -0.773338  0  2.307356  0  0  -0.44493  -0.720139  0  2.336853  0
O  O82  1  0.30924837  0.76403844  0.49939984  1  0  -0.760755  0  2.035451  0  0  -0.710665  0  2.305155  0  0  -0.745338  0  2.288407  0  0  -0.417643  -0.692612  0  2.314433  0
O  O83  1  0.69078448  0.23598470  0.50060458  1  0  -0.760694  0  2.035363  0  0  -0.71055  0  2.305202  0  0  -0.745224  0  2.288468  0  0  -0.417614  -0.69255  0  2.314447  0
O  O84  1  0.58163832  0.39120083  0.72940154  1  0  -0.527642  0  2.117723  0  0  -0.479907  0  2.330019  0  0  -0.49979  0  2.320105  0  0  -0.352124  -0.465443  0  2.335791  0
O  O85  1  0.41839719  0.60881840  0.27058123  1  0  -0.527768  0  2.117332  0  0  -0.48002  0  2.329562  0  0  -0.499921  0  2.319652  0  0  -0.352122  -0.46555  0  2.335435  0
O  O86  1  0.44008523  0.98886650  0.38958896  1  0  -0.732779  0  2.048967  0  0  -0.690972  0  2.324197  0  0  -0.725188  0  2.306096  0  0  -0.396133  -0.67389  0  2.335067  0
O  O87  1  0.55989226  0.01116874  0.61043280  1  0  -0.732868  0  2.048806  0  0  -0.691081  0  2.32403  0  0  -0.725291  0  2.30593  0  0  -0.396125  -0.674052  0  2.334913  0
O  O88  1  0.85790003  0.02835232  0.43718803  1  0  -0.886169  0  2.129803  0  0  -0.82866  0  2.409457  0  0  -0.870355  0  2.393585  0  0  -0.462025  -0.810031  0  2.420909  0
O  O89  1  0.14207982  0.97163664  0.56282215  1  0  -0.886137  0  2.129738  0  0  -0.828611  0  2.409365  0  0  -0.870294  0  2.393499  0  0  -0.461944  -0.809972  0  2.420798  0
O  O90  1  0.90485962  0.33682501  0.12942879  1  0  -0.546602  0  2.106112  0  0  -0.496711  0  2.318169  0  0  -0.514729  0  2.307565  0  0  -0.354662  -0.483635  0  2.325037  0
O  O91  1  0.09512725  0.66321467  0.87057985  1  0  -0.546276  0  2.107139  0  0  -0.496656  0  2.319192  0  0  -0.514677  0  2.308591  0  0  -0.354658  -0.483576  0  2.326053  0
