# generated using pymatgen
data_CuH6C6(NO)2
_symmetry_space_group_name_H-M   'P 1'
_cell_length_a   13.88650972
_cell_length_b   13.88651900
_cell_length_c   13.88654130
_cell_angle_alpha   105.55236412
_cell_angle_beta   105.55023242
_cell_angle_gamma   117.63244189
_symmetry_Int_Tables_number   1
_chemical_formula_structural   CuH6C6(NO)2
_chemical_formula_sum   'Cu4 H24 C24 N8 O8'
_cell_volume   2029.60272378
_cell_formula_units_Z   4
loop_
 _symmetry_equiv_pos_site_id
 _symmetry_equiv_pos_as_xyz
  1  'x, y, z'
loop_
 _atom_site_type_symbol
 _atom_site_label
 _atom_site_symmetry_multiplicity
 _atom_site_fract_x
 _atom_site_fract_y
 _atom_site_fract_z
 _atom_site_occupancy
 _atom_site_pbe_bader_charge
 _atom_site_pbe_bader_spin_density
 _atom_site_pbe_cm5_charge
 _atom_site_pbe_ddec_charge
 _atom_site_pbe_ddec_spin_density
 _atom_site_pbe_ddec_sum_bond_order
 _atom_site_pbe_magmom
Cu  Cu0  1  0.51841154  0.61928923  0.10087830  1  0.997706  0.537855  0.745951  0.660783  0.698497  2.26853  0.54
Cu  Cu1  1  0.51841031  0.41753298  0.89912230  1  0.993293  0.537811  0.745936  0.660784  0.698496  2.268506  0.54
Cu  Cu2  1  0.66753343  0.26841319  0.39912010  1  0.993059  0.537805  0.745852  0.660667  0.698486  2.268387  0.54
Cu  Cu3  1  0.86929447  0.26841409  0.60087982  1  0.997701  0.537852  0.745866  0.660674  0.698485  2.268417  0.54
H  H4  1  0.66557202  0.59465022  0.40201377  1  0.072905  0.000611  0.102063  0.156306  0.000498  0.979538  0.0
H  H5  1  0.50442685  0.50743883  0.33502143  1  0.056199  -0.000274  0.098458  0.140929  -0.000293  0.978047  0.0
H  H6  1  0.59031560  0.64549915  0.32579641  1  0.092217  0.000145  0.093358  0.139109  -0.000138  1.045666  0.0
H  H7  1  0.19263774  0.26355835  0.59798667  1  0.068155  0.000615  0.102038  0.15628  0.000498  0.979607  0.0
H  H8  1  0.17241607  0.16940502  0.66497852  1  0.059354  -0.000273  0.098449  0.140915  -0.000293  0.978069  0.0
H  H9  1  0.31970325  0.26451861  0.67420536  1  0.093989  0.000143  0.093351  0.139339  -0.000138  1.045479  0.0
H  H10  1  0.51355201  0.41557977  0.57092758  1  0.07265  0.000609  0.102077  0.15625  0.000499  0.979439  0.0
H  H11  1  0.41941969  0.25443260  0.49700423  1  0.048729  -0.000276  0.098424  0.140968  -0.000293  0.977948  0.0
H  H12  1  0.51452385  0.34032271  0.44482498  1  0.093269  0.000145  0.093372  0.139189  -0.000138  1.045569  0.0
H  H13  1  0.84465310  0.94262602  0.42907260  1  0.071304  0.000616  0.102053  0.156228  0.000499  0.979494  0.0
H  H14  1  0.75743016  0.92241620  0.50299609  1  0.052439  -0.000274  0.098434  0.140963  -0.000293  0.977956  0.0
H  H15  1  0.89549880  0.06969920  0.55517387  1  0.104695  0.000141  0.093371  0.139426  -0.000138  1.045409  0.0
H  H16  1  0.19263560  0.59465013  0.92907772  1  0.071573  0.000616  0.102045  0.156265  0.000498  0.979551  0.0
H  H17  1  0.17241640  0.50743860  0.00301073  1  0.052018  -0.000274  0.098437  0.140905  -0.000293  0.978046  0.0
H  H18  1  0.31970222  0.64549867  0.05518265  1  0.104574  0.000141  0.093369  0.139359  -0.000138  1.045473  0.0
H  H19  1  0.66557214  0.26355791  0.07092161  1  0.072729  0.000609  0.102059  0.156297  0.000498  0.979526  0.0
H  H20  1  0.50442578  0.16940398  0.99698847  1  0.048297  -0.000276  0.098447  0.140914  -0.000293  0.978042  0.0
H  H21  1  0.59031492  0.26451903  0.94481649  1  0.093413  0.000144  0.093363  0.139124  -0.000138  1.045683  0.0
H  H22  1  0.84465254  0.41558014  0.90202653  1  0.072646  0.000612  0.102047  0.156199  0.000499  0.979516  0.0
H  H23  1  0.75742937  0.25443344  0.83501231  1  0.056246  -0.000274  0.098448  0.140984  -0.000293  0.977931  0.0
H  H24  1  0.89549769  0.34032495  0.82579805  1  0.092311  0.000145  0.093372  0.139198  -0.000138  1.045541  0.0
H  H25  1  0.51355385  0.94262561  0.09797402  1  0.068129  0.000616  0.102055  0.156216  0.000499  0.979527  0.0
H  H26  1  0.41942102  0.92241623  0.16498763  1  0.059589  -0.000273  0.098443  0.14099  -0.000293  0.977966  0.0
H  H27  1  0.51452592  0.06969935  0.17420267  1  0.093549  0.000144  0.09336  0.139392  -0.000138  1.045342  0.0
C  C28  1  0.58273505  0.49390808  0.22340264  1  0.480285  0.004678  0.113124  0.286172  0.003509  3.95376  0.007
C  C29  1  0.58616961  0.56526644  0.32721578  1  -0.078145  0.002459  -0.235491  -0.437716  0.00179  3.955885  0.002
C  C30  1  0.27050542  0.35933253  0.77659757  1  0.453638  0.004676  0.113166  0.286143  0.003508  3.953731  0.007
C  C31  1  0.23805139  0.25895377  0.67278431  1  -0.055884  0.002435  -0.235484  -0.437907  0.00179  3.955748  0.002
C  C32  1  0.60935612  0.33277138  0.58884514  1  0.500836  0.004612  0.113039  0.286004  0.003509  3.953861  0.007
C  C33  1  0.50896430  0.33618266  0.52091610  1  -0.067841  0.002463  -0.23545  -0.437725  0.001789  3.955547  0.002
C  C34  1  0.74392666  0.02051089  0.41115510  1  0.478096  0.004634  0.113079  0.286713  0.003509  3.952922  0.007
C  C35  1  0.81526851  0.98804919  0.47908468  1  -0.076342  0.002447  -0.235458  -0.438131  0.001789  3.955236  0.002
C  C36  1  0.27050527  0.49390834  0.91117200  1  0.476769  0.004643  0.113173  0.286864  0.003508  3.952698  0.007
C  C37  1  0.23805067  0.56526768  0.97909696  1  -0.075992  0.002448  -0.235486  -0.438111  0.00179  3.955433  0.002
C  C38  1  0.58273573  0.35933241  0.08882784  1  0.500219  0.004617  0.113104  0.286171  0.003509  3.953775  0.007
C  C39  1  0.58616980  0.25895382  0.02090352  1  -0.067498  0.002463  -0.235479  -0.437704  0.00179  3.955874  0.002
C  C40  1  0.74392575  0.33277151  0.72341450  1  0.479896  0.004677  0.113054  0.286001  0.003509  3.953898  0.007
C  C41  1  0.81526698  0.33618314  0.82721817  1  -0.077083  0.002459  -0.235451  -0.437697  0.00179  3.955577  0.002
C  C42  1  0.60935703  0.02051076  0.27658574  1  0.454021  0.00468  0.113036  0.285983  0.003509  3.953953  0.007
C  C43  1  0.50896509  0.98804816  0.17278186  1  -0.056424  0.002435  -0.235439  -0.437879  0.001789  3.95544  0.002
C  C44  1  0.60412988  0.40186226  0.20226789  1  -0.002231  0.00819  -0.051681  -0.289834  0.006484  4.000275  0.006
C  C45  1  0.63794154  0.35845101  0.27948989  1  1.442538  -0.001088  0.189442  0.569345  -0.003303  4.197044  -0.006
C  C46  1  0.19959632  0.40186414  0.79773183  1  0.03374  0.008111  -0.05172  -0.289796  0.006484  3.999713  0.006
C  C47  1  0.07896277  0.35845279  0.72050892  1  1.438646  -0.001003  0.189425  0.569149  -0.003303  4.197052  -0.006
C  C48  1  0.65189461  0.35418051  0.70228493  1  -0.002775  0.008189  -0.051633  -0.289618  0.006482  4.000362  0.006
C  C49  1  0.60846814  0.38797646  0.77950723  1  1.443335  -0.00109  0.189395  0.569358  -0.003303  4.196732  -0.006
C  C50  1  0.65189588  0.94961028  0.29771599  1  0.03324  0.008107  -0.051675  -0.289832  0.006481  4.000158  0.006
C  C51  1  0.60847088  0.82896195  0.22049237  1  1.43785  -0.001001  0.189372  0.569289  -0.003303  4.196627  -0.006
N  N52  1  0.55229649  0.50540128  0.12884800  1  -0.793674  0.085067  -0.297945  -0.256974  0.057205  3.60524  0.072
N  N53  1  0.37655188  0.42344695  0.87115190  1  -0.778682  0.084988  -0.297967  -0.257031  0.057205  3.605295  0.072
N  N54  1  0.67345959  0.30231491  0.54690274  1  -0.729062  0.084786  -0.297861  -0.256889  0.057201  3.604896  0.072
N  N55  1  0.75541252  0.12655782  0.45309779  1  -0.746572  0.084861  -0.29788  -0.257144  0.0572  3.604729  0.072
N  N56  1  0.37655180  0.50540070  0.95310491  1  -0.746303  0.084864  -0.297947  -0.25722  0.057206  3.604975  0.072
N  N57  1  0.55229678  0.42344865  0.04689612  1  -0.728817  0.084788  -0.297928  -0.256973  0.057207  3.605205  0.072
N  N58  1  0.75541268  0.30231628  0.62885566  1  -0.794048  0.085059  -0.297843  -0.256848  0.057202  3.604889  0.072
N  N59  1  0.67346019  0.12655700  0.37114561  1  -0.778895  0.084981  -0.297851  -0.256876  0.057201  3.60497  0.072
O  O60  1  0.65247928  0.40146959  0.38126681  1  -1.08971  0.135047  -0.315374  -0.497959  0.086599  2.198612  0.119
O  O61  1  0.02020298  0.27121274  0.61873282  1  -1.098716  0.134996  -0.315412  -0.497983  0.086598  2.198752  0.119
O  O62  1  0.52122830  0.40250709  0.75102549  1  -1.091982  0.135027  -0.315421  -0.498037  0.086595  2.198649  0.119
O  O63  1  0.65148463  0.77020450  0.24897270  1  -1.094639  0.135022  -0.315404  -0.497973  0.086594  2.198476  0.119
O  O64  1  0.02020295  0.40147072  0.74898842  1  -1.094638  0.135038  -0.315383  -0.497919  0.086599  2.198643  0.119
O  O65  1  0.65247910  0.27121193  0.25101007  1  -1.091765  0.135035  -0.315413  -0.497999  0.086596  2.19871  0.119
O  O66  1  0.65147901  0.40250495  0.88127685  1  -1.090286  0.135032  -0.315416  -0.498024  0.086592  2.198531  0.119
O  O67  1  0.52122713  0.77020265  0.11872370  1  -1.09784  0.134985  -0.315414  -0.498046  0.086592  2.198672  0.119
