# generated using pymatgen
data_ZnSiH22C26S2(N2F3)2
_symmetry_space_group_name_H-M   'P 1'
_cell_length_a   10.28330505
_cell_length_b   13.15153512
_cell_length_c   13.15155327
_cell_angle_alpha   71.70663776
_cell_angle_beta   66.97179552
_cell_angle_gamma   66.97191581
_symmetry_Int_Tables_number   1
_chemical_formula_structural   ZnSiH22C26S2(N2F3)2
_chemical_formula_sum   'Zn2 Si2 H44 C52 S4 N8 F12'
_cell_volume   1479.04005898
_cell_formula_units_Z   2
loop_
 _symmetry_equiv_pos_site_id
 _symmetry_equiv_pos_as_xyz
  1  'x, y, z'
loop_
 _atom_site_type_symbol
 _atom_site_label
 _atom_site_symmetry_multiplicity
 _atom_site_fract_x
 _atom_site_fract_y
 _atom_site_fract_z
 _atom_site_occupancy
 _atom_site_hle17_bader_spin_density
 _atom_site_hle17_ddec_charge
 _atom_site_hle17_ddec_spin_density
 _atom_site_hle17_ddec_sum_bond_order
 _atom_site_hle17_magmom
 _atom_site_hse06_10hf_bader_spin_density
 _atom_site_hse06_10hf_ddec_charge
 _atom_site_hse06_10hf_ddec_spin_density
 _atom_site_hse06_10hf_ddec_sum_bond_order
 _atom_site_hse06_10hf_magmom
 _atom_site_hse06_bader_spin_density
 _atom_site_hse06_ddec_charge
 _atom_site_hse06_ddec_spin_density
 _atom_site_hse06_ddec_sum_bond_order
 _atom_site_hse06_magmom
 _atom_site_pbe_bader_spin_density
 _atom_site_pbe_cm5_charge
 _atom_site_pbe_ddec_charge
 _atom_site_pbe_ddec_spin_density
 _atom_site_pbe_ddec_sum_bond_order
 _atom_site_pbe_magmom
Zn  Zn0  1  0.49999958  0.75001476  0.24998400  1  0  0.971415  0  1.921086  0  0  0.772763  0  2.376731  0  0  0.815626  0  2.330446  0  0  0.716053  0.742351  0  2.40845  0
Zn  Zn1  1  0.49999977  0.24998493  0.75001595  1  0  0.971475  0  1.920996  0  0  0.772828  0  2.376648  0  0  0.815685  0  2.330364  0  0  0.716072  0.742418  0  2.408365  0
Si  Si2  1  0.50000074  0.00000034  0.00000018  1  0  1.985331  0  3.325843  0  0  1.768831  0  3.886996  0  0  1.827566  0  3.800651  0  0  0.269768  1.726461  0  3.948724  0
Si  Si3  1  0.49999830  0.50000040  0.49999872  1  0  1.986223  0  3.324415  0  0  1.769969  0  3.883832  0  0  1.829016  0  3.796001  0  0  0.271553  1.727323  0  3.946662  0
H  H4  1  0.03671792  0.75643768  0.02600887  1  0  0.116627  0  0.956314  0  0  0.125105  0  1.016356  0  0  0.127805  0  1.016841  0  0  0.109122  0.123184  0  1.016101  0
H  H5  1  0.96328353  0.97399156  0.24355891  1  0  0.116678  0  0.956379  0  0  0.125155  0  1.016416  0  0  0.127857  0  1.0169  0  0  0.109136  0.123234  0  1.016159  0
H  H6  1  0.81890399  0.74379525  0.47416770  1  0  0.115223  0  0.954735  0  0  0.123813  0  1.01485  0  0  0.126506  0  1.015332  0  0  0.108385  0.121789  0  1.014758  0
H  H7  1  0.18109392  0.52583150  0.25620551  1  0  0.115214  0  0.954708  0  0  0.123812  0  1.014817  0  0  0.126501  0  1.015309  0  0  0.108393  0.121785  0  1.014729  0
H  H8  1  0.96328034  0.24356259  0.97399194  1  0  0.116637  0  0.956373  0  0  0.125113  0  1.01642  0  0  0.127819  0  1.016893  0  0  0.109128  0.123192  0  1.016163  0
H  H9  1  0.03671843  0.02600603  0.75644015  1  0  0.116705  0  0.956362  0  0  0.125172  0  1.016406  0  0  0.127875  0  1.016889  0  0  0.109153  0.123252  0  1.01615  0
H  H10  1  0.18109674  0.25620618  0.52583059  1  0  0.115231  0  0.954769  0  0  0.123825  0  1.014876  0  0  0.126529  0  1.015326  0  0  0.108383  0.121806  0  1.014781  0
H  H11  1  0.81890574  0.47416944  0.74379362  1  0  0.115257  0  0.95472  0  0  0.123856  0  1.014822  0  0  0.126547  0  1.015309  0  0  0.108413  0.121825  0  1.014738  0
H  H12  1  0.98930938  0.42178132  0.15554121  1  0  0.112076  0  0.971774  0  0  0.120755  0  1.033566  0  0  0.123561  0  1.033861  0  0  0.102984  0.118812  0  1.03357  0
H  H13  1  0.01068902  0.84445964  0.57821513  1  0  0.112057  0  0.971854  0  0  0.120773  0  1.033602  0  0  0.123581  0  1.033894  0  0  0.102983  0.118818  0  1.033618  0
H  H14  1  0.56646102  0.07846077  0.34442644  1  0  0.112151  0  0.971125  0  0  0.1204  0  1.033384  0  0  0.123207  0  1.033687  0  0  0.102751  0.118436  0  1.033393  0
H  H15  1  0.43353675  0.65557211  0.92154009  1  0  0.112158  0  0.971116  0  0  0.120405  0  1.033369  0  0  0.123212  0  1.033672  0  0  0.102746  0.118441  0  1.033379  0
H  H16  1  0.01069139  0.57821796  0.84445704  1  0  0.112064  0  0.971797  0  0  0.120771  0  1.033554  0  0  0.123575  0  1.033849  0  0  0.102993  0.118822  0  1.033565  0
H  H17  1  0.98930759  0.15554860  0.42178586  1  0  0.111973  0  0.971881  0  0  0.120725  0  1.033616  0  0  0.123552  0  1.033891  0  0  0.102942  0.118769  0  1.033634  0
H  H18  1  0.43353605  0.92154120  0.65557356  1  0  0.112144  0  0.971153  0  0  0.120386  0  1.033411  0  0  0.123192  0  1.033714  0  0  0.102744  0.118453  0  1.033392  0
H  H19  1  0.56646250  0.34442869  0.07845819  1  0  0.11219  0  0.971128  0  0  0.12038  0  1.033452  0  0  0.123185  0  1.033757  0  0  0.102744  0.118448  0  1.033433  0
H  H20  1  0.71597867  0.51352290  0.23115095  1  0  0.089293  0  0.936057  0  0  0.093648  0  1.005929  0  0  0.09672  0  1.002273  0  0  0.117461  0.09129  0  1.008659  0
H  H21  1  0.28402077  0.76884995  0.48647411  1  0  0.089278  0  0.936076  0  0  0.093645  0  1.005929  0  0  0.096729  0  1.002262  0  0  0.117478  0.091275  0  1.008672  0
H  H22  1  0.46059516  0.98667329  0.26882958  1  0  0.089846  0  0.934824  0  0  0.094068  0  1.00477  0  0  0.097169  0  1.001068  0  0  0.117674  0.091685  0  1.007591  0
H  H23  1  0.53940420  0.73116941  0.01332763  1  0  0.089789  0  0.934776  0  0  0.093986  0  1.004755  0  0  0.097088  0  1.001052  0  0  0.117625  0.091603  0  1.007578  0
H  H24  1  0.28402179  0.48647513  0.76884812  1  0  0.089267  0  0.936076  0  0  0.093637  0  1.005923  0  0  0.096714  0  1.002262  0  0  0.117454  0.091265  0  1.008667  0
H  H25  1  0.71597682  0.23115422  0.51353016  1  0  0.089305  0  0.936084  0  0  0.093658  0  1.005938  0  0  0.09673  0  1.002282  0  0  0.117459  0.091298  0  1.008671  0
H  H26  1  0.53940417  0.01332747  0.73117040  1  0  0.089838  0  0.934751  0  0  0.09406  0  1.004701  0  0  0.097162  0  1.000999  0  0  0.117668  0.091678  0  1.007521  0
H  H27  1  0.46059472  0.26883122  0.98667149  1  0  0.089797  0  0.934743  0  0  0.094028  0  1.0047  0  0  0.097128  0  1.000998  0  0  0.117656  0.091646  0  1.00752  0
H  H28  1  0.76165242  0.83285083  0.10277327  1  0  0.094042  0  0.946911  0  0  0.099259  0  1.014113  0  0  0.101918  0  1.011472  0  0  0.11958  0.097266  0  1.016198  0
H  H29  1  0.23834866  0.89722463  0.16714668  1  0  0.09403  0  0.946962  0  0  0.099262  0  1.014139  0  0  0.101921  0  1.011499  0  0  0.119588  0.097269  0  1.016223  0
H  H30  1  0.69724695  0.66736303  0.39728954  1  0  0.093335  0  0.947662  0  0  0.098404  0  1.015122  0  0  0.10103  0  1.012483  0  0  0.118812  0.096417  0  1.01723  0
H  H31  1  0.30275127  0.60270941  0.33263719  1  0  0.093321  0  0.947679  0  0  0.098388  0  1.015146  0  0  0.101015  0  1.012507  0  0  0.118831  0.096403  0  1.017253  0
H  H32  1  0.23834579  0.16714841  0.89722583  1  0  0.094019  0  0.946882  0  0  0.099259  0  1.014049  0  0  0.101918  0  1.011408  0  0  0.119567  0.097262  0  1.016138  0
H  H33  1  0.76165466  0.10277010  0.83285654  1  0  0.094045  0  0.946936  0  0  0.099327  0  1.014036  0  0  0.101986  0  1.011394  0  0  0.119593  0.097321  0  1.016136  0
H  H34  1  0.30275597  0.33263724  0.60270704  1  0  0.093294  0  0.947735  0  0  0.098404  0  1.015145  0  0  0.101029  0  1.012508  0  0  0.118814  0.096417  0  1.017255  0
H  H35  1  0.69724687  0.39729305  0.66736197  1  0  0.093311  0  0.947698  0  0  0.098384  0  1.015151  0  0  0.101009  0  1.012514  0  0  0.118814  0.096398  0  1.017261  0
H  H36  1  0.18045816  0.97908697  0.97909671  1  0  0.22819  0  0.987555  0  0  0.226496  0  1.043948  0  0  0.232681  0  1.038524  0  0  0.12205  0.222048  0  1.047944  0
H  H37  1  0.81954140  0.02090374  0.02091233  1  0  0.228163  0  0.987574  0  0  0.226469  0  1.043969  0  0  0.232655  0  1.038543  0  0  0.122037  0.222021  0  1.047963  0
H  H38  1  0.13840258  0.52105320  0.52105101  1  0  0.228853  0  0.986036  0  0  0.228303  0  1.040671  0  0  0.234463  0  1.035229  0  0  0.122384  0.223878  0  1.044651  0
H  H39  1  0.86159698  0.47894886  0.47894646  1  0  0.228743  0  0.986048  0  0  0.228185  0  1.040708  0  0  0.234344  0  1.035268  0  0  0.122337  0.223734  0  1.044728  0
H  H40  1  0.35153019  0.21203483  0.21203318  1  0  0.220743  0  0.941132  0  0  0.223215  0  0.992629  0  0  0.228741  0  0.988359  0  0  0.140155  0.219238  0  0.995802  0
H  H41  1  0.64846593  0.78796446  0.78796930  1  0  0.220646  0  0.941207  0  0  0.223142  0  0.992681  0  0  0.228669  0  0.988412  0  0  0.140086  0.219166  0  0.995853  0
H  H42  1  0.77518382  0.28834634  0.28834393  1  0  0.21866  0  0.942832  0  0  0.221496  0  0.994052  0  0  0.22703  0  0.989768  0  0  0.138911  0.217486  0  0.997305  0
H  H43  1  0.22481903  0.71164972  0.71164917  1  0  0.218742  0  0.942636  0  0  0.221509  0  0.993971  0  0  0.22704  0  0.989691  0  0  0.138934  0.217495  0  0.99723  0
H  H44  1  0.44443755  0.34337729  0.34337428  1  0  0.228429  0  0.963919  0  0  0.226567  0  1.020168  0  0  0.23243  0  1.015397  0  0  0.129401  0.222288  0  1.023752  0
H  H45  1  0.55556394  0.65662338  0.65662400  1  0  0.228425  0  0.963927  0  0  0.226557  0  1.020193  0  0  0.232419  0  1.015423  0  0  0.129399  0.222278  0  1.023778  0
H  H46  1  0.13080530  0.15688770  0.15689028  1  0  0.227761  0  0.964382  0  0  0.225718  0  1.02125  0  0  0.23153  0  1.016532  0  0  0.129021  0.221528  0  1.024716  0
H  H47  1  0.86919975  0.84310787  0.84311042  1  0  0.227868  0  0.964274  0  0  0.225818  0  1.021137  0  0  0.231631  0  1.016418  0  0  0.129072  0.22163  0  1.024605  0
C  C48  1  0.03491311  0.58222556  0.08444734  1  0  0.088673  0  3.774162  0  0  0.107035  0  4.025105  0  0  0.112295  0  4.046263  0  0  0.011365  0.103055  0  4.011429  0
C  C49  1  0.96508543  0.91555448  0.41777202  1  0  0.088783  0  3.77416  0  0  0.107185  0  4.025046  0  0  0.112449  0  4.046197  0  0  0.011402  0.103205  0  4.01137  0
C  C50  1  0.70144959  0.91798670  0.41556722  1  0  0.086138  0  3.774878  0  0  0.104068  0  4.026682  0  0  0.109313  0  4.047851  0  0  0.009256  0.100085  0  4.012995  0
C  C51  1  0.29854927  0.58443111  0.08201474  1  0  0.086151  0  3.774969  0  0  0.104063  0  4.026786  0  0  0.109309  0  4.047953  0  0  0.009276  0.100077  0  4.013098  0
C  C52  1  0.96508624  0.41777413  0.91555261  1  0  0.088725  0  3.774096  0  0  0.107083  0  4.025052  0  0  0.112344  0  4.04621  0  0  0.011375  0.103103  0  4.011376  0
C  C53  1  0.03491393  0.08444839  0.58222970  1  0  0.088719  0  3.774154  0  0  0.107108  0  4.025077  0  0  0.112366  0  4.046243  0  0  0.011397  0.103124  0  4.011397  0
C  C54  1  0.29855007  0.08201424  0.58443191  1  0  0.08617  0  3.774989  0  0  0.104069  0  4.026812  0  0  0.109313  0  4.047984  0  0  0.009289  0.100084  0  4.013132  0
C  C55  1  0.70145041  0.41556876  0.91798437  1  0  0.086106  0  3.775042  0  0  0.104058  0  4.026803  0  0  0.109302  0  4.047973  0  0  0.009263  0.100072  0  4.013119  0
C  C56  1  0.97026871  0.69933746  0.07086332  1  0  -0.155857  0  3.723396  0  0  -0.172447  0  3.965907  0  0  -0.18006  0  3.988229  0  0  -0.082465  -0.166862  0  3.95081  0
C  C57  1  0.02973235  0.92913694  0.30065957  1  0  -0.156083  0  3.723495  0  0  -0.172698  0  3.966011  0  0  -0.180315  0  3.988333  0  0  -0.082532  -0.167111  0  3.950914  0
C  C58  1  0.74029672  0.80087336  0.42922219  1  0  -0.155568  0  3.72065  0  0  -0.172279  0  3.963482  0  0  -0.179879  0  3.985779  0  0  -0.083976  -0.166664  0  3.94848  0
C  C59  1  0.25970091  0.57077704  0.19912814  1  0  -0.155511  0  3.720717  0  0  -0.172224  0  3.963568  0  0  -0.179823  0  3.98586  0  0  -0.083963  -0.166606  0  3.948564  0
C  C60  1  0.02973173  0.30066165  0.92913577  1  0  -0.155996  0  3.723522  0  0  -0.1726  0  3.966046  0  0  -0.180214  0  3.988371  0  0  -0.082534  -0.167013  0  3.950946  0
C  C61  1  0.97026966  0.07086168  0.69934120  1  0  -0.156  0  3.723543  0  0  -0.172606  0  3.966061  0  0  -0.180221  0  3.988381  0  0  -0.082516  -0.16702  0  3.95096  0
C  C62  1  0.25970401  0.19912807  0.57077610  1  0  -0.155561  0  3.720725  0  0  -0.172269  0  3.963562  0  0  -0.179866  0  3.985868  0  0  -0.083966  -0.166658  0  3.948555  0
C  C63  1  0.74029875  0.42922390  0.80087099  1  0  -0.155575  0  3.720721  0  0  -0.172311  0  3.963565  0  0  -0.17991  0  3.985859  0  0  -0.083987  -0.166688  0  3.948563  0
C  C64  1  0.94381237  0.51316803  0.14171549  1  0  -0.15876  0  3.713065  0  0  -0.175211  0  3.954116  0  0  -0.18252  0  3.974703  0  0  -0.0875  -0.171408  0  3.941249  0
C  C65  1  0.05618671  0.85828474  0.48682991  1  0  -0.158782  0  3.713133  0  0  -0.175281  0  3.954173  0  0  -0.182591  0  3.97476  0  0  -0.087517  -0.17146  0  3.9413  0
C  C66  1  0.59854251  0.98705095  0.35829392  1  0  -0.157904  0  3.713481  0  0  -0.173677  0  3.954334  0  0  -0.18097  0  3.974941  0  0  -0.086001  -0.169883  0  3.941465  0
C  C67  1  0.40145690  0.64170490  0.01294956  1  0  -0.157955  0  3.71361  0  0  -0.173717  0  3.954452  0  0  -0.18101  0  3.97506  0  0  -0.086012  -0.169923  0  3.941585  0
C  C68  1  0.05618881  0.48683138  0.85828361  1  0  -0.15877  0  3.713059  0  0  -0.175242  0  3.954099  0  0  -0.182548  0  3.974686  0  0  -0.087503  -0.171431  0  3.941231  0
C  C69  1  0.94381154  0.14171978  0.51317268  1  0  -0.158667  0  3.713101  0  0  -0.175205  0  3.954122  0  0  -0.182535  0  3.974698  0  0  -0.087503  -0.171387  0  3.94126  0
C  C70  1  0.40145608  0.01294950  0.64170605  1  0  -0.157942  0  3.713658  0  0  -0.173694  0  3.954508  0  0  -0.180984  0  3.975117  0  0  -0.086018  -0.16993  0  3.941624  0
C  C71  1  0.59854276  0.35829604  0.98704958  1  0  -0.157946  0  3.713686  0  0  -0.173678  0  3.954564  0  0  -0.18097  0  3.975173  0  0  -0.086009  -0.169913  0  3.941679  0
C  C72  1  0.79130233  0.56367849  0.18307838  1  0  0.143292  0  3.689256  0  0  0.110205  0  3.947402  0  0  0.117994  0  3.963572  0  0  0.052319  0.105086  0  3.937271  0
C  C73  1  0.20869667  0.81692148  0.43631953  1  0  0.143364  0  3.689195  0  0  0.110256  0  3.947343  0  0  0.118038  0  3.963508  0  0  0.052306  0.105146  0  3.937215  0
C  C74  1  0.53796632  0.93651895  0.31693243  1  0  0.142246  0  3.69207  0  0  0.109334  0  3.950002  0  0  0.117091  0  3.966202  0  0  0.051647  0.10421  0  3.939857  0
C  C75  1  0.46203135  0.68306620  0.06348253  1  0  0.142386  0  3.692057  0  0  0.109472  0  3.949964  0  0  0.117231  0  3.966168  0  0  0.051724  0.104353  0  3.93982  0
C  C76  1  0.20869738  0.43632031  0.81692071  1  0  0.143321  0  3.68923  0  0  0.110222  0  3.947364  0  0  0.118008  0  3.963531  0  0  0.052294  0.105112  0  3.937236  0
C  C77  1  0.79130243  0.18308117  0.56368471  1  0  0.143336  0  3.689015  0  0  0.110267  0  3.947163  0  0  0.118057  0  3.963335  0  0  0.052371  0.105147  0  3.937033  0
C  C78  1  0.46203184  0.06348243  0.68306671  1  0  0.1423  0  3.692036  0  0  0.109391  0  3.949965  0  0  0.117145  0  3.966168  0  0  0.051668  0.104266  0  3.939826  0
C  C79  1  0.53796831  0.31693474  0.93651661  1  0  0.142406  0  3.691948  0  0  0.109459  0  3.949858  0  0  0.117215  0  3.966055  0  0  0.051721  0.104336  0  3.939721  0
C  C80  1  0.81731121  0.74237332  0.11362283  1  0  0.139799  0  3.678063  0  0  0.109245  0  3.927593  0  0  0.115877  0  3.945606  0  0  0.049917  0.104696  0  3.915094  0
C  C81  1  0.18269070  0.88637694  0.25762390  1  0  0.139949  0  3.678062  0  0  0.109392  0  3.927571  0  0  0.116024  0  3.945583  0  0  0.049911  0.10484  0  3.915076  0
C  C82  1  0.67321583  0.75784067  0.38643817  1  0  0.140124  0  3.677279  0  0  0.109871  0  3.926878  0  0  0.116533  0  3.944836  0  0  0.051249  0.105333  0  3.914391  0
C  C83  1  0.32678140  0.61356130  0.24216019  1  0  0.140147  0  3.677461  0  0  0.10987  0  3.927047  0  0  0.116535  0  3.945005  0  0  0.051234  0.105332  0  3.914559  0
C  C84  1  0.18268890  0.25762561  0.88637710  1  0  0.139936  0  3.678032  0  0  0.109386  0  3.927525  0  0  0.116017  0  3.945538  0  0  0.049959  0.104837  0  3.915027  0
C  C85  1  0.81731141  0.11362056  0.74237854  1  0  0.139862  0  3.67794  0  0  0.109282  0  3.927436  0  0  0.115915  0  3.945445  0  0  0.049905  0.104742  0  3.914943  0
C  C86  1  0.32678416  0.24216044  0.61356013  1  0  0.140111  0  3.677364  0  0  0.10984  0  3.926941  0  0  0.116499  0  3.944903  0  0  0.05122  0.105299  0  3.914452  0
C  C87  1  0.67321750  0.38644040  0.75783896  1  0  0.14017  0  3.677412  0  0  0.109903  0  3.926978  0  0  0.116563  0  3.944934  0  0  0.051247  0.105362  0  3.914489  0
C  C88  1  0.06511167  0.99200972  0.99202375  1  0  -0.223172  0  3.604553  0  0  -0.222546  0  3.814928  0  0  -0.226846  0  3.83494  0  0  -0.143322  -0.21955  0  3.801483  0
C  C89  1  0.93488779  0.00797643  0.00798942  1  0  -0.223049  0  3.604555  0  0  -0.222417  0  3.814923  0  0  -0.226718  0  3.834934  0  0  -0.143259  -0.21942  0  3.801475  0
C  C90  1  0.04903075  0.50805288  0.50804903  1  0  -0.224069  0  3.599537  0  0  -0.224336  0  3.808387  0  0  -0.228604  0  3.828467  0  0  -0.143952  -0.221295  0  3.794966  0
C  C91  1  0.95096912  0.49195043  0.49194762  1  0  -0.223784  0  3.599497  0  0  -0.224037  0  3.808339  0  0  -0.228304  0  3.828424  0  0  -0.143817  -0.220973  0  3.794957  0
C  C92  1  0.41397535  0.30143665  0.30143150  1  0  -0.202572  0  3.604349  0  0  -0.203584  0  3.823251  0  0  -0.207697  0  3.844396  0  0  -0.12752  -0.200596  0  3.809138  0
C  C93  1  0.58602647  0.69856419  0.69856594  1  0  -0.202526  0  3.604445  0  0  -0.203541  0  3.823357  0  0  -0.207652  0  3.8445  0  0  -0.127469  -0.200552  0  3.809245  0
C  C94  1  0.01644377  0.19886189  0.19886122  1  0  -0.203232  0  3.599911  0  0  -0.204308  0  3.819283  0  0  -0.208381  0  3.840374  0  0  -0.127794  -0.201375  0  3.805028  0
C  C95  1  0.98356117  0.80113588  0.80113784  1  0  -0.203406  0  3.599791  0  0  -0.204476  0  3.819159  0  0  -0.208547  0  3.84024  0  0  -0.127843  -0.20154  0  3.804891  0
C  C96  1  0.37947231  0.25455413  0.25455121  1  0  -0.214284  0  3.608376  0  0  -0.22061  0  3.828458  0  0  -0.224813  0  3.848507  0  0  -0.132001  -0.217518  0  3.815023  0
C  C97  1  0.62052842  0.74544730  0.74544709  1  0  -0.214222  0  3.608503  0  0  -0.220579  0  3.828568  0  0  -0.224781  0  3.848613  0  0  -0.131979  -0.217488  0  3.815131  0
C  C98  1  0.88816582  0.24581492  0.24581207  1  0  -0.210842  0  3.603982  0  0  -0.217583  0  3.823744  0  0  -0.221764  0  3.843708  0  0  -0.130226  -0.214542  0  3.810269  0
C  C99  1  0.11183673  0.75418306  0.75418361  1  0  -0.21086  0  3.603768  0  0  -0.217537  0  3.823552  0  0  -0.221725  0  3.843535  0  0  -0.130251  -0.214497  0  3.810079  0
S  S100  1  0.22753382  0.52249260  0.02236521  1  0  -0.00715  0  2.434523  0  0  -0.013689  0  2.754213  0  0  -0.019315  0  2.759355  0  0  0.042441  -0.007947  0  2.750355  0
S  S101  1  0.77246650  0.97763490  0.47750523  1  0  -0.007143  0  2.434541  0  0  -0.013699  0  2.754207  0  0  -0.019329  0  2.759352  0  0  0.042458  -0.00796  0  2.75035  0
S  S102  1  0.77246584  0.47750834  0.97763392  1  0  -0.007114  0  2.434506  0  0  -0.01366  0  2.754176  0  0  -0.019288  0  2.759322  0  0  0.042459  -0.007923  0  2.750322  0
S  S103  1  0.22753349  0.02236621  0.52249306  1  0  -0.007133  0  2.434507  0  0  -0.013678  0  2.75419  0  0  -0.019305  0  2.759338  0  0  0.042447  -0.007939  0  2.750335  0
N  N104  1  0.72905557  0.67592121  0.16862925  1  0  -0.331607  0  3.287998  0  0  -0.254231  0  3.556026  0  0  -0.272447  0  3.573372  0  0  -0.326797  -0.241831  0  3.544682  0
N  N105  1  0.27094428  0.83137060  0.32407632  1  0  -0.331707  0  3.288008  0  0  -0.254317  0  3.556025  0  0  -0.272534  0  3.573374  0  0  -0.326775  -0.241911  0  3.544675  0
N  N106  1  0.57355119  0.82428113  0.33140674  1  0  -0.330701  0  3.288681  0  0  -0.253845  0  3.556955  0  0  -0.272029  0  3.574304  0  0  -0.326422  -0.24151  0  3.545621  0
N  N107  1  0.42644726  0.66859144  0.17571954  1  0  -0.33083  0  3.288834  0  0  -0.253913  0  3.557037  0  0  -0.272103  0  3.574395  0  0  -0.326468  -0.241584  0  3.545713  0
N  N108  1  0.27094339  0.32407727  0.83136983  1  0  -0.331656  0  3.288007  0  0  -0.254284  0  3.556034  0  0  -0.272501  0  3.573381  0  0  -0.32676  -0.241879  0  3.54468  0
N  N109  1  0.72905639  0.16862838  0.67592784  1  0  -0.331727  0  3.287674  0  0  -0.254365  0  3.555732  0  0  -0.272582  0  3.573074  0  0  -0.32682  -0.241957  0  3.544382  0
N  N110  1  0.42644956  0.17571923  0.66859154  1  0  -0.330726  0  3.288681  0  0  -0.253896  0  3.556979  0  0  -0.272076  0  3.574326  0  0  -0.32643  -0.241556  0  3.54564  0
N  N111  1  0.57355166  0.33140918  0.82427959  1  0  -0.330856  0  3.288775  0  0  -0.253943  0  3.556998  0  0  -0.272121  0  3.574341  0  0  -0.326476  -0.241609  0  3.545667  0
F  F112  1  0.50000060  0.88768457  0.11231621  1  0  -0.585445  0  1.122826  0  0  -0.517301  0  1.349804  0  0  -0.534178  0  1.324001  0  0  -0.198137  -0.503535  0  1.366088  0
F  F113  1  0.49999762  0.61233409  0.38766760  1  0  -0.585633  0  1.121941  0  0  -0.517646  0  1.349127  0  0  -0.534519  0  1.323249  0  0  -0.198144  -0.50378  0  1.365348  0
F  F114  1  0.49999987  0.11231664  0.88768461  1  0  -0.585433  0  1.122787  0  0  -0.517287  0  1.349771  0  0  -0.534162  0  1.323964  0  0  -0.198151  -0.503536  0  1.36607  0
F  F115  1  0.50000014  0.38766716  0.61233070  1  0  -0.585635  0  1.121953  0  0  -0.517654  0  1.349141  0  0  -0.534523  0  1.323257  0  0  -0.198126  -0.503777  0  1.365352  0
F  F116  1  0.37596462  0.96835405  0.96835551  1  0  -0.592502  0  0.950597  0  0  -0.540987  0  1.132732  0  0  -0.555608  0  1.108917  0  0  -0.220863  -0.530436  0  1.149399  0
F  F117  1  0.62403511  0.03164685  0.03164531  1  0  -0.592488  0  0.950583  0  0  -0.540992  0  1.132734  0  0  -0.555613  0  1.108918  0  0  -0.220864  -0.530442  0  1.1494  0
F  F118  1  0.31263283  0.53165531  0.53165589  1  0  -0.592122  0  0.949213  0  0  -0.541267  0  1.131709  0  0  -0.555913  0  1.107792  0  0  -0.221735  -0.530742  0  1.148471  0
F  F119  1  0.68736600  0.46834643  0.46834157  1  0  -0.592144  0  0.94921  0  0  -0.54129  0  1.131703  0  0  -0.555939  0  1.10779  0  0  -0.221758  -0.53076  0  1.148465  0
F  F120  1  0.35671314  0.08655352  0.08655174  1  0  -0.603348  0  0.905812  0  0  -0.551883  0  1.083625  0  0  -0.566132  0  1.059643  0  0  -0.234577  -0.541593  0  1.100451  0
F  F121  1  0.64328617  0.91344832  0.91344826  1  0  -0.603306  0  0.905832  0  0  -0.551834  0  1.083637  0  0  -0.566098  0  1.059672  0  0  -0.234536  -0.541546  0  1.100464  0
F  F122  1  0.52988792  0.41345358  0.41345009  1  0  -0.603382  0  0.906414  0  0  -0.551728  0  1.084083  0  0  -0.566097  0  1.060122  0  0  -0.234077  -0.541383  0  1.10089  0
F  F123  1  0.47010984  0.58654768  0.58654821  1  0  -0.603396  0  0.906354  0  0  -0.551708  0  1.084008  0  0  -0.566069  0  1.060038  0  0  -0.23408  -0.541362  0  1.100814  0
