# generated using pymatgen
data_CoH12C14(N3O2)2
_symmetry_space_group_name_H-M   'P 1'
_cell_length_a   5.39932264
_cell_length_b   8.76910287
_cell_length_c   9.48435908
_cell_angle_alpha   74.83540363
_cell_angle_beta   79.81877820
_cell_angle_gamma   83.44600403
_symmetry_Int_Tables_number   1
_chemical_formula_structural   CoH12C14(N3O2)2
_chemical_formula_sum   'Co1 H12 C14 N6 O4'
_cell_volume   425.50515139
_cell_formula_units_Z   1
loop_
 _symmetry_equiv_pos_site_id
 _symmetry_equiv_pos_as_xyz
  1  'x, y, z'
loop_
 _atom_site_type_symbol
 _atom_site_label
 _atom_site_symmetry_multiplicity
 _atom_site_fract_x
 _atom_site_fract_y
 _atom_site_fract_z
 _atom_site_occupancy
 _atom_site_hle17_ddec_charge
 _atom_site_hle17_ddec_spin_density
 _atom_site_hle17_ddec_sum_bond_order
 _atom_site_hle17_magmom
 _atom_site_hse06_10hf_ddec_charge
 _atom_site_hse06_10hf_ddec_spin_density
 _atom_site_hse06_10hf_ddec_sum_bond_order
 _atom_site_hse06_10hf_magmom
 _atom_site_hse06_ddec_charge
 _atom_site_hse06_ddec_spin_density
 _atom_site_hse06_ddec_sum_bond_order
 _atom_site_hse06_magmom
 _atom_site_pbe_cm5_charge
 _atom_site_pbe_ddec_charge
 _atom_site_pbe_ddec_spin_density
 _atom_site_pbe_ddec_sum_bond_order
 _atom_site_pbe_magmom
Co  Co0  1  0.00001318  0.49999801  0.00000225  1  0.692344  -1.069908  2.49137  -0.997  0.693921  -1.011633  2.916127  -0.955  0.774864  -1.014501  2.833658  -0.961  0.614793  0.650484  -1.009144  2.965268  -0.947
H  H1  1  0.36721004  0.58230743  0.67922650  1  0.102306  0.0001  0.944291  0.0  0.10567  0.000165  1.015072  0.0  0.107995  9.9e-05  1.012233  0.0  0.135539  0.103551  0.000224  1.017672  0.0
H  H2  1  0.63278022  0.41769619  0.32076789  1  0.102356  0.000101  0.944244  0.0  0.105691  0.000165  1.015042  0.0  0.108042  9.9e-05  1.012177  0.0  0.135534  0.103573  0.000224  1.017637  0.0
H  H3  1  0.83252529  0.24200126  0.86185149  1  0.121253  8.5e-05  0.922224  0.0  0.131959  0.000214  0.979198  0.0  0.135418  0.000126  0.974363  0.0  0.149555  0.129048  0.000299  0.983068  0.0
H  H4  1  0.16748874  0.75798899  0.13815630  1  0.121328  8.7e-05  0.922308  0.0  0.131877  0.000214  0.97944  0.0  0.135337  0.000126  0.974605  0.0  0.149541  0.128968  0.000299  0.983307  0.0
H  H5  1  0.95488978  0.24845013  0.47628464  1  0.095502  7.3e-05  0.922474  0.0  0.109372  7.4e-05  0.986953  0.0  0.109995  4.4e-05  0.986929  0.0  0.118157  0.108985  8.6e-05  0.986991  0.0
H  H6  1  0.04510607  0.75155458  0.52371208  1  0.095567  7.5e-05  0.92241  0.0  0.109455  7.3e-05  0.986897  0.0  0.110078  4.4e-05  0.986874  0.0  0.118196  0.109065  8.6e-05  0.986936  0.0
H  H7  1  0.88949635  0.10980255  0.64969975  1  0.090116  -5e-06  0.92604  0.0  0.106806  -7e-06  0.985539  0.0  0.106981  -5e-06  0.98639  0.0  0.119052  0.10657  -9e-06  0.985018  0.0
H  H8  1  0.11048599  0.89020591  0.35029431  1  0.090107  -1.2e-05  0.926069  0.0  0.106834  -7e-06  0.985557  0.0  0.107012  -5e-06  0.986405  0.0  0.119056  0.106597  -9e-06  0.985036  0.0
H  H9  1  0.29112986  0.94826692  0.76190929  1  0.104849  -5e-05  0.946482  0.0  0.114672  -4.4e-05  1.006582  0.0  0.118515  -3e-06  1.003728  0.0  0.101746  0.111876  -8.7e-05  1.008426  0.0
H  H10  1  0.70884917  0.05173567  0.23808547  1  0.104943  -4.9e-05  0.946366  0.0  0.114744  -4.4e-05  1.006492  0.0  0.118587  -3e-06  1.003637  0.0  0.101758  0.111948  -8.7e-05  1.008337  0.0
H  H11  1  0.31012438  0.20019893  0.30259766  1  0.109807  -3.8e-05  0.974343  0.0  0.119388  6.2e-05  1.036221  0.0  0.123282  0.000162  1.03397  0.0  0.101743  0.116263  7e-06  1.038268  0.0
H  H12  1  0.68985499  0.79980009  0.69740319  1  0.109849  -4.9e-05  0.974298  0.0  0.11942  6.2e-05  1.036165  0.0  0.123315  0.000162  1.03392  0.0  0.101702  0.116317  7e-06  1.038188  0.0
C  C13  1  0.24889996  0.48586303  0.69341920  1  0.177829  0.00667  3.678171  0.005  0.129604  0.003024  3.973383  0.002  0.142598  0.002078  3.984748  0.001  0.142443  0.120914  0.003569  3.967202  0.002
C  C14  1  0.75111073  0.51414502  0.30657939  1  0.177658  0.006653  3.678622  0.005  0.129462  0.003023  3.973865  0.002  0.14243  0.002075  3.985219  0.001  0.142456  0.120776  0.003568  3.967679  0.002
C  C15  1  0.97587736  0.31411601  0.78851589  1  0.152637  0.010918  3.614805  0.007  0.07993  0.004728  3.874898  0.003  0.096183  0.003071  3.885686  0.002  0.161095  0.069024  0.005754  3.869485  0.003
C  C16  1  0.02413401  0.68588375  0.21148673  1  0.152647  0.010907  3.614885  0.007  0.080116  0.00473  3.874964  0.003  0.09637  0.003071  3.885742  0.002  0.161143  0.069207  0.005756  3.869558  0.003
C  C17  1  0.03419762  0.18360520  0.57581697  1  -0.056076  -2.1e-05  3.656094  0.0  -0.138737  1.1e-05  3.910536  0.0  -0.134727  3e-06  3.921252  0.0  -0.042048  -0.141354  1.5e-05  3.903334  0.0
C  C18  1  0.96579677  0.81639363  0.42417709  1  -0.05609  -1.6e-05  3.656021  0.0  -0.13882  1.1e-05  3.910544  0.0  -0.134811  3e-06  3.921257  0.0  -0.042054  -0.141434  1.5e-05  3.903335  0.0
C  C19  1  0.27321736  0.08645043  0.53682453  1  0.063218  0.000181  3.770784  0.0  0.0815  3.3e-05  4.015381  0.0  0.080088  6e-06  4.041214  0.0  -0.015179  0.082611  5.4e-05  3.997811  0.0
C  C20  1  0.72677467  0.91355551  0.46317651  1  0.063277  0.00019  3.770824  0.0  0.081638  3.3e-05  4.015331  0.0  0.080231  1.3e-05  4.041154  0.0  -0.015173  0.082746  5.4e-05  3.997767  0.0
C  C21  1  0.38208705  0.97327442  0.64677412  1  -0.11202  -5.9e-05  3.740108  0.0  -0.13318  -6.6e-05  3.98804  0.0  -0.135787  -2e-05  4.009221  0.0  -0.09349  -0.131381  -0.000124  3.973606  0.0
C  C22  1  0.61789371  0.02673051  0.35322306  1  -0.112289  -6.1e-05  3.740039  0.0  -0.133445  -6.6e-05  3.98796  0.0  -0.136054  -2.7e-05  4.009139  0.0  -0.09358  -0.131644  -0.000124  3.973521  0.0
C  C23  1  0.39240634  0.11247449  0.38985460  1  -0.11586  0.000112  3.742722  0.0  -0.134054  7.9e-05  3.988321  0.0  -0.136768  0.000162  4.008981  0.0  -0.091688  -0.132208  2e-05  3.974648  0.0
C  C24  1  0.60758167  0.88753389  0.61013994  1  -0.115998  0.000137  3.742934  0.0  -0.134188  7.8e-05  3.988504  0.0  -0.136904  0.000153  4.009158  0.0  -0.091648  -0.132357  2e-05  3.974815  0.0
C  C25  1  0.49209235  0.41213555  0.04240554  1  0.489607  0.012169  3.915802  0.007  0.452933  0.004298  4.224179  0.002  0.486114  0.002091  4.21848  0.0  0.195741  0.428207  0.006747  4.229552  0.003
C  C26  1  0.50795242  0.58784717  0.95760402  1  0.489605  0.012161  3.915823  0.007  0.453092  0.004299  4.224007  0.002  0.486277  0.002094  4.2183  0.0  0.195702  0.428362  0.006748  4.229386  0.003
N  N27  1  0.07817970  0.43267223  0.81773490  1  -0.323646  0.010156  3.350535  0.005  -0.283281  0.007245  3.656664  0.005  -0.313496  0.007158  3.671672  0.005  -0.354147  -0.267043  0.005397  3.64931  0.003
N  N28  1  0.92183957  0.56732269  0.18226701  1  -0.323612  0.010157  3.350544  0.005  -0.28325  0.007245  3.656645  0.005  -0.313456  0.007158  3.671645  0.005  -0.35414  -0.267013  0.005396  3.649296  0.003
N  N29  1  0.08105697  0.29899322  0.65314934  1  0.050424  0.000348  3.585618  0.0  0.167971  0.000655  3.778298  0.0  0.158295  0.000382  3.800687  0.0  -0.128631  0.173277  0.001043  3.76472  0.001
N  N30  1  0.91892757  0.70101166  0.34684746  1  0.050482  0.000374  3.58547  0.0  0.167955  0.000656  3.778256  0.0  0.158266  0.000381  3.800669  0.0  -0.128622  0.17326  0.001043  3.764679  0.001
N  N31  1  0.25540711  0.40677019  0.59071030  1  -0.258615  -6.9e-05  2.848315  -0.001  -0.265191  0.000406  3.120369  0.0  -0.272848  0.000347  3.133648  0.0  -0.218823  -0.259746  0.000612  3.111628  0.0
N  N32  1  0.74456956  0.59323835  0.40928222  1  -0.258634  -7.6e-05  2.848385  -0.001  -0.265181  0.000405  3.120476  0.0  -0.272835  0.000348  3.133764  0.0  -0.218889  -0.259736  0.000611  3.111732  0.0
O  O33  1  0.27376337  0.35737542  0.07397546  1  -0.503076  0.014935  2.169661  0.012  -0.485138  0.007144  2.436718  0.006  -0.523925  0.010826  2.427682  0.009  -0.29844  -0.458034  0.005559  2.441445  0.005
O  O34  1  0.72625784  0.64261946  0.92603153  1  -0.503289  0.014948  2.169987  0.012  -0.485406  0.007144  2.43698  0.006  -0.524189  0.010827  2.427939  0.009  -0.298602  -0.458307  0.005562  2.441715  0.005
O  O35  1  0.69255368  0.33291664  0.07613853  1  -0.534297  -0.020559  2.041887  -0.038  -0.507067  -0.022202  2.28693  -0.038  -0.535232  -0.019273  2.275003  -0.034  -0.289926  -0.485687  -0.024594  2.293914  -0.042
O  O36  1  0.30747573  0.66706984  0.92387068  1  -0.534209  -0.020565  2.041623  -0.038  -0.50707  -0.022206  2.286608  -0.038  -0.53524  -0.019276  2.274678  -0.034  -0.289868  -0.485685  -0.0246  2.293593  -0.042
