# generated using pymatgen
data_ZnH7(C9O2)2
_symmetry_space_group_name_H-M   'P 1'
_cell_length_a   16.61022140
_cell_length_b   16.82840991
_cell_length_c   16.68949569
_cell_angle_alpha   68.48140663
_cell_angle_beta   68.16344005
_cell_angle_gamma   68.50154246
_symmetry_Int_Tables_number   1
_chemical_formula_structural   ZnH7(C9O2)2
_chemical_formula_sum   'Zn6 H42 C108 O24'
_cell_volume   3882.97743028
_cell_formula_units_Z   6
loop_
 _symmetry_equiv_pos_site_id
 _symmetry_equiv_pos_as_xyz
  1  'x, y, z'
loop_
 _atom_site_type_symbol
 _atom_site_label
 _atom_site_symmetry_multiplicity
 _atom_site_fract_x
 _atom_site_fract_y
 _atom_site_fract_z
 _atom_site_occupancy
 _atom_site_pbe_bader_charge
 _atom_site_pbe_bader_spin_density
 _atom_site_pbe_cm5_charge
 _atom_site_pbe_ddec_charge
 _atom_site_pbe_ddec_spin_density
 _atom_site_pbe_ddec_sum_bond_order
 _atom_site_pbe_magmom
Zn  Zn0  1  0.98747127  0.56894924  0.98195587  1  1.29342  0  0.721547  0.935222  0  2.181799  0
Zn  Zn1  1  0.97691152  0.42559897  0.96505251  1  1.296063  0  0.721944  0.935605  0  2.150491  0
Zn  Zn2  1  0.58346730  0.94378698  0.06031092  1  1.281602  0  0.721316  0.925338  0  2.156738  0
Zn  Zn3  1  0.42613118  0.95870667  0.04037607  1  1.300992  0  0.710818  0.920188  0  2.194542  0
Zn  Zn4  1  0.02870304  0.02178234  0.57546089  1  1.290424  0  0.716665  0.925881  0  2.16444  0
Zn  Zn5  1  0.01939862  0.00998964  0.42539708  1  1.296435  0  0.719295  0.93236  0  2.185899  0
H  H6  1  0.88439269  0.82241634  0.32515041  1  0.039306  0  0.106122  0.108449  0  0.98899  0
H  H7  1  0.75570877  0.14220021  0.32672227  1  0.058328  0  0.104173  0.107997  0  0.994489  0
H  H8  1  0.66005632  0.16534067  0.04537702  1  0.073582  0  0.105155  0.107376  0  0.988609  0
H  H9  1  0.23772343  0.71666448  0.12434728  1  0.088503  0  0.105426  0.108714  0  0.988362  0
H  H10  1  0.93994122  0.82649571  0.43936142  1  0.104832  0  0.105982  0.123262  0  1.03017  0
H  H11  1  0.09537260  0.21127077  0.48125244  1  0.097318  0  0.102988  0.119284  0  1.031326  0
H  H12  1  0.76024950  0.39426491  0.04699883  1  0.124212  0  0.104006  0.120065  0  1.046686  0
H  H13  1  0.14678390  0.50429551  0.07609487  1  0.094985  0  0.102306  0.118068  0  1.039842  0
H  H14  1  0.51840007  0.89295475  0.84941700  1  0.123699  0  0.104961  0.120628  0  1.038309  0
H  H15  1  0.56637228  0.06542808  0.22686119  1  0.096027  0  0.10378  0.119533  0  1.029134  0
H  H16  1  0.89070349  0.59283813  0.22115039  1  0.107  0  0.105992  0.11981  0  1.022393  0
H  H17  1  0.14899490  0.21656741  0.59732701  1  0.09674  0  0.106597  0.112591  0  0.985785  0
H  H18  1  0.10615991  0.44456751  0.72623632  1  0.094295  0  0.105483  0.12094  0  1.009077  0
H  H19  1  0.26560977  0.90988425  0.60866368  1  0.092102  0  0.104744  0.117718  0  1.009952  0
H  H20  1  0.77955529  0.11016071  0.47297310  1  0.089583  0  0.105326  0.122334  0  1.020697  0
H  H21  1  0.52137181  0.15980970  0.03411746  1  0.145113  0  0.10529  0.127166  0  1.072907  0
H  H22  1  0.38651738  0.73685100  0.09869414  1  0.099974  0  0.10279  0.121053  0  1.040847  0
H  H23  1  0.97494994  0.24325457  0.19602614  1  0.033946  0  0.096391  0.144834  0  0.99187  0
H  H24  1  0.89630123  0.22406312  0.30182282  1  0.009  0  0.087803  0.127407  0  1.025739  0
H  H25  1  0.87029475  0.32304302  0.21613591  1  0.048319  0  0.091557  0.138933  0  1.012846  0
H  H26  1  0.91934485  0.74559586  0.80429433  1  0.075349  0  0.090721  0.130659  0  1.020391  0
H  H27  1  0.01483195  0.78693290  0.76022870  1  0.070484  0  0.096231  0.145299  0  0.977712  0
H  H28  1  0.74872441  0.25160165  0.05412137  1  0.066422  0  0.104962  0.106548  0  0.98844  0
H  H29  1  0.92345571  0.84120765  0.71198478  1  0.039839  0  0.087043  0.125651  0  1.043383  0
H  H30  1  0.20582801  0.13345449  0.11457937  1  0.069297  0  0.092312  0.139102  0  1.024274  0
H  H31  1  0.11760726  0.23199819  0.09537894  1  0.060691  0  0.088194  0.128908  0  1.034505  0
H  H32  1  0.18641554  0.18054232  0.00804898  1  0.052139  0  0.096915  0.148926  0  0.976945  0
H  H33  1  0.77638466  0.71221137  0.90384733  1  0.049157  0  0.0922  0.134134  0  1.008264  0
H  H34  1  0.67867010  0.79800783  0.93068043  1  0.048263  0  0.084522  0.115134  0  1.047927  0
H  H35  1  0.75152426  0.74559430  0.00107789  1  0.057121  0  0.095467  0.144369  0  0.983263  0
H  H36  1  0.29851380  0.06425918  0.20457525  1  0.048748  0  0.086425  0.119011  0  1.05867  0
H  H37  1  0.24972108  0.97470035  0.26844202  1  0.068427  0  0.099373  0.152396  0  0.970217  0
H  H38  1  0.20204703  0.07640820  0.29727380  1  0.073023  0  0.092355  0.137166  0  1.012944  0
H  H39  1  0.14946037  0.63120439  0.11548271  1  0.050246  0  0.105297  0.108967  0  0.991039  0
H  H40  1  0.87234235  0.95498762  0.76406538  1  0.047454  0  0.092024  0.136091  0  1.052242  0
H  H41  1  0.79294597  0.03013941  0.82486207  1  0.062755  0  0.099238  0.149902  0  0.969595  0
H  H42  1  0.78924249  0.91854635  0.86261524  1  0.053523  0  0.090753  0.137621  0  1.020781  0
H  H43  1  0.39611094  0.85179059  0.84188496  1  0.062308  0  0.106361  0.110741  0  0.987944  0
H  H44  1  0.67751313  0.12572477  0.23552657  1  0.082765  0  0.099774  0.100629  0  1.016508  0
H  H45  1  0.86539864  0.73524480  0.24457836  1  0.067518  0  0.105365  0.107688  0  0.987988  0
H  H46  1  0.15325734  0.30192368  0.68783516  1  0.038084  0  0.106872  0.109996  0  0.987395  0
H  H47  1  0.30254781  0.85685572  0.75316071  1  0.059696  0  0.106955  0.109607  0  0.987553  0
C  C48  1  0.95798019  0.46459690  0.29368025  1  0.013552  0  0.002477  0.080411  0  4.014757  0
C  C49  1  0.46681740  0.01070671  0.34084258  1  0.023315  0  0.006834  0.08682  0  3.997007  0
C  C50  1  0.45711597  0.96002233  0.58265202  1  -0.019577  0  0.003112  0.002488  0  3.967012  0
C  C51  1  0.41017222  0.53391629  0.07859455  1  -0.024018  0  0.00224  0.00188  0  3.962369  0
C  C52  1  0.49396615  0.36059477  0.05917879  1  0.039946  0  0.002499  0.003326  0  3.979391  0
C  C53  1  0.92331635  0.27578458  0.24671603  1  0.030553  0  -0.249911  -0.418297  0  3.97171  0
C  C54  1  0.96309444  0.77664417  0.74206561  1  -0.046607  0  -0.248728  -0.411867  0  3.974148  0
C  C55  1  0.18612600  0.19640115  0.06632647  1  -0.03684  0  -0.248537  -0.417078  0  3.964506  0
C  C56  1  0.72149993  0.73445644  0.95905048  1  -0.040914  0  -0.249038  -0.408755  0  3.972768  0
C  C57  1  0.26584089  0.03062891  0.27218671  1  -0.037825  0  -0.248861  -0.413735  0  3.961647  0
C  C58  1  0.80235284  0.97258016  0.80270970  1  -0.023067  0  -0.253254  -0.429133  0  3.970903  0
C  C59  1  0.65369679  0.51654245  0.04329260  1  -0.012846  0  0.004688  0.081475  0  3.996877  0
C  C60  1  0.26032926  0.39173923  0.04955302  1  0.057753  0  0.007797  0.087942  0  3.967027  0
C  C61  1  0.00399575  0.46856112  0.41606652  1  -0.001336  0  -0.000276  0.000159  0  3.994776  0
C  C62  1  0.01734889  0.56835510  0.51475448  1  -0.01991  0  0.000961  0.002863  0  3.997447  0
C  C63  1  0.40136845  0.39796483  0.06206334  1  -0.077145  0  0.00039  0.001115  0  3.991082  0
C  C64  1  0.50446592  0.49890838  0.06786979  1  0.005466  0  0.000276  0.001832  0  3.999431  0
C  C65  1  0.48324983  0.99197968  0.48784236  1  0.017007  0  0.000704  0.00513  0  4.009845  0
C  C66  1  0.58285747  0.99748647  0.59172868  1  -0.000781  0  0.000139  0.001725  0  3.993008  0
C  C67  1  0.13466198  0.39252937  0.99676639  1  1.453824  0  0.212813  0.595063  0  4.128344  0
C  C68  1  0.04373063  0.57299826  0.64893524  1  -0.04447  0  0.006213  0.083816  0  3.979188  0
C  C69  1  0.80960539  0.54220267  0.99115749  1  1.542829  0  0.221639  0.609503  0  4.09649  0
C  C70  1  0.46508429  0.97446766  0.20678234  1  1.474974  0  0.211494  0.595303  0  4.123782  0
C  C71  1  0.60940833  0.97054484  0.88698217  1  1.510022  0  0.216749  0.594392  0  4.126791  0
C  C72  1  0.00749427  0.17900226  0.39659315  1  1.510717  0  0.218529  0.603979  0  4.107518  0
C  C73  1  0.01580989  0.85255777  0.54439838  1  1.518969  0  0.21606  0.601378  0  4.108225  0
C  C74  1  0.85891293  0.03708730  0.60283498  1  1.499391  0  0.21715  0.602523  0  4.107219  0
C  C75  1  0.19397159  0.99105092  0.46924641  1  1.489121  0  0.220533  0.610554  0  4.110246  0
C  C76  1  0.53448171  0.78907011  0.05673637  1  1.519514  0  0.224358  0.613362  0  4.104894  0
C  C77  1  0.38498317  0.11911061  0.03143480  1  1.485283  0  0.205373  0.578085  0  4.11674  0
C  C78  1  0.01928591  0.58119957  0.80573522  1  1.500275  0  0.22139  0.609684  0  4.113973  0
C  C79  1  0.39539375  0.26155186  0.04239456  1  0.025864  0  0.005555  0.085768  0  3.971327  0
C  C80  1  0.95053645  0.45885300  0.14811880  1  1.489475  0  0.214654  0.593435  0  4.119779  0
C  C81  1  0.99444347  0.41879200  0.36878124  1  -0.031679  0  0.000435  -0.014884  0  3.933801  0
C  C82  1  0.01961694  0.61801531  0.56644408  1  0.030535  0  -0.000917  -0.017722  0  3.936259  0
C  C83  1  0.35199886  0.34988142  0.05242981  1  -0.048898  0  -0.00054  -0.019567  0  3.923729  0
C  C84  1  0.55797733  0.55241921  0.05936695  1  -0.011038  0  -0.00075  -0.017612  0  3.934107  0
C  C85  1  0.43266095  0.99085606  0.43631716  1  -0.012866  0  -0.001952  -0.018777  0  3.95527  0
C  C86  1  0.63287955  0.99984148  0.64360708  1  -0.058658  0  -0.000651  -0.016778  0  3.938025  0
C  C87  1  0.95343377  0.41461691  0.24318184  1  -0.06211  0  -0.014943  -0.152418  0  3.84582  0
C  C88  1  0.02414809  0.62546112  0.70893294  1  -0.03444  0  -0.017128  -0.160434  0  3.843838  0
C  C89  1  0.34227191  0.21163926  0.03993809  1  -0.049192  0  -0.016998  -0.158001  0  3.849901  0
C  C90  1  0.51571934  0.64196604  0.06541359  1  -0.015417  0  0.005359  0.085112  0  3.996523  0
C  C91  1  0.57265023  0.69734104  0.04459539  1  -0.073435  0  -0.016793  -0.157507  0  3.844595  0
C  C92  1  0.29098120  0.98668336  0.42653268  1  0.010701  0  -0.017843  -0.160572  0  3.871518  0
C  C93  1  0.76686351  0.02410020  0.65204100  1  0.025346  0  -0.01653  -0.158276  0  3.839597  0
C  C94  1  0.00393704  0.76105294  0.58654047  1  -0.015955  0  -0.013949  -0.148728  0  3.834671  0
C  C95  1  0.99749043  0.27647691  0.35539688  1  -0.034983  0  -0.020372  -0.165111  0  3.835854  0
C  C96  1  0.65411336  0.97569549  0.79007453  1  -0.048606  0  -0.013185  -0.153546  0  3.839179  0
C  C97  1  0.41838328  0.99891510  0.29263253  1  0.037245  0  -0.014507  -0.150527  0  3.846322  0
C  C98  1  0.70861154  0.57580592  0.01543588  1  -0.010688  0  -0.014238  -0.148953  0  3.833951  0
C  C99  1  0.21441664  0.34410383  0.03292317  1  0.001018  0  -0.015158  -0.154328  0  3.828993  0
C  C100  1  0.96230067  0.75472702  0.45982437  1  0.027982  0  -0.085731  -0.171904  0  3.910564  0
C  C101  1  0.34857809  0.96891703  0.48056457  1  -0.032682  0  0.005262  0.083006  0  4.011772  0
C  C102  1  0.06850994  0.28280290  0.46314072  1  -0.011247  0  -0.081209  -0.161341  0  3.883348  0
C  C103  1  0.68930161  0.42406201  0.05155211  1  -0.006376  0  -0.086675  -0.171597  0  3.911312  0
C  C104  1  0.21836639  0.47552383  0.06936296  1  -0.048116  0  -0.08173  -0.159583  0  3.88112  0
C  C105  1  0.53529518  0.92449812  0.77813504  1  -0.031271  0  -0.081899  -0.159804  0  3.895471  0
C  C106  1  0.54352491  0.04472994  0.29951226  1  0.009906  0  -0.081724  -0.166152  0  3.898658  0
C  C107  1  0.92431935  0.55825138  0.27388221  1  0.011559  0  -0.082747  -0.161287  0  3.922393  0
C  C108  1  0.08132524  0.47961891  0.66734453  1  -0.006682  0  -0.079542  -0.159752  0  3.888168  0
C  C109  1  0.32636278  0.93255052  0.57476202  1  -0.042962  0  -0.080432  -0.163203  0  3.904871  0
C  C110  1  0.72613462  0.07697082  0.50636321  1  0.034383  0  -0.082284  -0.161715  0  3.893205  0
C  C111  1  0.48758384  0.22622224  0.04142503  1  -0.056628  0  -0.090103  -0.178275  0  3.906829  0
C  C112  1  0.70924776  0.03547023  0.59998505  1  0.019858  0  0.005376  0.084131  0  3.984309  0
C  C113  1  0.41978523  0.67099002  0.08870359  1  0.020112  0  -0.08662  -0.17893  0  3.89669  0
C  C114  1  0.96097061  0.32212355  0.28116201  1  0.094062  0  0.019418  0.175446  0  3.869516  0
C  C115  1  0.00146105  0.71899522  0.67833788  1  0.056641  0  0.020202  0.177838  0  3.872737  0
C  C116  1  0.24992079  0.25119873  0.04360788  1  0.052809  0  0.02411  0.183599  0  3.865139  0
C  C117  1  0.66744231  0.66704626  0.01015905  1  0.045834  0  0.017583  0.17289  0  3.86881  0
C  C118  1  0.32556689  0.00212759  0.33265059  1  -0.014313  0  0.021781  0.183933  0  3.864362  0
C  C119  1  0.74004171  0.99313256  0.74687743  1  0.001622  0  0.021172  0.177196  0  3.867108  0
C  C120  1  0.08547337  0.43038870  0.61371663  1  0.044058  0  -0.004428  0.081144  0  4.04381  0
C  C121  1  0.93178105  0.60738732  0.32027716  1  -0.027344  0  -0.008376  0.077076  0  4.072513  0
C  C122  1  0.36746079  0.62045634  0.09302492  1  -0.041559  0  -0.005427  0.08496  0  4.056882  0
C  C123  1  0.99702598  0.71285487  0.53555173  1  -0.059032  0  0.007504  0.087705  0  3.996075  0
C  C124  1  0.53631003  0.27238992  0.05035750  1  -0.077399  0  -0.00694  0.082862  0  4.073554  0
C  C125  1  0.67921205  0.07344356  0.45457944  1  -0.039457  0  -0.006032  0.078996  0  4.05629  0
C  C126  1  0.37998260  0.92516008  0.62566503  1  0.050852  0  -0.005302  0.080583  0  4.052487  0
C  C127  1  0.07830840  0.33063719  0.51009828  1  -0.029849  0  -0.005435  0.081028  0  4.046563  0
C  C128  1  0.95131051  0.70691122  0.41423190  1  -0.015941  0  -0.005895  0.082635  0  4.062892  0
C  C129  1  0.58711362  0.05670401  0.34937337  1  -0.043698  0  -0.00527  0.082946  0  4.053948  0
C  C130  1  0.48583789  0.92192299  0.72845290  1  0.024527  0  -0.006993  0.078993  0  4.062814  0
C  C131  1  0.26501796  0.52118541  0.08291845  1  -0.038546  0  -0.004834  0.08081  0  4.049714  0
C  C132  1  0.63819799  0.37167261  0.05807469  1  0.022084  0  -0.005252  0.082639  0  4.064553  0
C  C133  1  0.12304085  0.33564920  0.63207531  1  -0.019664  0  -0.084239  -0.126846  0  3.992901  0
C  C134  1  0.02180545  0.32380125  0.39582395  1  0.016056  0  0.00736  0.086914  0  3.972767  0
C  C135  1  0.89848525  0.70244319  0.29830553  1  -0.026675  0  -0.089394  -0.131396  0  4.014561  0
C  C136  1  0.27100045  0.65255143  0.10918011  1  -0.058946  0  -0.087874  -0.132548  0  3.998003  0
C  C137  1  0.62929044  0.23343910  0.05055164  1  -0.025419  0  -0.084185  -0.125448  0  4.002121  0
C  C138  1  0.70184110  0.10886428  0.35862832  1  -0.028226  0  -0.087543  -0.129136  0  3.995463  0
C  C139  1  0.36003506  0.88520884  0.72086019  1  -0.010737  0  -0.087301  -0.130211  0  4.002391  0
C  C140  1  0.12049032  0.28832792  0.58218300  1  -0.039502  0  -0.085251  -0.126813  0  3.98839  0
C  C141  1  0.90872158  0.75021904  0.34262128  1  -0.035437  0  -0.086819  -0.127588  0  4.009879  0
C  C142  1  0.65897469  0.09954898  0.30827598  1  -0.057263  0  -0.086981  -0.124857  0  3.996972  0
C  C143  1  0.41143249  0.88247553  0.76976997  1  -0.094013  0  -0.082303  -0.120412  0  3.991007  0
C  C144  1  0.22226869  0.60537683  0.10418850  1  -0.036698  0  -0.084542  -0.121724  0  3.990777  0
C  C145  1  0.60618894  0.96690781  0.73910532  1  0.007453  0  0.005357  0.084211  0  3.982966  0
C  C146  1  0.67785314  0.28063064  0.05544903  1  -0.086694  0  -0.088197  -0.131353  0  4.008212  0
C  C147  1  0.04320498  0.42508712  0.48878140  1  0.016404  0  0.002816  0.000682  0  3.964722  0
C  C148  1  0.98199365  0.61205437  0.43937782  1  -0.042127  0  0.002068  0.00173  0  3.969518  0
C  C149  1  0.35956779  0.48463240  0.07442229  1  0.080506  0  0.000949  -0.000551  0  3.969593  0
C  C150  1  0.54481121  0.41014637  0.06197188  1  0.011989  0  0.002048  0.001545  0  3.975249  0
C  C151  1  0.55996403  0.02589473  0.44523149  1  -0.009251  0  0.001519  -0.003481  0  3.972813  0
C  C152  1  0.50799370  0.96060595  0.63370528  1  -0.003778  0  0.002198  7.1e-05  0  3.9756  0
C  C153  1  0.04834444  0.47435930  0.53869802  1  -0.030151  0  0.001584  0.002156  0  3.959306  0
C  C154  1  0.97384122  0.56272938  0.39177463  1  -0.020712  0  0.003239  0.00257  0  3.969962  0
C  C155  1  0.60732639  0.03138901  0.49697154  1  -0.012721  0  0.003483  0.005824  0  3.970772  0
O  O156  1  0.11081495  0.47690156  0.97816300  1  -1.128039  0  -0.315129  -0.566453  0  2.381384  0
O  O157  1  0.46811573  0.08293080  0.02585838  1  -1.171645  0  -0.308949  -0.560312  0  2.35489  0
O  O158  1  0.00848274  0.50318237  0.83775873  1  -1.164698  0  -0.310434  -0.561734  0  2.370091  0
O  O159  1  0.96607478  0.53646482  0.11217755  1  -1.13299  0  -0.318115  -0.539477  0  2.316152  0
O  O160  1  0.02331166  0.62442535  0.85349270  1  -1.131283  0  -0.312799  -0.525128  0  2.30743  0
O  O161  1  0.94106375  0.41761985  0.10320000  1  -1.177015  0  -0.30833  -0.561427  0  2.372236  0
O  O162  1  0.58285889  0.81841533  0.07732762  1  -1.156942  0  -0.309323  -0.548745  0  2.340536  0
O  O163  1  0.33713616  0.07347500  0.02966412  1  -1.122497  0  -0.319398  -0.524733  0  2.247615  0
O  O164  1  0.90383276  0.04966977  0.64399885  1  -1.126179  0  -0.313621  -0.511633  0  2.287321  0
O  O165  1  0.15116118  0.97675957  0.42915407  1  -1.170487  0  -0.305994  -0.555246  0  2.387603  0
O  O166  1  0.01639441  0.12936337  0.34799440  1  -1.13013  0  -0.316664  -0.532668  0  2.27976  0
O  O167  1  0.84798475  0.46770559  0.97029044  1  -1.137823  0  -0.313267  -0.527069  0  2.301049  0
O  O168  1  0.03133072  0.89003643  0.58906608  1  -1.165115  0  -0.311149  -0.563198  0  2.332978  0
O  O169  1  0.42577939  0.94557470  0.17505273  1  -1.163093  0  -0.310369  -0.561801  0  2.315425  0
O  O170  1  0.65295073  0.97072793  0.93753446  1  -1.132377  0  -0.317745  -0.527647  0  2.31759  0
O  O171  1  0.09522087  0.34936773  0.97942241  1  -1.137243  0  -0.319445  -0.53289  0  2.288572  0
O  O172  1  0.85369572  0.58870159  0.99401801  1  -1.167536  0  -0.30725  -0.56087  0  2.370347  0
O  O173  1  0.54923929  0.97576378  0.16940945  1  -1.13003  0  -0.321749  -0.535021  0  2.292878  0
O  O174  1  0.52756468  0.96875685  0.91761628  1  -1.177607  0  -0.306302  -0.557928  0  2.404558  0
O  O175  1  0.00670752  0.14724236  0.47852815  1  -1.176447  0  -0.30651  -0.562908  0  2.36573  0
O  O176  1  0.01542798  0.88837398  0.46107290  1  -1.137231  0  -0.319131  -0.528452  0  2.313777  0
O  O177  1  0.89217058  0.03143889  0.52228437  1  -1.175621  0  -0.311364  -0.577114  0  2.386476  0
O  O178  1  0.15584473  0.01107510  0.54551527  1  -1.129535  0  -0.31836  -0.537028  0  2.271713  0
O  O179  1  0.45531529  0.83398069  0.04682532  1  -1.144526  0  -0.311301  -0.526551  0  2.31932  0
