# generated using pymatgen
data_SrCoH10C14(NO5)2
_symmetry_space_group_name_H-M   'P 1'
_cell_length_a   5.21063398
_cell_length_b   7.76652270
_cell_length_c   10.37459410
_cell_angle_alpha   80.75782728
_cell_angle_beta   82.92290058
_cell_angle_gamma   77.22136803
_symmetry_Int_Tables_number   1
_chemical_formula_structural   SrCoH10C14(NO5)2
_chemical_formula_sum   'Sr1 Co1 H10 C14 N2 O10'
_cell_volume   402.45018774
_cell_formula_units_Z   1
loop_
 _symmetry_equiv_pos_site_id
 _symmetry_equiv_pos_as_xyz
  1  'x, y, z'
loop_
 _atom_site_type_symbol
 _atom_site_label
 _atom_site_symmetry_multiplicity
 _atom_site_fract_x
 _atom_site_fract_y
 _atom_site_fract_z
 _atom_site_occupancy
 _atom_site_hle17_ddec_charge
 _atom_site_hle17_ddec_spin_density
 _atom_site_hle17_ddec_sum_bond_order
 _atom_site_hle17_magmom
 _atom_site_hse06_10hf_ddec_charge
 _atom_site_hse06_10hf_ddec_spin_density
 _atom_site_hse06_10hf_ddec_sum_bond_order
 _atom_site_hse06_10hf_magmom
 _atom_site_hse06_ddec_charge
 _atom_site_hse06_ddec_spin_density
 _atom_site_hse06_ddec_sum_bond_order
 _atom_site_hse06_magmom
 _atom_site_pbe_cm5_charge
 _atom_site_pbe_ddec_charge
 _atom_site_pbe_ddec_spin_density
 _atom_site_pbe_ddec_sum_bond_order
 _atom_site_pbe_magmom
Sr  Sr0  1  0.50000344  0.99999912  0.49999983  1  1.647786  -0.000185  1.095559  0.0  1.507594  -0.000195  1.474482  0.0  1.547508  -0.000112  1.424738  0.0  0.9876  1.478097  -0.000403  1.510002  0.0
Co  Co1  1  0.00000282  0.99999903  0.99999882  1  0.765992  1.189439  2.451439  1.073  0.755417  1.053621  2.875504  0.982  0.806422  1.030646  2.812225  0.968  0.667066  0.727044  1.061697  2.913066  0.981
H  H2  1  0.29471456  0.83146274  0.79965976  1  0.409961  -0.000334  0.903445  0.0  0.38168  6.1e-05  0.965356  0.0  0.391596  -5.2e-05  0.951029  0.0  0.292015  0.374911  0.000175  0.975086  0.0
H  H3  1  0.70528472  0.16853940  0.20033918  1  0.409972  -0.000335  0.903437  0.0  0.381685  6.1e-05  0.965359  0.0  0.391602  -5.3e-05  0.951029  0.0  0.292008  0.374917  0.000175  0.975089  0.0
H  H4  1  0.49169874  0.90645036  0.87202660  1  0.406499  -0.000178  0.905063  0.0  0.377604  0.000151  0.970187  0.0  0.388453  0.0  0.954493  0.0  0.293738  0.37013  0.000312  0.980945  0.0
H  H5  1  0.50829820  0.09355313  0.12797327  1  0.406502  -0.000178  0.905062  0.0  0.377595  0.000151  0.970203  0.0  0.388445  0.0  0.954506  0.0  0.293733  0.370123  0.000312  0.980959  0.0
H  H6  1  0.77753420  0.45393183  0.62268709  1  0.13134  -0.000739  0.925847  -0.001  0.138473  -0.000111  0.987063  0.0  0.142528  -0.000113  0.984371  0.0  0.126397  0.135634  -0.000106  0.988993  0.0
H  H7  1  0.22246744  0.54606894  0.37730996  1  0.131318  -0.000741  0.925814  -0.001  0.138471  -0.000112  0.98702  0.0  0.142527  -0.000113  0.984327  0.0  0.126384  0.135634  -0.000106  0.988949  0.0
H  H8  1  0.33458106  0.56925519  0.85569801  1  0.119094  -0.000258  0.967816  -0.001  0.129695  0.000177  1.025745  0.0  0.133435  8.9e-05  1.024048  0.0  0.114754  0.126844  0.000245  1.027162  0.0
H  H9  1  0.66541885  0.43074429  0.14430603  1  0.119081  -0.000257  0.967848  -0.001  0.129695  0.000177  1.025756  0.0  0.133434  8.9e-05  1.024063  0.0  0.114764  0.126847  0.000245  1.027173  0.0
H  H10  1  0.30890424  0.28733006  0.00103852  1  0.097741  9.8e-05  0.964932  0.001  0.105023  -9.7e-05  1.028788  0.0  0.108499  -8.8e-05  1.025269  0.0  0.122997  0.10224  -6.2e-05  1.031652  0.0
H  H11  1  0.69109614  0.71266807  0.99896180  1  0.097692  0.0001  0.964932  0.001  0.104993  -9.7e-05  1.028787  0.0  0.108469  -8.8e-05  1.025269  0.0  0.122991  0.102209  -6.2e-05  1.031649  0.0
C  C12  1  0.05388255  0.71254445  0.63855124  1  0.696309  -0.001434  3.887449  0.001  0.643402  -0.000886  4.185967  0.0  0.678392  -0.000292  4.172922  0.0  0.235622  0.619192  -0.001596  4.195111  0.0
C  C13  1  0.94611516  0.28745638  0.36144795  1  0.696193  -0.001436  3.887382  0.001  0.643248  -0.000887  4.185975  0.0  0.678238  -0.000291  4.17293  0.0  0.235517  0.619039  -0.001596  4.19512  0.0
C  C14  1  0.05571197  0.53718654  0.72673053  1  -0.017819  -0.031677  3.675398  -0.02  0.001347  -0.011445  3.912707  -0.007  0.0026  -0.007924  3.926486  -0.005  0.008866  1.8e-05  -0.013515  3.904132  -0.008
C  C15  1  0.94429000  0.46281291  0.27326858  1  -0.017802  -0.031671  3.67536  -0.02  0.001373  -0.011442  3.912677  -0.007  0.002627  -0.007927  3.926454  -0.005  0.008907  4.3e-05  -0.013517  3.90411  -0.008
C  C16  1  0.89991000  0.42119446  0.70438037  1  -0.075576  0.0084  3.65644  0.012  -0.110399  0.001261  3.905514  0.003  -0.111815  0.001643  3.920263  0.003  -0.049884  -0.109694  0.000757  3.89626  0.002
C  C17  1  0.10009159  0.57880632  0.29561860  1  -0.075525  0.008401  3.656379  0.012  -0.110368  0.00126  3.905452  0.003  -0.111784  0.001644  3.920201  0.003  -0.049883  -0.109658  0.000757  3.896199  0.002
C  C18  1  0.90218663  0.26239550  0.78797656  1  0.0697  -0.0269  3.718892  -0.017  0.075449  -0.009794  3.966231  -0.006  0.078615  -0.007465  3.980434  -0.005  0.112114  0.072905  -0.010775  3.957958  -0.006
C  C19  1  0.09781106  0.73760533  0.21202359  1  0.069572  -0.026899  3.718828  -0.017  0.075354  -0.009792  3.96619  -0.006  0.078512  -0.007468  3.980394  -0.005  0.112105  0.072809  -0.010776  3.957921  -0.006
C  C20  1  0.20819586  0.48549468  0.83368890  1  -0.09723  0.006206  3.673549  0.01  -0.123245  0.000455  3.923724  0.002  -0.126669  0.00143  3.939795  0.002  -0.068589  -0.121354  -0.000547  3.914211  0.001
C  C21  1  0.79180178  0.51450615  0.16631318  1  -0.097265  0.006201  3.673495  0.01  -0.123258  0.000455  3.923667  0.002  -0.12668  0.001431  3.939737  0.002  -0.06861  -0.121367  -0.000547  3.914158  0.001
C  C22  1  0.19545366  0.32714343  0.91607484  1  0.124142  -0.026322  3.644438  -0.017  0.094021  -0.009335  3.906235  -0.005  0.102657  -0.007615  3.918868  -0.005  0.050361  0.087987  -0.009768  3.899385  -0.005
C  C23  1  0.80455452  0.67285461  0.08392312  1  0.124205  -0.026324  3.6443  -0.017  0.09403  -0.009335  3.906192  -0.005  0.10266  -0.007618  3.918821  -0.005  0.050356  0.087997  -0.00977  3.899343  -0.005
C  C24  1  0.74781778  0.12783451  0.77357536  1  0.631118  -0.01048  3.886096  -0.006  0.578626  -0.004606  4.191269  -0.002  0.616215  -0.002333  4.180557  -0.001  0.230747  0.551986  -0.006802  4.198976  -0.004
C  C25  1  0.25218019  0.87216499  0.22642879  1  0.631256  -0.010481  3.885853  -0.006  0.578705  -0.004606  4.19111  -0.002  0.616295  -0.002332  4.1804  -0.001  0.230758  0.552068  -0.006804  4.198822  -0.004
N  N26  1  0.04502368  0.21637833  0.89437648  1  -0.24938  -0.014265  3.365301  -0.008  -0.212212  -0.00973  3.649901  -0.006  -0.230095  -0.006811  3.66349  -0.004  -0.338432  -0.202308  -0.011147  3.641304  -0.008
N  N27  1  0.95497211  0.78362252  0.10562184  1  -0.249297  -0.014267  3.365168  -0.008  -0.212156  -0.009731  3.649831  -0.006  -0.230024  -0.00681  3.663404  -0.004  -0.338429  -0.202251  -0.011149  3.641234  -0.008
O  O28  1  0.22652748  0.80131137  0.65195293  1  -0.72075  -0.001761  1.993015  -0.001  -0.65613  -0.000624  2.231827  0.0  -0.681049  -0.00033  2.217312  0.0  -0.365648  -0.639311  -0.000791  2.24211  0.0
O  O29  1  0.77346471  0.19868820  0.34804961  1  -0.720662  -0.001759  1.992898  -0.001  -0.656029  -0.000623  2.231724  0.0  -0.680949  -0.00033  2.217211  0.0  -0.365558  -0.639208  -0.000791  2.242005  0.0
O  O30  1  0.34062596  0.84468071  0.88781590  1  -0.821196  0.026661  1.95803  0.047  -0.792121  0.025196  2.156562  0.042  -0.818009  0.019972  2.126077  0.034  -0.574091  -0.771729  0.030824  2.175788  0.051
O  O31  1  0.65937370  0.15532009  0.11218318  1  -0.821224  0.026662  1.958007  0.047  -0.792146  0.025196  2.156562  0.042  -0.818033  0.019972  2.12607  0.034  -0.574077  -0.771756  0.030823  2.175789  0.051
O  O32  1  0.88182241  0.75990718  0.55728748  1  -0.698209  -0.003172  1.958602  -0.003  -0.644083  -0.001443  2.208466  -0.001  -0.668717  -0.000822  2.195303  -0.001  -0.376186  -0.626798  -0.001892  2.21751  -0.002
O  O33  1  0.11817024  0.24009770  0.44271439  1  -0.698185  -0.003173  1.958619  -0.003  -0.644034  -0.001444  2.208478  -0.001  -0.668676  -0.000823  2.195335  -0.001  -0.376159  -0.626747  -0.001892  2.21752  -0.002
O  O34  1  0.76861354  0.99424048  0.86814550  1  -0.565708  -0.007237  2.139795  -0.004  -0.52221  -0.001074  2.402014  0.0  -0.560331  -0.00163  2.392942  -0.001  -0.28978  -0.496466  0.00046  2.407941  0.002
O  O35  1  0.23138455  0.00575902  0.13185383  1  -0.565765  -0.007237  2.139738  -0.004  -0.522198  -0.001074  2.401929  0.0  -0.560323  -0.001631  2.392855  -0.001  -0.28975  -0.496458  0.000461  2.40786  0.002
O  O36  1  0.60905309  0.14392081  0.68054628  1  -0.646927  -0.011202  1.961311  -0.009  -0.596427  -0.004871  2.20343  -0.004  -0.62327  -0.002924  2.193646  -0.002  -0.352351  -0.576766  -0.006413  2.209683  -0.005
O  O37  1  0.39095162  0.85608258  0.31945317  1  -0.646954  -0.011205  1.961206  -0.009  -0.596463  -0.004871  2.203396  -0.004  -0.623304  -0.002923  2.193614  -0.002  -0.352373  -0.5768  -0.006414  2.209651  -0.005
