# generated using pymatgen
data_ZnH10C14NO4
_symmetry_space_group_name_H-M   'P 1'
_cell_length_a   10.99884265
_cell_length_b   10.99974876
_cell_length_c   13.91595686
_cell_angle_alpha   95.06894682
_cell_angle_beta   99.26657317
_cell_angle_gamma   101.10978998
_symmetry_Int_Tables_number   1
_chemical_formula_structural   ZnH10C14NO4
_chemical_formula_sum   'Zn4 H40 C56 N4 O16'
_cell_volume   1618.06818413
_cell_formula_units_Z   4
loop_
 _symmetry_equiv_pos_site_id
 _symmetry_equiv_pos_as_xyz
  1  'x, y, z'
loop_
 _atom_site_type_symbol
 _atom_site_label
 _atom_site_symmetry_multiplicity
 _atom_site_fract_x
 _atom_site_fract_y
 _atom_site_fract_z
 _atom_site_occupancy
 _atom_site_pbe_bader_charge
 _atom_site_pbe_bader_spin_density
 _atom_site_pbe_cm5_charge
 _atom_site_pbe_ddec_charge
 _atom_site_pbe_ddec_spin_density
 _atom_site_pbe_ddec_sum_bond_order
 _atom_site_pbe_magmom
Zn  Zn0  1  0.65799462  0.27660340  0.11479755  1  1.299115  0  0.67621  0.835247  0  2.394352  0
Zn  Zn1  1  0.34200823  0.72339775  0.88520207  1  1.299102  0  0.676217  0.835251  0  2.394317  0
Zn  Zn2  1  0.71634720  0.31645807  0.32790222  1  1.293571  0  0.672346  0.83494  0  2.398989  0
Zn  Zn3  1  0.28365158  0.68354116  0.67210034  1  1.293502  0  0.672323  0.834932  0  2.398971  0
H  H4  1  0.73507125  0.94435779  0.37211424  1  0.104411  0  0.10299  0.10953  0  1.001203  0
H  H5  1  0.26492753  0.05564145  0.62788473  1  0.104483  0  0.103021  0.109585  0  1.00119  0
H  H6  1  0.74686927  0.71834126  0.37833448  1  0.090466  0  0.10278  0.108069  0  1.002545  0
H  H7  1  0.25313043  0.28165799  0.62166317  1  0.090426  0  0.102749  0.108025  0  1.002552  0
H  H8  1  0.63669758  0.64932395  0.06465188  1  0.066899  0  0.10459  0.109159  0  1.016295  0
H  H9  1  0.36330230  0.35067623  0.93534514  1  0.066948  0  0.104547  0.109093  0  1.016383  0
H  H10  1  0.62775921  0.87287190  0.05828634  1  0.091076  0  0.104744  0.112561  0  1.016133  0
H  H11  1  0.37224048  0.12712735  0.94171130  1  0.091123  0  0.104765  0.112592  0  1.016116  0
H  H12  1  0.13228342  0.35181337  0.38744024  1  0.093912  0  0.103475  0.107834  0  1.004855  0
H  H13  1  0.86771647  0.64818681  0.61256037  1  0.093953  0  0.103444  0.10779  0  1.004789  0
H  H14  1  0.35446402  0.33986008  0.37370166  1  0.098517  0  0.102703  0.106582  0  1.012677  0
H  H15  1  0.64553587  0.66014010  0.62629895  1  0.098556  0  0.102714  0.106604  0  1.01266  0
H  H16  1  0.24302686  0.24677950  0.06153821  1  0.104004  0  0.104125  0.109333  0  1.017607  0
H  H17  1  0.75697155  0.75322252  0.93846378  1  0.103967  0  0.104131  0.10937  0  1.01757  0
H  H18  1  0.02160500  0.26479633  0.07508470  1  0.075248  0  0.10661  0.116109  0  0.993901  0
H  H19  1  0.97839470  0.73520292  0.92491726  1  0.07523  0  0.106609  0.116083  0  0.993878  0
H  H20  1  0.63354830  0.08201326  0.94434092  1  0.127678  0  0.125295  0.108795  0  0.987552  0
H  H21  1  0.36645177  0.91798785  0.05565834  1  0.127655  0  0.125301  0.108786  0  0.987508  0
H  H22  1  0.72609975  0.47961623  0.80867874  1  0.106995  0  0.104927  0.112416  0  1.050635  0
H  H23  1  0.27389922  0.52038394  0.19131960  1  0.107002  0  0.104937  0.11245  0  1.050611  0
H  H24  1  0.69903499  0.46780291  0.98388844  1  0.123805  0  0.122362  0.100649  0  1.009701  0
H  H25  1  0.30096360  0.53219540  0.01610900  1  0.12378  0  0.122359  0.100629  0  1.009638  0
H  H26  1  0.50404574  0.22956066  0.62050320  1  0.114863  0  0.109483  0.118861  0  1.020291  0
H  H27  1  0.49595230  0.77043950  0.37949789  1  0.114786  0  0.109503  0.118879  0  1.020282  0
H  H28  1  0.52089111  0.25280822  0.44393176  1  0.121143  0  0.120314  0.098434  0  1.018678  0
H  H29  1  0.47910878  0.74719196  0.55606886  1  0.121145  0  0.120308  0.098414  0  1.018699  0
H  H30  1  0.90838854  0.36496016  0.51501415  1  0.110004  0  0.125053  0.105851  0  0.979208  0
H  H31  1  0.09161042  0.63504001  0.48498491  1  0.110007  0  0.125046  0.105848  0  0.97919  0
H  H32  1  0.55748062  0.01530723  0.70266452  1  0.06279  0  0.097868  0.143153  0  0.996908  0
H  H33  1  0.44251649  0.98469292  0.29733574  1  0.062816  0  0.097862  0.143158  0  0.996937  0
H  H34  1  0.65793672  0.96591646  0.79713734  1  0.05026  0  0.096204  0.13937  0  1.012182  0
H  H35  1  0.34206039  0.03408370  0.20286220  1  0.050345  0  0.096201  0.139366  0  1.01218  0
H  H36  1  0.72171511  0.04280052  0.70323871  1  0.050566  0  0.096043  0.134622  0  0.992073  0
H  H37  1  0.27828182  0.95719870  0.29676145  1  0.050538  0  0.096026  0.134604  0  0.992082  0
H  H38  1  0.93878098  0.40286199  0.78252754  1  0.051858  0  0.09546  0.137725  0  1.005501  0
H  H39  1  0.06121947  0.59714100  0.21747334  1  0.05187  0  0.095456  0.137755  0  1.005493  0
H  H40  1  0.02059335  0.40926779  0.68210850  1  0.077876  0  0.097703  0.147748  0  1.010038  0
H  H41  1  0.97940673  0.59073332  0.31789148  1  0.077899  0  0.097724  0.147786  0  1.010009  0
H  H42  1  0.97566108  0.26574094  0.72917978  1  0.069556  0  0.098876  0.14193  0  0.979257  0
H  H43  1  0.02433918  0.73426111  0.27082029  1  0.069533  0  0.098891  0.141942  0  0.979228  0
C  C44  1  0.67347115  0.05633852  0.21202954  1  1.550872  0  0.211811  0.586241  0  4.183897  0
C  C45  1  0.32653243  0.94366170  0.78797082  1  1.550595  0  0.211914  0.586401  0  4.183694  0
C  C46  1  0.68056093  0.92193234  0.21517016  1  0.011786  0  -0.017318  -0.030753  0  3.9679  0
C  C47  1  0.31943987  0.07806785  0.78482626  1  0.01199  0  -0.017457  -0.030995  0  3.967968  0
C  C48  1  0.71407252  0.87839502  0.30546844  1  -0.142399  0  -0.089222  -0.106206  0  3.995994  0
C  C49  1  0.28592829  0.12160518  0.69452941  1  -0.142794  0  -0.089143  -0.106092  0  3.995882  0
C  C50  1  0.72078790  0.75373618  0.30888011  1  -0.043744  0  -0.090373  -0.108266  0  4.001356  0
C  C51  1  0.27921290  0.24626401  0.69111774  1  -0.043422  0  -0.090323  -0.108198  0  4.001458  0
C  C52  1  0.69365542  0.67076187  0.22201168  1  -0.040547  0  -0.016325  -0.029462  0  3.968472  0
C  C53  1  0.30634648  0.32923461  0.77798605  1  -0.040717  0  -0.016415  -0.029601  0  3.968672  0
C  C54  1  0.65971533  0.71428797  0.13186327  1  0.003285  0  -0.085688  -0.097347  0  3.974101  0
C  C55  1  0.34028713  0.28571131  0.86813473  1  0.00333  0  -0.085564  -0.097129  0  3.974127  0
C  C56  1  0.65395191  0.83910057  0.12834484  1  -0.001596  0  -0.085082  -0.100077  0  3.978681  0
C  C57  1  0.34605055  0.16089871  0.87165172  1  -0.001602  0  -0.085113  -0.100141  0  3.978789  0
C  C58  1  0.69958077  0.53617029  0.22568462  1  1.565899  0  0.213707  0.587835  0  4.179121  0
C  C59  1  0.30042224  0.46382713  0.77431475  1  1.565713  0  0.213822  0.588012  0  4.178975  0
C  C60  1  0.93089782  0.31543563  0.23903177  1  1.566441  0  0.210864  0.584588  0  4.188781  0
C  C61  1  0.06910150  0.68456175  0.76097073  1  1.566467  0  0.210839  0.584521  0  4.188494  0
C  C62  1  0.06423033  0.30900201  0.23185070  1  -0.056179  0  -0.013515  -0.024824  0  3.958298  0
C  C63  1  0.93576753  0.69099721  0.76815174  1  -0.056004  0  -0.013553  -0.024852  0  3.958461  0
C  C64  1  0.15764607  0.32970750  0.31638322  1  -0.084574  0  -0.085671  -0.099821  0  3.99025  0
C  C65  1  0.84235382  0.67029268  0.68362027  1  -0.084725  0  -0.085614  -0.099786  0  3.99019  0
C  C66  1  0.28051112  0.32159462  0.30882498  1  -0.003456  0  -0.088661  -0.104866  0  3.988061  0
C  C67  1  0.71948858  0.67840462  0.69117626  1  -0.003478  0  -0.088692  -0.104903  0  3.988127  0
C  C68  1  0.31142682  0.29077590  0.21702868  1  -0.058249  0  -0.01857  -0.035509  0  3.97977  0
C  C69  1  0.68857584  0.70922431  0.78297229  1  -0.058279  0  -0.018507  -0.035351  0  3.979715  0
C  C70  1  0.21791411  0.27001907  0.13248820  1  -0.123601  0  -0.08511  -0.102809  0  3.980098  0
C  C71  1  0.78208504  0.72998203  0.86751238  1  -0.123041  0  -0.085171  -0.102998  0  3.980284  0
C  C72  1  0.09539669  0.27986850  0.13990941  1  0.0475  0  -0.083366  -0.095571  0  3.968883  0
C  C73  1  0.90460079  0.72012886  0.86009213  1  0.046902  0  -0.08331  -0.095412  0  3.968956  0
C  C74  1  0.44427793  0.28233977  0.20978661  1  1.574378  0  0.211338  0.577938  0  4.201716  0
C  C75  1  0.55572233  0.71766228  0.79021418  1  1.57441  0  0.211388  0.577839  0  4.201687  0
C  C76  1  0.65439220  0.16778260  0.91063712  1  0.460782  0  0.057433  0.040171  0  3.881169  0
C  C77  1  0.34560565  0.83221663  0.08935957  1  0.460879  0  0.057468  0.040281  0  3.881038  0
C  C78  1  0.66702528  0.16365814  0.81209750  1  0.053884  0  0.004472  0.090274  0  3.942041  0
C  C79  1  0.33297442  0.83634111  0.18790087  1  0.053832  0  0.004464  0.090207  0  3.941931  0
C  C80  1  0.69419622  0.27873175  0.77475652  1  -0.035775  0  0.01644  0.05486  0  3.939563  0
C  C81  1  0.30580274  0.72126842  0.22524182  1  -0.035715  0  0.016438  0.054907  0  3.939446  0
C  C82  1  0.70624300  0.38963973  0.83629183  1  -0.005214  0  -0.078845  -0.169287  0  3.965969  0
C  C83  1  0.29375504  0.61036043  0.16370639  1  -0.005209  0  -0.07886  -0.16937  0  3.965872  0
C  C84  1  0.69114193  0.38437383  0.93291476  1  0.449131  0  0.050502  0.095788  0  3.928584  0
C  C85  1  0.30885537  0.61562725  0.06708271  1  0.449105  0  0.050533  0.095888  0  3.928415  0
C  C86  1  0.70558983  0.28624437  0.67055408  1  -0.073907  0  0.018774  0.057877  0  3.938823  0
C  C87  1  0.29441025  0.71375674  0.32944734  1  -0.073874  0  0.018819  0.057844  0  3.938858  0
C  C88  1  0.59551300  0.25881475  0.59942902  1  0.012341  0  -0.079618  -0.166621  0  3.96315  0
C  C89  1  0.40448800  0.74118638  0.40057036  1  0.0124  0  -0.079664  -0.166622  0  3.963169  0
C  C90  1  0.60343108  0.27170138  0.50232036  1  0.453683  0  0.04711  0.086439  0  3.943615  0
C  C91  1  0.39656807  0.72829973  0.49768022  1  0.453662  0  0.047105  0.086441  0  3.94358  0
C  C92  1  0.82100900  0.33526235  0.54224328  1  0.511452  0  0.056212  0.036627  0  3.882396  0
C  C93  1  0.17899089  0.66473783  0.45775661  1  0.511495  0  0.056211  0.036627  0  3.882367  0
C  C94  1  0.82286739  0.32501668  0.64191925  1  -0.003188  0  0.004989  0.088224  0  3.944577  0
C  C95  1  0.17713195  0.67498536  0.35808070  1  -0.003255  0  0.004959  0.088226  0  3.944629  0
C  C96  1  0.65071025  0.04052294  0.75063274  1  -0.048676  0  -0.236397  -0.412683  0  3.959073  0
C  C97  1  0.34928964  0.95947724  0.24936787  1  -0.048749  0  -0.236369  -0.412653  0  3.959076  0
C  C98  1  0.94592332  0.35277897  0.71258260  1  -0.089209  0  -0.237545  -0.419277  0  3.955016  0
C  C99  1  0.05407768  0.64722215  0.28741678  1  -0.089222  0  -0.237565  -0.41936  0  3.955024  0
N  N100  1  0.66571893  0.27476756  0.96924910  1  -1.244709  0  -0.326873  -0.20908  0  3.573874  0
N  N101  1  0.33428003  0.72523262  0.03074995  1  -1.244753  0  -0.326948  -0.209198  0  3.573956  0
N  N102  1  0.71479682  0.31001930  0.47443223  1  -1.242418  0  -0.324938  -0.203888  0  3.565538  0
N  N103  1  0.28520177  0.68997900  0.52556737  1  -1.24236  0  -0.32488  -0.203835  0  3.56548  0
O  O104  1  0.69509938  0.12501600  0.29398996  1  -1.174827  0  -0.319391  -0.562055  0  2.347564  0
O  O105  1  0.30490162  0.87498513  0.70601086  1  -1.174757  0  -0.319474  -0.562187  0  2.347566  0
O  O106  1  0.64606561  0.09123652  0.12768038  1  -1.163905  0  -0.314166  -0.54105  0  2.328635  0
O  O107  1  0.35393984  0.90876838  0.87232198  1  -1.163933  0  -0.314176  -0.541047  0  2.328538  0
O  O108  1  0.67209695  0.46625312  0.14398146  1  -1.170171  0  -0.313978  -0.551819  0  2.368977  0
O  O109  1  0.32790772  0.53374339  0.85601949  1  -1.170155  0  -0.314043  -0.551888  0  2.368832  0
O  O110  1  0.73094072  0.50211524  0.30971030  1  -1.167816  0  -0.318931  -0.547588  0  2.318307  0
O  O111  1  0.26905841  0.49788121  0.69028851  1  -1.167543  0  -0.318954  -0.547673  0  2.31828  0
O  O112  1  0.90525412  0.33315475  0.32479900  1  -1.156325  0  -0.319665  -0.549037  0  2.306574  0
O  O113  1  0.09474982  0.66684268  0.67520480  1  -1.156254  0  -0.319652  -0.549016  0  2.306552  0
O  O114  1  0.85352947  0.30167145  0.15864892  1  -1.17297  0  -0.316949  -0.560099  0  2.344155  0
O  O115  1  0.14646910  0.69832219  0.84135466  1  -1.172991  0  -0.316932  -0.560062  0  2.343928  0
O  O116  1  0.52219980  0.29909915  0.29042879  1  -1.179303  0  -0.315253  -0.562496  0  2.386486  0
O  O117  1  0.47780176  0.70090478  0.70957301  1  -1.179252  0  -0.315287  -0.562447  0  2.386465  0
O  O118  1  0.46913501  0.25943781  0.12462569  1  -1.163297  0  -0.312372  -0.5353  0  2.305462  0
O  O119  1  0.53086748  0.74056612  0.87537911  1  -1.163353  0  -0.312422  -0.535308  0  2.305503  0
