# generated using pymatgen
data_CuH10C16(NO)4
_symmetry_space_group_name_H-M   'P 1'
_cell_length_a   10.04915934
_cell_length_b   11.03614050
_cell_length_c   15.45757043
_cell_angle_alpha   103.14931388
_cell_angle_beta   90.00011788
_cell_angle_gamma   90.00117770
_symmetry_Int_Tables_number   1
_chemical_formula_structural   CuH10C16(NO)4
_chemical_formula_sum   'Cu4 H40 C64 N16 O16'
_cell_volume   1669.35719869
_cell_formula_units_Z   4
loop_
 _symmetry_equiv_pos_site_id
 _symmetry_equiv_pos_as_xyz
  1  'x, y, z'
loop_
 _atom_site_type_symbol
 _atom_site_label
 _atom_site_symmetry_multiplicity
 _atom_site_fract_x
 _atom_site_fract_y
 _atom_site_fract_z
 _atom_site_occupancy
 _atom_site_hle17_ddec_charge
 _atom_site_hle17_ddec_spin_density
 _atom_site_hle17_ddec_sum_bond_order
 _atom_site_hle17_magmom
 _atom_site_hse06_10hf_ddec_charge
 _atom_site_hse06_10hf_ddec_spin_density
 _atom_site_hse06_10hf_ddec_sum_bond_order
 _atom_site_hse06_10hf_magmom
 _atom_site_hse06_ddec_charge
 _atom_site_hse06_ddec_spin_density
 _atom_site_hse06_ddec_sum_bond_order
 _atom_site_hse06_magmom
 _atom_site_pbe_cm5_charge
 _atom_site_pbe_ddec_charge
 _atom_site_pbe_ddec_spin_density
 _atom_site_pbe_ddec_sum_bond_order
 _atom_site_pbe_magmom
Cu  Cu0  1  0.23694445  0.24335173  0.31145158  1  0.798336  0.742455  1.853817  0.514  0.759483  0.808547  2.234816  0.621  0.846557  0.887697  2.174328  0.706  0.759216  0.708488  0.746991  2.276327  0.561
Cu  Cu1  1  0.73694344  0.25664965  0.18854000  1  0.798291  -0.742501  1.854008  -0.514  0.759409  -0.808563  2.234996  -0.621  0.84646  -0.887703  2.174482  -0.706  0.759217  0.708506  -0.747007  2.276399  -0.561
Cu  Cu2  1  0.76305056  0.75665041  0.68854621  1  0.798273  -0.742466  1.853867  -0.514  0.759434  -0.808543  2.234805  -0.621  0.84648  -0.887677  2.174294  -0.706  0.75919  0.70854  -0.746976  2.276208  -0.561
Cu  Cu3  1  0.26305754  0.74334429  0.81146115  1  0.798406  0.742478  1.853807  0.514  0.759531  0.808578  2.23489  0.621  0.846607  0.887721  2.174397  0.706  0.759231  0.708515  0.746986  2.276421  0.561
H  H4  1  0.35104825  0.34780007  0.64537107  1  0.091397  0.000568  0.954841  0.001  0.09497  0.000547  1.02234  0.001  0.097555  0.000352  1.021323  0.0  0.115409  0.093131  0.00075  1.023231  0.001
H  H5  1  0.85103348  0.15220997  0.85461665  1  0.091425  -0.000569  0.954814  -0.001  0.095071  -0.000547  1.022253  -0.001  0.097657  -0.000351  1.021242  0.0  0.115506  0.093236  -0.000749  1.023148  -0.001
H  H6  1  0.64896766  0.65220506  0.35463233  1  0.091337  -0.000578  0.954924  -0.001  0.094913  -0.000547  1.02242  -0.001  0.097496  -0.000352  1.021406  0.0  0.115394  0.093076  -0.000749  1.023315  -0.001
H  H7  1  0.14894859  0.84780160  0.14538574  1  0.091476  0.000567  0.954728  0.001  0.095011  0.000547  1.022265  0.001  0.097598  0.000351  1.021255  0.0  0.115486  0.093178  0.000749  1.02315  0.001
H  H8  1  0.67280044  0.36373242  0.47845796  1  0.100446  0.000478  0.932135  0.001  0.105653  0.000408  0.995949  0.001  0.109034  0.000261  0.993403  0.0  0.120907  0.103752  0.000586  0.996952  0.001
H  H9  1  0.17278418  0.13629934  0.02153917  1  0.100411  -0.000485  0.931997  -0.001  0.105649  -0.000408  0.995781  -0.001  0.109024  -0.000261  0.993248  0.0  0.120945  0.103745  -0.000586  0.996779  -0.001
H  H10  1  0.32720452  0.63626490  0.52153461  1  0.100398  -0.000495  0.932096  -0.001  0.105623  -0.000408  0.99591  -0.001  0.109001  -0.000262  0.993369  0.0  0.120909  0.103718  -0.000586  0.996905  -0.001
H  H11  1  0.82721183  0.86372864  0.97845716  1  0.100345  0.000486  0.932151  0.001  0.105583  0.000408  0.995947  0.001  0.108957  0.00026  0.993412  0.0  0.120897  0.103679  0.000586  0.99694  0.001
H  H12  1  0.41580370  0.03136291  0.25066493  1  0.094803  0.001273  0.944779  0.002  0.10298  0.000921  1.006253  0.001  0.104329  0.000665  1.005859  0.001  0.119891  0.101934  0.001068  1.00641  0.002
H  H13  1  0.91580864  0.46864411  0.24933164  1  0.094818  -0.001265  0.944849  -0.002  0.103023  -0.000921  1.006292  -0.001  0.104374  -0.000665  1.005895  -0.001  0.119906  0.101982  -0.001068  1.006448  -0.002
H  H14  1  0.58419828  0.96864569  0.74933250  1  0.094815  -0.001264  0.94488  -0.002  0.103048  -0.000921  1.006274  -0.001  0.104399  -0.000665  1.005875  -0.001  0.119908  0.101965  -0.001068  1.006474  -0.002
H  H15  1  0.08418139  0.53134993  0.75067211  1  0.094836  0.00126  0.944699  0.002  0.102996  0.000921  1.006191  0.001  0.104346  0.000665  1.005794  0.001  0.119905  0.101962  0.001068  1.006333  0.002
H  H16  1  0.41572580  0.80371139  0.24597724  1  0.11779  0.000519  0.952469  0.0  0.127026  0.00049  1.013375  0.0  0.129562  0.000345  1.01345  0.0  0.111676  0.125171  0.000531  1.013592  0.001
H  H17  1  0.91572165  0.69629929  0.25403020  1  0.117939  -0.000522  0.952266  0.0  0.127034  -0.000491  1.013314  0.0  0.129569  -0.000345  1.01339  0.0  0.111733  0.125183  -0.000531  1.013533  -0.001
H  H18  1  0.58428613  0.19629819  0.75402162  1  0.11773  -0.000521  0.952588  0.0  0.126983  -0.000491  1.013493  0.0  0.129516  -0.000345  1.01357  0.0  0.111665  0.125129  -0.000531  1.013708  -0.001
H  H19  1  0.08426838  0.30369595  0.74598084  1  0.117888  0.000519  0.952354  0.0  0.127036  0.00049  1.013357  0.0  0.129571  0.000345  1.013434  0.0  0.111639  0.12518  0.000532  1.013573  0.001
H  H20  1  0.03436037  0.85537331  0.38053376  1  0.129739  0.000508  0.99275  0.001  0.135863  0.000441  1.056207  0.0  0.140716  0.000326  1.053087  0.0  0.108826  0.132334  0.000497  1.058617  0.001
H  H21  1  0.53435662  0.64462507  0.11947322  1  0.129757  -0.000509  0.992747  -0.001  0.135867  -0.000441  1.056224  0.0  0.14072  -0.000326  1.053104  0.0  0.108825  0.13234  -0.000497  1.058635  -0.001
H  H22  1  0.96564957  0.14462515  0.61946480  1  0.129547  -0.000507  0.992928  -0.001  0.135793  -0.000441  1.056237  0.0  0.140646  -0.000326  1.053117  0.0  0.10881  0.132263  -0.000497  1.058656  -0.001
H  H23  1  0.46564337  0.35537247  0.88052521  1  0.129713  0.000509  0.992779  0.001  0.135828  0.000441  1.05626  0.0  0.140681  0.000326  1.053139  0.0  0.108795  0.132302  0.000497  1.058672  0.001
H  H24  1  0.05267361  0.08220823  0.37997206  1  0.099418  0.001176  0.946254  0.002  0.107948  0.000922  1.006348  0.002  0.110119  0.000675  1.004035  0.001  0.123555  0.10594  0.001014  1.008409  0.002
H  H25  1  0.55267301  0.41778975  0.12002713  1  0.099397  -0.001182  0.946241  -0.002  0.107916  -0.000922  1.006366  -0.002  0.110087  -0.000675  1.004052  -0.001  0.123543  0.105931  -0.001014  1.008408  -0.002
H  H26  1  0.94732738  0.91778919  0.62002311  1  0.099462  -0.001183  0.946166  -0.002  0.107973  -0.000922  1.006286  -0.002  0.110144  -0.000676  1.003974  -0.001  0.123541  0.105964  -0.001014  1.00836  -0.002
H  H27  1  0.44731702  0.58220786  0.87997325  1  0.099486  0.001179  0.946214  0.002  0.107998  0.000923  1.00632  0.002  0.110168  0.000676  1.004009  0.001  0.123585  0.105976  0.001014  1.008398  0.002
H  H28  1  0.31690341  0.61836399  0.18201929  1  0.129317  0.000499  0.980331  0.0  0.136232  0.00042  1.043936  0.0  0.140364  0.000298  1.0417  0.0  0.10958  0.133186  0.00048  1.045767  0.001
H  H29  1  0.81689468  0.88165412  0.31799230  1  0.129233  -0.000494  0.980396  0.0  0.136208  -0.00042  1.043937  0.0  0.140336  -0.000298  1.041708  0.0  0.109571  0.133201  -0.000479  1.045722  -0.001
H  H30  1  0.68311847  0.38164039  0.81798854  1  0.129204  -0.000492  0.980398  0.0  0.136197  -0.00042  1.043929  0.0  0.140332  -0.000298  1.041687  0.0  0.1096  0.133175  -0.00048  1.045719  -0.001
H  H31  1  0.18309635  0.11834453  0.68201082  1  0.129275  0.00049  0.980315  0.0  0.136228  0.00042  1.043893  0.0  0.140358  0.000298  1.04166  0.0  0.109569  0.133204  0.00048  1.045688  0.001
H  H32  1  0.31880054  0.39249394  0.18824843  1  0.098008  0.001208  0.92637  0.002  0.108321  0.000872  0.982735  0.001  0.110364  0.000627  0.980625  0.001  0.124848  0.106711  0.001003  0.984217  0.002
H  H33  1  0.81879458  0.10751966  0.31175346  1  0.0981  -0.0012  0.926431  -0.002  0.10839  -0.000872  0.982788  -0.001  0.110435  -0.000626  0.980675  -0.001  0.124897  0.106775  -0.001002  0.984269  -0.002
H  H34  1  0.68121935  0.60751041  0.81175874  1  0.09805  -0.001208  0.926416  -0.002  0.108267  -0.000872  0.982863  -0.001  0.110309  -0.000626  0.980757  -0.001  0.124835  0.106655  -0.001002  0.984343  -0.002
H  H35  1  0.18119944  0.89247702  0.68824679  1  0.09804  0.001211  0.926433  0.002  0.108374  0.000871  0.982742  0.001  0.110418  0.000626  0.980631  0.001  0.124913  0.106749  0.001002  0.984235  0.002
H  H36  1  0.10866474  0.46361168  0.42415457  1  0.100773  0.001204  0.952427  0.002  0.10806  0.00092  1.013184  0.001  0.110273  0.000666  1.011209  0.001  0.121311  0.106147  0.001046  1.014928  0.002
H  H37  1  0.60865045  0.03638117  0.07585045  1  0.100801  -0.001208  0.952301  -0.002  0.10808  -0.000919  1.013074  -0.001  0.110294  -0.000666  1.011098  -0.001  0.121311  0.106165  -0.001046  1.014825  -0.002
H  H38  1  0.89133724  0.53639149  0.57584596  1  0.10088  -0.001202  0.952403  -0.002  0.108158  -0.00092  1.013164  -0.001  0.110371  -0.000666  1.011189  -0.001  0.121352  0.106242  -0.001046  1.014914  -0.002
H  H39  1  0.39135053  0.96361632  0.92414668  1  0.100864  0.001205  0.952226  0.002  0.108144  0.000919  1.012994  0.001  0.110358  0.000666  1.011016  0.001  0.121325  0.106235  0.001045  1.014744  0.002
H  H40  1  0.10291958  0.69244879  0.43219477  1  0.125626  0.000571  0.956957  0.001  0.132218  0.000493  1.019334  0.0  0.136613  0.000359  1.016536  0.0  0.112056  0.12925  0.000538  1.020896  0.001
H  H41  1  0.60290838  0.80754467  0.06781679  1  0.12571  -0.000575  0.957011  -0.001  0.132269  -0.000493  1.019384  0.0  0.136665  -0.000359  1.016594  0.0  0.11213  0.129297  -0.000538  1.020951  -0.001
H  H42  1  0.89708439  0.30755441  0.56780641  1  0.125667  -0.000567  0.956994  -0.001  0.132264  -0.000494  1.019361  0.0  0.136659  -0.000359  1.016563  0.0  0.112081  0.129295  -0.000538  1.020929  -0.001
H  H43  1  0.39709360  0.19245111  0.93218397  1  0.125686  0.00058  0.957045  0.001  0.132278  0.000493  1.019386  0.0  0.136676  0.000359  1.016596  0.0  0.112147  0.12931  0.000538  1.020954  0.001
C  C44  1  0.16152379  0.26517767  0.51550711  1  0.591835  0.001516  4.028919  0.002  0.544279  0.00114  4.338893  0.001  0.576926  0.000763  4.332207  0.001  0.189284  0.522324  0.001553  4.341779  0.002
C  C45  1  0.66149737  0.23481875  0.98448998  1  0.591858  -0.001516  4.02869  -0.002  0.5444  -0.001142  4.338619  -0.001  0.577051  -0.000763  4.331927  -0.001  0.189326  0.522461  -0.001551  4.341487  -0.002
C  C46  1  0.83848217  0.73483033  0.48449864  1  0.591995  -0.001515  4.02832  -0.002  0.544413  -0.001142  4.338378  -0.001  0.577062  -0.000765  4.331686  -0.001  0.189295  0.522468  -0.001552  4.341264  -0.002
C  C47  1  0.33848868  0.76516745  0.01550229  1  0.592142  0.001518  4.028627  0.002  0.544625  0.00114  4.338508  0.001  0.577268  0.000765  4.331816  0.001  0.189337  0.522674  0.001552  4.341391  0.002
C  C48  1  0.30689851  0.29902957  0.50518786  1  0.084198  -0.007958  3.669791  -0.008  0.090583  -0.001328  3.914254  -0.002  0.091817  -0.002592  3.930854  -0.004  0.125179  0.089291  1.5e-05  3.903962  -0.001
C  C49  1  0.80687434  0.20096391  0.99480129  1  0.084276  0.007961  3.669763  0.008  0.090381  0.001328  3.914632  0.002  0.09162  0.002597  3.931217  0.004  0.125071  0.08908  -1.4e-05  3.904358  0.001
C  C50  1  0.69310646  0.70097280  0.49481579  1  0.084132  0.007961  3.669719  0.008  0.090459  0.001329  3.914315  0.002  0.091693  0.002595  3.930905  0.004  0.125151  0.089158  -1.4e-05  3.904051  0.001
C  C51  1  0.19310475  0.79902171  0.00519996  1  0.084117  -0.007945  3.669686  -0.008  0.090483  -0.001329  3.914141  -0.002  0.091747  -0.002589  3.930691  -0.004  0.125167  0.089185  1.4e-05  3.903857  -0.001
C  C52  1  0.39137379  0.33794460  0.57867556  1  0.083592  0.012515  3.647598  0.013  0.05395  0.004489  3.902859  0.005  0.058748  0.004092  3.914274  0.005  0.062949  0.050616  0.004985  3.895516  0.006
C  C53  1  0.89135349  0.16206077  0.92131414  1  0.083544  -0.012513  3.647474  -0.013  0.053872  -0.004487  3.902911  -0.005  0.058666  -0.0041  3.914327  -0.005  0.062722  0.050536  -0.004985  3.895585  -0.006
C  C54  1  0.60863615  0.66205763  0.42132484  1  0.083813  -0.012506  3.647782  -0.013  0.054188  -0.004488  3.903072  -0.005  0.058992  -0.004095  3.914481  -0.005  0.063096  0.050855  -0.004985  3.895745  -0.006
C  C55  1  0.10862958  0.83794057  0.07868677  1  0.083609  0.0125  3.647407  0.013  0.053993  0.004489  3.902694  0.005  0.058777  0.004096  3.914111  0.005  0.062771  0.050656  0.004985  3.895358  0.006
C  C56  1  0.56724020  0.34696082  0.48728329  1  0.070551  0.011497  3.671164  0.012  0.037871  0.003968  3.929336  0.005  0.042431  0.003815  3.942561  0.004  0.05513  0.034944  0.004196  3.92008  0.005
C  C57  1  0.06721930  0.15305482  0.01271070  1  0.070522  -0.011483  3.670888  -0.012  0.037893  -0.003966  3.92909  -0.005  0.042467  -0.00382  3.942288  -0.004  0.055116  0.034961  -0.004196  3.919836  -0.005
C  C58  1  0.43276576  0.65303385  0.51271279  1  0.070592  -0.011474  3.670975  -0.012  0.037917  -0.003966  3.929164  -0.005  0.042477  -0.003819  3.942385  -0.004  0.055121  0.034993  -0.004197  3.919894  -0.005
C  C59  1  0.93277073  0.84695750  0.98728726  1  0.070601  0.011475  3.670956  0.012  0.037878  0.003968  3.929168  0.005  0.042454  0.00382  3.942368  0.004  0.055076  0.034955  0.004196  3.919898  0.005
C  C60  1  0.48583383  0.30857251  0.41276917  1  0.068008  -0.016419  3.703768  -0.017  0.076877  -0.006035  3.945805  -0.008  0.076107  -0.005746  3.963641  -0.007  0.117298  0.076943  -0.006115  3.93455  -0.007
C  C61  1  0.98581212  0.19143112  0.08722315  1  0.068221  0.016435  3.703553  0.017  0.076989  0.00604  3.945631  0.008  0.076218  0.00574  3.963474  0.007  0.117355  0.077065  0.006118  3.934372  0.007
C  C62  1  0.51416616  0.69142128  0.58722807  1  0.067943  0.016454  3.703797  0.017  0.076789  0.00604  3.94586  0.008  0.076022  0.005735  3.963696  0.007  0.117234  0.076861  0.006115  3.934596  0.007
C  C63  1  0.01417792  0.80856270  0.91277475  1  0.067926  -0.01642  3.703772  -0.017  0.076865  -0.006037  3.945682  -0.008  0.07609  -0.005749  3.96353  -0.007  0.117287  0.076935  -0.006119  3.934416  -0.007
C  C64  1  0.53791538  0.28520579  0.31861388  1  0.59572  0.006384  3.950645  0.011  0.549616  0.001736  4.261703  0.005  0.58608  0.001932  4.255525  0.005  0.200344  0.525519  0.001472  4.265193  0.005
C  C65  1  0.03789443  0.21481399  0.18138259  1  0.595711  -0.006379  3.950758  -0.011  0.549596  -0.001736  4.261827  -0.005  0.586062  -0.001928  4.255643  -0.005  0.200282  0.525497  -0.001471  4.26531  -0.005
C  C66  1  0.46207863  0.71478527  0.68138426  1  0.595821  -0.006395  3.950506  -0.011  0.549716  -0.001738  4.261566  -0.005  0.58618  -0.001928  4.255391  -0.005  0.200378  0.525622  -0.001474  4.265032  -0.005
C  C67  1  0.96210456  0.78518714  0.81861312  1  0.595712  0.006375  3.9506  0.011  0.549588  0.001735  4.261622  0.005  0.586054  0.001931  4.25544  0.005  0.200219  0.525487  0.001472  4.265117  0.005
C  C68  1  0.33446142  0.98778538  0.27909513  1  0.120944  -0.007809  3.679056  -0.008  0.092148  -0.0011  3.934115  -0.002  0.100563  -0.002183  3.952512  -0.003  0.045976  0.086464  -0.000337  3.922194  -0.001
C  C69  1  0.83446597  0.51222152  0.22090452  1  0.120998  0.00778  3.679153  0.008  0.092172  0.001099  3.934173  0.002  0.100583  0.002182  3.952574  0.003  0.046088  0.086483  0.000338  3.92226  0.001
C  C70  1  0.66554254  0.01222143  0.72090399  1  0.12094  0.007785  3.679244  0.008  0.092139  0.001098  3.934289  0.002  0.100555  0.002185  3.952684  0.003  0.046052  0.08648  0.000337  3.922386  0.001
C  C71  1  0.16552506  0.48777351  0.77910066  1  0.120987  -0.007773  3.678832  -0.008  0.092221  -0.001098  3.933879  -0.002  0.100637  -0.002185  3.952279  -0.003  0.046043  0.086526  -0.000338  3.921956  -0.001
C  C72  1  0.33304893  0.86125677  0.27669220  1  -0.140213  0.009694  3.692272  0.01  -0.159447  0.003462  3.940451  0.004  -0.165345  0.003158  3.959085  0.004  -0.075943  -0.155971  0.003668  3.92874  0.004
C  C73  1  0.83304737  0.63875033  0.22331330  1  -0.14042  -0.00968  3.692204  -0.01  -0.159549  -0.003465  3.940375  -0.004  -0.165447  -0.003159  3.959008  -0.004  -0.076152  -0.156074  -0.003668  3.928673  -0.004
C  C74  1  0.66695901  0.13874912  0.72330678  1  -0.140194  -0.009688  3.692439  -0.01  -0.159477  -0.003461  3.940581  -0.004  -0.165374  -0.003162  3.959215  -0.004  -0.076035  -0.155997  -0.003668  3.928855  -0.004
C  C75  1  0.16694266  0.36124567  0.77669332  1  -0.140406  0.009693  3.691972  0.01  -0.159568  0.003461  3.94012  0.004  -0.16547  0.003163  3.958754  0.004  -0.076046  -0.156095  0.003671  3.928415  0.004
C  C76  1  0.22409005  0.80984382  0.31267076  1  0.094992  -0.007667  3.748365  -0.007  0.105643  -0.002326  3.979754  -0.002  0.109448  -0.002623  4.000201  -0.003  0.014409  0.102816  -0.002189  3.967034  -0.002
C  C77  1  0.72408256  0.69016215  0.18733828  1  0.095067  0.00767  3.748192  0.007  0.105817  0.002331  3.979376  0.002  0.109629  0.002623  3.999814  0.003  0.014537  0.102978  0.00219  3.966671  0.002
C  C78  1  0.77592089  0.19015935  0.68732977  1  0.09494  0.007675  3.748368  0.007  0.105635  0.002327  3.979636  0.002  0.109446  0.002625  4.000078  0.003  0.014396  0.102805  0.002189  3.966923  0.002
C  C79  1  0.27591245  0.30983461  0.81266392  1  0.095005  -0.007672  3.748245  -0.007  0.10568  -0.002325  3.979536  -0.002  0.10949  -0.002628  3.999977  -0.003  0.014477  0.10285  -0.002192  3.96682  -0.002
C  C80  1  0.12145656  0.89035941  0.35132816  1  -0.159752  0.010182  3.671757  0.01  -0.17448  0.003912  3.911204  0.005  -0.182397  0.003531  3.930916  0.004  -0.080592  -0.16921  0.004224  3.898404  0.005
C  C81  1  0.62144913  0.60964161  0.14867805  1  -0.159805  -0.010187  3.6716  -0.01  -0.174584  -0.003916  3.911051  -0.005  -0.182501  -0.003528  3.93076  -0.004  -0.080693  -0.169312  -0.004226  3.898254  -0.005
C  C82  1  0.87855338  0.10964179  0.64866951  1  -0.159447  -0.010192  3.671811  -0.01  -0.174275  -0.003913  3.911158  -0.005  -0.182192  -0.003532  3.930871  -0.004  -0.080496  -0.169005  -0.004224  3.898359  -0.005
C  C83  1  0.37854588  0.39035417  0.85132271  1  -0.159541  0.010186  3.671726  0.01  -0.174309  0.003912  3.911179  0.005  -0.182227  0.003535  3.930888  0.004  -0.080518  -0.169043  0.004228  3.898378  0.005
C  C84  1  0.12970513  0.01585230  0.35090814  1  0.128795  -0.006921  3.674283  -0.007  0.099634  -0.000214  3.927647  -0.001  0.107825  -0.001423  3.947563  -0.002  0.047037  0.093947  0.000664  3.915163  0.0
C  C85  1  0.62970313  0.48414726  0.14909206  1  0.128871  0.006944  3.674193  0.007  0.099702  0.000215  3.927561  0.001  0.107892  0.001423  3.947473  0.002  0.047077  0.093999  -0.000663  3.915072  0.0
C  C86  1  0.87029884  0.98414984  0.64908966  1  0.128616  0.006938  3.674332  0.007  0.099483  0.000213  3.927742  0.001  0.107671  0.001425  3.94766  0.002  0.047002  0.093795  -0.000665  3.915275  0.0
C  C87  1  0.37028889  0.51584945  0.85090884  1  0.128647  -0.006939  3.674352  -0.007  0.099526  -0.000215  3.9277  -0.001  0.107716  -0.001426  3.947613  -0.002  0.046983  0.093852  0.000662  3.91522  0.0
C  C88  1  0.21671378  0.67538141  0.30931319  1  0.098717  -0.007524  3.753423  -0.007  0.107802  -0.002214  3.989727  -0.002  0.1128  -0.002488  4.009557  -0.002  0.014645  0.104094  -0.002064  3.977339  -0.002
C  C89  1  0.71670933  0.82462441  0.19069581  1  0.098554  0.007526  3.753451  0.007  0.107657  0.002219  3.989674  0.002  0.112646  0.002481  4.009506  0.002  0.014618  0.103951  0.002066  3.977294  0.002
C  C90  1  0.78329715  0.32462181  0.69068864  1  0.098657  0.007522  3.753514  0.007  0.107804  0.002217  3.989686  0.002  0.112797  0.002485  4.009515  0.002  0.014623  0.104095  0.002062  3.977295  0.002
C  C91  1  0.28328767  0.17537514  0.80930679  1  0.098479  -0.007511  3.753533  -0.007  0.107649  -0.002212  3.989691  -0.002  0.112643  -0.002488  4.009518  -0.002  0.014581  0.103943  -0.002062  3.9773  -0.002
C  C92  1  0.27396226  0.58842619  0.23855553  1  -0.161191  0.009666  3.685761  0.01  -0.181244  0.003465  3.935539  0.004  -0.188972  0.003124  3.954427  0.004  -0.081601  -0.175939  0.003683  3.922848  0.004
C  C93  1  0.77395601  0.91158167  0.26145257  1  -0.160969  -0.009676  3.685533  -0.01  -0.181096  -0.003468  3.935316  -0.004  -0.188825  -0.003115  3.954219  -0.004  -0.08159  -0.175825  -0.003685  3.922608  -0.004
C  C94  1  0.72605465  0.41157806  0.76144904  1  -0.160965  -0.00968  3.685723  -0.01  -0.18109  -0.003467  3.935419  -0.004  -0.188825  -0.00312  3.95433  -0.004  -0.081535  -0.175801  -0.003681  3.9227  -0.004
C  C95  1  0.22604000  0.08841604  0.73855042  1  -0.160992  0.009684  3.685443  0.01  -0.181123  0.003466  3.935217  0.004  -0.188845  0.00312  3.9541  0.004  -0.081581  -0.175833  0.003681  3.922487  0.004
C  C96  1  0.27302644  0.46327473  0.24048141  1  0.126383  -0.007639  3.691602  -0.008  0.09629  -0.000838  3.948359  -0.002  0.105381  -0.001922  3.967459  -0.003  0.045821  0.090113  -0.000237  3.935822  -0.001
C  C97  1  0.77301873  0.03673339  0.25952220  1  0.126046  0.00762  3.691838  0.008  0.095996  0.000838  3.948585  0.002  0.105086  0.001915  3.96768  0.003  0.04567  0.089823  0.000238  3.93605  0.001
C  C98  1  0.72698747  0.53673045  0.75952330  1  0.126192  0.00764  3.691808  0.008  0.096163  0.000838  3.948588  0.002  0.105252  0.00192  3.967689  0.003  0.045715  0.089989  0.000233  3.936053  0.001
C  C99  1  0.22697728  0.96326325  0.74047674  1  0.126117  -0.007649  3.691734  -0.008  0.096046  -0.000839  3.94847  -0.002  0.105134  -0.001916  3.96757  -0.003  0.045665  0.089884  -0.000234  3.935925  -0.001
C  C100  1  0.15554565  0.50391648  0.37354346  1  0.124088  -0.00662  3.666322  -0.007  0.09497  -0.000229  3.925617  -0.001  0.103468  -0.001339  3.94433  -0.002  0.047151  0.088808  0.000742  3.914345  0.0
C  C101  1  0.65553390  0.99607774  0.12646054  1  0.124079  0.006649  3.666387  0.007  0.094935  0.000228  3.925688  0.001  0.10343  0.001335  3.944398  0.002  0.04721  0.088776  -0.000741  3.914413  0.0
C  C102  1  0.84446031  0.49608669  0.62645707  1  0.124059  0.006622  3.666421  0.007  0.09493  0.000228  3.925707  0.001  0.103427  0.001337  3.944418  0.002  0.047197  0.088766  -0.000745  3.914447  0.0
C  C103  1  0.34446410  0.00391977  0.87353724  1  0.12395  -0.006622  3.666266  -0.007  0.094821  -0.000229  3.925569  -0.001  0.103315  -0.001335  3.944283  -0.002  0.047143  0.088653  0.000743  3.914306  0.0
C  C104  1  0.15301552  0.63063029  0.37662665  1  -0.14271  0.009697  3.66999  0.01  -0.161083  0.003518  3.918473  0.004  -0.168596  0.0032  3.93738  0.004  -0.07416  -0.156274  0.003761  3.906488  0.004
C  C105  1  0.65300688  0.86936677  0.12338034  1  -0.142784  -0.009692  3.670573  -0.01  -0.16112  -0.00352  3.919026  -0.004  -0.168633  -0.003194  3.93794  -0.004  -0.074227  -0.156299  -0.003762  3.907011  -0.004
C  C106  1  0.84698944  0.36937381  0.62337402  1  -0.142853  -0.009705  3.670474  -0.01  -0.161263  -0.003519  3.918932  -0.004  -0.168772  -0.003196  3.937837  -0.004  -0.074247  -0.156444  -0.003758  3.906933  -0.004
C  C107  1  0.34699111  0.13063182  0.87662147  1  -0.142731  0.00966  3.670547  0.01  -0.161109  0.003515  3.918961  0.004  -0.168627  0.003198  3.937876  0.004  -0.074239  -0.156286  0.003757  3.906951  0.004
N  N108  1  0.35549038  0.28835982  0.42314362  1  -0.278774  0.070423  3.343264  0.086  -0.246616  0.05009  3.615775  0.066  -0.269936  0.042548  3.640493  0.059  -0.311208  -0.23321  0.054717  3.601712  0.07
N  N109  1  0.85546710  0.21163368  0.07684573  1  -0.278939  -0.070432  3.343465  -0.086  -0.246634  -0.050087  3.616047  -0.066  -0.269957  -0.042544  3.640758  -0.059  -0.311214  -0.233245  -0.054715  3.60199  -0.07
N  N110  1  0.64451359  0.71164061  0.57685781  1  -0.278772  -0.070443  3.343396  -0.086  -0.246607  -0.05009  3.61594  -0.066  -0.269926  -0.042544  3.640649  -0.059  -0.311225  -0.233223  -0.054717  3.601897  -0.07
N  N111  1  0.14451896  0.78835003  0.92315395  1  -0.278659  0.070396  3.343427  0.086  -0.246488  0.050076  3.61585  0.066  -0.269821  0.042536  3.640568  0.059  -0.311073  -0.233076  0.054708  3.601782  0.07
N  N112  1  0.51987835  0.36440333  0.57032884  1  -0.241656  -0.006203  3.045136  -0.008  -0.214718  -0.001807  3.320406  -0.002  -0.221448  -0.002607  3.334478  -0.003  -0.297799  -0.209773  -0.000643  3.310675  -0.001
N  N113  1  0.01986240  0.13561307  0.92966053  1  -0.241686  0.006207  3.044858  0.008  -0.21473  0.001805  3.320141  0.002  -0.221463  0.002612  3.334214  0.003  -0.297713  -0.209786  0.000645  3.310421  0.001
N  N114  1  0.48013457  0.63559597  0.42966725  1  -0.241747  0.006206  3.045069  0.008  -0.214811  0.001805  3.320359  0.002  -0.221543  0.002609  3.334427  0.003  -0.297851  -0.209863  0.000644  3.31063  0.001
N  N115  1  0.98012863  0.86440104  0.07033575  1  -0.241748  -0.006194  3.044923  -0.008  -0.21482  -0.001808  3.320223  -0.002  -0.221558  -0.002612  3.3343  -0.003  -0.297762  -0.209875  -0.000645  3.310491  -0.001
N  N116  1  0.23433227  0.06370237  0.31549434  1  -0.283669  0.08342  3.345032  0.101  -0.235215  0.055407  3.63847  0.073  -0.265087  0.04642  3.661408  0.064  -0.34761  -0.21693  0.060962  3.624818  0.077
N  N117  1  0.73433529  0.43630195  0.18450283  1  -0.283679  -0.083434  3.345049  -0.101  -0.23521  -0.055413  3.638474  -0.073  -0.265075  -0.046427  3.6614  -0.064  -0.347618  -0.216947  -0.060972  3.624835  -0.077
N  N118  1  0.76566772  0.93630155  0.68450177  1  -0.283521  -0.083413  3.345087  -0.101  -0.235183  -0.055407  3.638602  -0.073  -0.265048  -0.046423  3.661526  -0.064  -0.347589  -0.216917  -0.060964  3.624949  -0.077
N  N119  1  0.26565973  0.56369380  0.81549728  1  -0.283673  0.08344  3.345062  0.101  -0.235257  0.055418  3.63853  0.073  -0.265132  0.04643  3.66147  0.064  -0.347607  -0.216966  0.060983  3.624866  0.077
N  N120  1  0.21722839  0.42214028  0.30771414  1  -0.285871  0.084269  3.352515  0.102  -0.238352  0.054913  3.648389  0.071  -0.269385  0.04587  3.67273  0.062  -0.347101  -0.219139  0.060501  3.633865  0.076
N  N121  1  0.71722138  0.07786483  0.19228829  1  -0.285722  -0.084273  3.352635  -0.102  -0.238202  -0.054911  3.648489  -0.071  -0.269223  -0.045866  3.67281  -0.062  -0.347094  -0.219006  -0.060502  3.633946  -0.076
N  N122  1  0.78277956  0.57786480  0.69228796  1  -0.285818  -0.084269  3.35242  -0.102  -0.23826  -0.054914  3.648209  -0.071  -0.269283  -0.045873  3.672536  -0.062  -0.347097  -0.219067  -0.060502  3.63369  -0.076
N  N123  1  0.28277264  0.92213364  0.80771027  1  -0.285734  0.084265  3.352467  0.102  -0.23824  0.054905  3.648377  0.071  -0.26927  0.045857  3.672715  0.062  -0.347057  -0.219021  0.060493  3.633834  0.076
O  O124  1  0.08262473  0.28023804  0.45512513  1  -0.6202  0.005422  1.939254  0.007  -0.58972  0.001844  2.174129  0.003  -0.615176  0.000543  2.162173  0.001  -0.328587  -0.570844  0.003952  2.180597  0.006
O  O125  1  0.58260849  0.21975883  0.04487784  1  -0.620198  -0.005416  1.939294  -0.007  -0.589686  -0.001841  2.174094  -0.003  -0.615144  -0.000537  2.162141  -0.001  -0.328509  -0.570829  -0.003947  2.18056  -0.006
O  O126  1  0.91738422  0.71975588  0.54487537  1  -0.620219  -0.005414  1.939191  -0.007  -0.589678  -0.001842  2.174016  -0.003  -0.615135  -0.000537  2.162065  -0.001  -0.328486  -0.570809  -0.003949  2.180482  -0.006
O  O127  1  0.41735667  0.78022227  0.95510205  1  -0.620322  0.005428  1.939367  0.007  -0.589876  0.001844  2.17427  0.003  -0.615332  0.000537  2.162308  0.001  -0.328559  -0.570994  0.003953  2.180729  0.006
O  O128  1  0.13743585  0.22350216  0.58343223  1  -0.622681  -0.000224  1.964859  0.0  -0.5811  -5.1e-05  2.193247  0.0  -0.606689  -0.000226  2.187055  0.0  -0.326796  -0.562034  0.000401  2.19621  0.001
O  O129  1  0.63740716  0.27650028  0.91656568  1  -0.622763  0.000227  1.964641  0.0  -0.58115  5.3e-05  2.192946  0.0  -0.606738  0.000221  2.186763  0.0  -0.326856  -0.562089  -0.000401  2.195902  -0.001
O  O130  1  0.86256514  0.77651705  0.41657643  1  -0.622868  0.000219  1.964554  0.0  -0.581244  5.3e-05  2.192932  0.0  -0.606824  0.00022  2.186731  0.0  -0.326911  -0.562177  -0.000402  2.195899  -0.001
O  O131  1  0.36260676  0.72350077  0.08342807  1  -0.622934  -0.000226  1.964674  0.0  -0.581281  -5e-05  2.192972  0.0  -0.606873  -0.000225  2.186789  0.0  -0.3269  -0.562215  0.000402  2.195935  0.001
O  O132  1  0.45892514  0.24517403  0.25595648  1  -0.578756  -0.000319  1.986969  -0.001  -0.553479  -0.000474  2.238728  -0.001  -0.58031  -3.9e-05  2.227197  0.0  -0.305704  -0.535668  -0.000888  2.246368  -0.001
O  O133  1  0.95890436  0.25484849  0.24403592  1  -0.578705  0.000315  1.987086  0.001  -0.553437  0.00047  2.238906  0.001  -0.580271  4.7e-05  2.22737  0.0  -0.305686  -0.535638  0.000889  2.24654  0.001
O  O134  1  0.54106888  0.75481521  0.74404269  1  -0.578776  0.000331  1.986845  0.001  -0.553497  0.000471  2.23862  0.001  -0.58033  4.5e-05  2.227085  0.0  -0.305708  -0.535698  0.00089  2.246246  0.001
O  O135  1  0.04110060  0.74515463  0.75596331  1  -0.578679  -0.000313  1.987001  -0.001  -0.553453  -0.000476  2.238851  -0.001  -0.580284  -3.5e-05  2.227319  0.0  -0.305689  -0.535642  -0.000888  2.246494  -0.001
O  O136  1  0.66257480  0.30680108  0.31235027  1  -0.557892  -0.101297  2.044982  -0.13  -0.532865  -0.064108  2.312247  -0.091  -0.573632  -0.050241  2.305604  -0.075  -0.315347  -0.506864  -0.072565  2.316826  -0.099
O  O137  1  0.16255140  0.19320991  0.18764127  1  -0.55795  0.101301  2.045159  0.13  -0.532946  0.064106  2.312393  0.091  -0.573719  0.05023  2.305748  0.075  -0.315316  -0.506929  0.072566  2.316983  0.099
O  O138  1  0.33741822  0.69318796  0.68764370  1  -0.557978  0.101294  2.044949  0.13  -0.532963  0.064104  2.312191  0.091  -0.573734  0.050232  2.305557  0.075  -0.315388  -0.506937  0.072569  2.31676  0.099
O  O139  1  0.83744760  0.80679673  0.81235329  1  -0.557912  -0.101297  2.045046  -0.13  -0.532879  -0.064107  2.312276  -0.091  -0.573645  -0.050247  2.305624  -0.075  -0.31523  -0.506874  -0.07257  2.316861  -0.099
