# generated using pymatgen
data_Cd2H25C16N11O2
_symmetry_space_group_name_H-M   'P 1'
_cell_length_a   10.34514582
_cell_length_b   11.58841863
_cell_length_c   11.96500000
_cell_angle_alpha   61.26066477
_cell_angle_beta   75.86237532
_cell_angle_gamma   66.39943720
_symmetry_Int_Tables_number   1
_chemical_formula_structural   Cd2H25C16N11O2
_chemical_formula_sum   'Cd4 H50 C32 N22 O4'
_cell_volume   1150.12487568
_cell_formula_units_Z   2
loop_
 _symmetry_equiv_pos_site_id
 _symmetry_equiv_pos_as_xyz
  1  'x, y, z'
loop_
 _atom_site_type_symbol
 _atom_site_label
 _atom_site_symmetry_multiplicity
 _atom_site_fract_x
 _atom_site_fract_y
 _atom_site_fract_z
 _atom_site_occupancy
 _atom_site_hle17_bader_spin_density
 _atom_site_hle17_ddec_charge
 _atom_site_hle17_ddec_spin_density
 _atom_site_hle17_ddec_sum_bond_order
 _atom_site_hle17_magmom
 _atom_site_hse06_10hf_bader_spin_density
 _atom_site_hse06_10hf_ddec_charge
 _atom_site_hse06_10hf_ddec_spin_density
 _atom_site_hse06_10hf_ddec_sum_bond_order
 _atom_site_hse06_10hf_magmom
 _atom_site_hse06_bader_spin_density
 _atom_site_hse06_ddec_charge
 _atom_site_hse06_ddec_spin_density
 _atom_site_hse06_ddec_sum_bond_order
 _atom_site_hse06_magmom
 _atom_site_pbe_bader_charge
 _atom_site_pbe_bader_spin_density
 _atom_site_pbe_cm5_charge
 _atom_site_pbe_ddec_charge
 _atom_site_pbe_ddec_spin_density
 _atom_site_pbe_ddec_sum_bond_order
 _atom_site_pbe_magmom
Cd  Cd0  1  0.56649886  0.14348675  0.35598240  1  0  1.02548  0  1.876244  0  0  0.841912  0  2.325738  0  0  0.887231  0  2.288844  0  1.208158  0  0.808418  0.81013  0  2.351017  0
Cd  Cd1  1  0.43350081  0.85651536  0.64401677  1  0  1.025424  0  1.876285  0  0  0.841866  0  2.325777  0  0  0.887186  0  2.288882  0  1.208223  0  0.808393  0.810083  0  2.351055  0
Cd  Cd2  1  0.42533416  0.41082539  0.46076927  1  0  1.110244  0  1.841625  0  0  0.931478  0  2.309236  0  0  0.979921  0  2.265719  0  1.257495  0  0.809807  0.897463  0  2.339028  0
Cd  Cd3  1  0.57466416  0.58917777  0.53922886  1  0  1.110232  0  1.84158  0  0  0.931451  0  2.309203  0  0  0.979905  0  2.265678  0  1.257444  0  0.809793  0.897439  0  2.338991  0
H  H4  1  0.94474589  0.64375133  0.26579931  1  0  0.102436  0  0.985286  0  0  0.107832  0  1.059438  0  0  0.11102  0  1.056866  0  0.073378  0  0.100237  0.10548  0  1.061393  0
H  H5  1  0.05524984  0.35624765  0.73420132  1  0  0.102444  0  0.985283  0  0  0.107813  0  1.059466  0  0  0.111021  0  1.056871  0  0.072769  0  0.100222  0.105461  0  1.061421  0
H  H6  1  0.90206680  0.55050184  0.13667012  1  0  0.088358  0  0.998815  0  0  0.093519  0  1.070452  0  0  0.096212  0  1.06963  0  0.076093  0  0.091964  0.091638  0  1.071015  0
H  H7  1  0.09792999  0.44949401  0.86333257  1  0  0.088317  0  0.998832  0  0  0.093466  0  1.070481  0  0  0.096171  0  1.069648  0  0.076052  0  0.091938  0.091587  0  1.071042  0
H  H8  1  0.09875962  0.36732684  0.08420176  1  0  0.089184  0  0.962103  0  0  0.101196  0  1.023883  0  0  0.103579  0  1.02271  0  0.062594  0  0.099461  0.099321  0  1.02516  0
H  H9  1  0.90124045  0.63267110  0.91579927  1  0  0.089146  0  0.96215  0  0  0.101178  0  1.023894  0  0  0.103559  0  1.022719  0  0.0626  0  0.099453  0.099303  0  1.025171  0
H  H10  1  0.31911539  0.23657134  0.07705015  1  0  0.062757  0  0.946147  0  0  0.073993  0  1.016271  0  0  0.075689  0  1.012204  0  0.09933  0  0.114328  0.072594  0  1.019699  0
H  H11  1  0.68088498  0.76342868  0.92294984  1  0  0.062756  0  0.946142  0  0  0.073989  0  1.016269  0  0  0.075686  0  1.012201  0  0.099305  0  0.114323  0.072589  0  1.019698  0
H  H12  1  0.50340101  0.07539504  0.06896230  1  0  0.066881  0  0.926379  0  0  0.083752  0  0.990353  0  0  0.083966  0  0.990374  0  0.045347  0  0.103448  0.083167  0  0.991218  0
H  H13  1  0.49659971  0.92460394  0.93103894  1  0  0.066868  0  0.926379  0  0  0.083739  0  0.990358  0  0  0.083953  0  0.990376  0  0.045321  0  0.103437  0.083154  0  0.991221  0
H  H14  1  0.59188748  0.96582946  0.21293747  1  0  0.065598  0  0.944442  0  0  0.079953  0  1.012137  0  0  0.07923  0  1.013858  0  0.05816  0  0.101018  0.0803  0  1.011071  0
H  H15  1  0.40811190  0.03417057  0.78706440  1  0  0.065604  0  0.944435  0  0  0.079957  0  1.012133  0  0  0.079235  0  1.013852  0  0.05801  0  0.101018  0.080305  0  1.011065  0
H  H16  1  0.83915427  0.96525755  0.21706850  1  0  0.059816  0  0.947185  0  0  0.074376  0  1.015725  0  0  0.074147  0  1.016737  0  0.048473  0  0.100941  0.074604  0  1.014889  0
H  H17  1  0.16084610  0.03474248  0.78293233  1  0  0.059821  0  0.947195  0  0  0.074376  0  1.015741  0  0  0.074149  0  1.016753  0  0.048477  0  0.100946  0.074604  0  1.014905  0
H  H18  1  0.90769193  0.08810751  0.08404506  1  0  0.050413  0  0.948561  0  0  0.069374  0  1.010207  0  0  0.069674  0  1.010272  0  0.02201  0  0.095669  0.068833  0  1.010946  0
H  H19  1  0.09230879  0.91189147  0.91595534  1  0  0.050428  0  0.948579  0  0  0.069383  0  1.010231  0  0  0.069684  0  1.010298  0  0.022012  0  0.095681  0.068842  0  1.010967  0
H  H20  1  0.04768063  0.75957351  0.31578854  1  0  0.046861  0  0.914926  0  0  0.064452  0  0.974399  0  0  0.064319  0  0.974289  0  0.055652  0  0.100066  0.064516  0  0.974448  0
H  H21  1  0.95231640  0.24042756  0.68421000  1  0  0.046886  0  0.914969  0  0  0.064467  0  0.974444  0  0  0.064337  0  0.974332  0  0.055667  0  0.100074  0.064533  0  0.97449  0
H  H22  1  0.99147658  0.61970085  0.43921004  1  0  0.049634  0  0.95155  0  0  0.0615  0  1.020829  0  0  0.061224  0  1.021561  0  0.08026  0  0.09801  0.061619  0  1.020376  0
H  H23  1  0.00852180  0.38029918  0.56078954  1  0  0.049566  0  0.95165  0  0  0.061459  0  1.020888  0  0  0.061185  0  1.02162  0  0.080287  0  0.097988  0.061578  0  1.020435  0
H  H24  1  0.15747025  0.57479131  0.58609102  1  0  0.107906  0  0.966538  0  0  0.128822  0  1.029376  0  0  0.129157  0  1.030945  0  0.032315  0  0.088926  0.128465  0  1.028414  0
H  H25  1  0.84253006  0.42521184  0.41390669  1  0  0.107881  0  0.966557  0  0  0.128794  0  1.029408  0  0  0.12913  0  1.030974  0  0.032268  0  0.0889  0.128437  0  1.028445  0
H  H26  1  0.04627461  0.75093537  0.52785327  1  0  0.117794  0  0.934255  0  0  0.143886  0  0.985768  0  0  0.144456  0  0.986781  0  0.048691  0  0.097528  0.143354  0  0.985173  0
H  H27  1  0.95372441  0.24906570  0.47214568  1  0  0.117814  0  0.934199  0  0  0.143904  0  0.98572  0  0  0.144475  0  0.986733  0  0.048709  0  0.097528  0.143372  0  0.985127  0
H  H28  1  0.22379097  0.70819868  0.46290945  1  0  0.1065  0  0.987809  0  0  0.12101  0  1.060665  0  0  0.1219  0  1.061742  0  0.06472  0  0.087795  0.120235  0  1.060108  0
H  H29  1  0.77620735  0.29180448  0.53708701  1  0  0.106506  0  0.987783  0  0  0.121021  0  1.060633  0  0  0.12191  0  1.061712  0  0.064587  0  0.0878  0.120245  0  1.060076  0
H  H30  1  0.71061740  0.99384051  0.94767737  1  0  0.109574  0  0.960001  0  0  0.129121  0  1.023889  0  0  0.130286  0  1.023869  0  0.050886  0  0.089243  0.128018  0  1.024491  0
H  H31  1  0.28938531  0.00615847  0.05232345  1  0  0.109574  0  0.960051  0  0  0.12912  0  1.023935  0  0  0.130284  0  1.023915  0  0.050847  0  0.089252  0.128018  0  1.024536  0
H  H32  1  0.79935037  0.87888977  0.09174124  1  0  0.100733  0  0.960296  0  0  0.119624  0  1.026452  0  0  0.120638  0  1.027041  0  0.03769  0  0.083493  0.118661  0  1.026565  0
H  H33  1  0.20065035  0.12110922  0.90826000  1  0  0.100771  0  0.960267  0  0  0.119661  0  1.026421  0  0  0.120675  0  1.02701  0  0.037721  0  0.083514  0.118698  0  1.026535  0
H  H34  1  0.87703488  0.99550615  0.95848154  1  0  0.09378  0  0.969682  0  0  0.114595  0  1.033008  0  0  0.116216  0  1.032693  0  0.020225  0  0.082304  0.113148  0  1.033906  0
H  H35  1  0.12296684  0.00449283  0.04152033  1  0  0.093784  0  0.969685  0  0  0.114587  0  1.033024  0  0  0.116206  0  1.032708  0  0.020091  0  0.082296  0.113141  0  1.03392  0
H  H36  1  0.59372289  0.32594269  0.96576208  1  0  0.102954  0  0.958309  0  0  0.123442  0  1.018641  0  0  0.124917  0  1.018568  0  0.023305  0  0.08551  0.122313  0  1.018933  0
H  H37  1  0.40627883  0.67405629  0.03423895  1  0  0.102947  0  0.958313  0  0  0.123443  0  1.018642  0  0  0.124912  0  1.018575  0  0.023281  0  0.085503  0.122313  0  1.018935  0
H  H38  1  0.62678881  0.23613615  0.87169447  1  0  0.105514  0  0.958356  0  0  0.125199  0  1.022617  0  0  0.125821  0  1.023689  0  0.035059  0  0.087217  0.124765  0  1.021833  0
H  H39  1  0.37321226  0.76386179  0.12830635  1  0  0.105497  0  0.958372  0  0  0.125185  0  1.022634  0  0  0.12581  0  1.023701  0  0.035191  0  0.087213  0.124753  0  1.02185  0
H  H40  1  0.76733110  0.26713826  0.90050775  1  0  0.097667  0  0.970864  0  0  0.118329  0  1.035957  0  0  0.119162  0  1.037087  0  0.037638  0  0.0834  0.117638  0  1.035372  0
H  H41  1  0.23267097  0.73285968  0.09949286  1  0  0.097694  0  0.970845  0  0  0.118353  0  1.035944  0  0  0.119187  0  1.037072  0  0.037705  0  0.08341  0.117662  0  1.035357  0
H  H42  1  0.99714461  0.09964799  0.24567277  1  0  0.0911  0  0.940729  0  0  0.109234  0  1.007226  0  0  0.11013  0  1.00693  0  0.053124  0  0.093737  0.10835  0  1.007895  0
H  H43  1  0.00285611  0.90035100  0.75432847  1  0  0.091122  0  0.940757  0  0  0.109261  0  1.007241  0  0  0.110149  0  1.006953  0  0.053116  0  0.093756  0.108379  0  1.007907  0
H  H44  1  0.90558060  0.98772275  0.36828925  1  0  0.090186  0  0.955551  0  0  0.109335  0  1.020354  0  0  0.109911  0  1.020917  0  0.063729  0  0.097061  0.108891  0  1.019961  0
H  H45  1  0.09441877  0.01227728  0.63171096  1  0  0.09018  0  0.955563  0  0  0.109329  0  1.020362  0  0  0.109903  0  1.020924  0  0.063727  0  0.097061  0.108885  0  1.019968  0
H  H46  1  0.87289538  0.15515455  0.35848201  1  0  0.098657  0  0.947333  0  0  0.120256  0  1.006619  0  0  0.120945  0  1.007335  0  0.069781  0  0.101169  0.119811  0  1.005966  0
H  H47  1  0.12710435  0.84484443  0.64151944  1  0  0.098649  0  0.947324  0  0  0.120239  0  1.006617  0  0  0.120929  0  1.007331  0  0.069529  0  0.101166  0.119794  0  1.005964  0
H  H48  1  0.75196060  0.35635410  0.19917528  1  0  0.097021  0  0.935191  0  0  0.119404  0  0.993876  0  0  0.119782  0  0.994523  0  0.033224  0  0.103085  0.119152  0  0.993291  0
H  H49  1  0.24804241  0.64364696  0.80082200  1  0  0.097095  0  0.935192  0  0  0.1195  0  0.993832  0  0  0.119878  0  0.994481  0  0.033084  0  0.103123  0.119248  0  0.993247  0
H  H50  1  0.66108617  0.35928671  0.08938781  1  0  0.100324  0  0.951535  0  0  0.119233  0  1.012592  0  0  0.120409  0  1.0123  0  0.096471  0  0.101839  0.118307  0  1.013003  0
H  H51  1  0.33891719  0.64071332  0.91060988  1  0  0.100331  0  0.951561  0  0  0.119255  0  1.012589  0  0  0.120431  0  1.012297  0  0.096559  0  0.101836  0.11833  0  1.013  0
H  H52  1  0.84858822  0.32085812  0.06692398  1  0  0.084718  0  0.943316  0  0  0.105177  0  1.00899  0  0  0.105038  0  1.010924  0  0.056987  0  0.092962  0.105085  0  1.007996  0
H  H53  1  0.15141485  0.67913981  0.93307558  1  0  0.084709  0  0.943282  0  0  0.10516  0  1.008973  0  0  0.105027  0  1.010902  0  0.057023  0  0.092948  0.105068  0  1.00798  0
C  C54  1  0.28072124  0.41149957  0.25763299  1  0  0.255918  0  3.831758  0  0  0.232041  0  4.090167  0  0  0.246622  0  4.107582  0  0.66826  0  0.078147  0.222201  0  4.078147  0
C  C55  1  0.71927714  0.58850045  0.74236742  1  0  0.255892  0  3.831751  0  0  0.23199  0  4.090206  0  0  0.246574  0  4.107614  0  0.668113  0  0.078124  0.222151  0  4.078184  0
C  C56  1  0.16475433  0.51557047  0.28630945  1  0  0.133008  0  3.786138  0  0  0.122831  0  4.048523  0  0  0.126658  0  4.066641  0  0.43859  0  0.058334  0.119711  0  4.036657  0
C  C57  1  0.83524370  0.48443060  0.71368972  1  0  0.133011  0  3.786189  0  0  0.122838  0  4.048551  0  0  0.126684  0  4.066675  0  0.438446  0  0.058343  0.119723  0  4.036683  0
C  C58  1  0.03174463  0.56481942  0.24263006  1  0  -0.167647  0  3.791933  0  0  -0.192851  0  4.053353  0  0  -0.192901  0  4.072114  0  -0.073224  0  -0.108797  -0.192294  0  4.040809  0
C  C59  1  0.96825211  0.43517956  0.75737035  1  0  -0.167696  0  3.792013  0  0  -0.192905  0  4.053454  0  0  -0.192965  0  4.072188  0  -0.072471  0  -0.108805  -0.192348  0  4.04091  0
C  C60  1  0.00740644  0.51165268  0.16892122  1  0  -0.103279  0  3.853288  0  0  -0.119264  0  4.11531  0  0  -0.124651  0  4.138736  0  0.026563  0  -0.119159  -0.115461  0  4.099142  0
C  C61  1  0.99259200  0.48834422  0.83108064  1  0  -0.103182  0  3.853226  0  0  -0.119146  0  4.11523  0  0  -0.124544  0  4.138652  0  0.026527  0  -0.119097  -0.115343  0  4.099061  0
C  C62  1  0.11637068  0.41009276  0.14068550  1  0  -0.096399  0  3.792964  0  0  -0.120845  0  4.043519  0  0  -0.11957  0  4.066063  0  -0.10362  0  -0.097475  -0.121571  0  4.027798  0
C  C63  1  0.88362840  0.58990518  0.85931490  1  0  -0.096428  0  3.793087  0  0  -0.120888  0  4.043645  0  0  -0.119612  0  4.066188  0  -0.103616  0  -0.097488  -0.121613  0  4.027921  0
C  C64  1  0.25300476  0.35731842  0.18436031  1  0  -0.095847  0  3.801642  0  0  -0.077733  0  4.045351  0  0  -0.088839  0  4.071473  0  0.004569  0  -0.03758  -0.070154  0  4.027363  0
C  C65  1  0.74699461  0.64268161  0.81563989  1  0  -0.095752  0  3.801659  0  0  -0.077641  0  4.045381  0  0  -0.08875  0  4.071506  0  0.004551  0  -0.03756  -0.070064  0  4.027394  0
C  C66  1  0.35489419  0.25033788  0.14786638  1  0  0.181989  0  3.69759  0  0  0.132866  0  3.958432  0  0  0.150123  0  3.968418  0  0.635452  0  0.082295  0.121141  0  3.951609  0
C  C67  1  0.64510554  0.74966110  0.85213424  1  0  0.181952  0  3.697599  0  0  0.132829  0  3.958444  0  0  0.150087  0  3.968431  0  0.635469  0  0.082289  0.121105  0  3.951621  0
C  C68  1  0.56500298  0.07204707  0.13461193  1  0  -0.035314  0  3.665768  0  0  -0.09262  0  3.917457  0  0  -0.089314  0  3.933189  0  0.295848  0  -0.068289  -0.094451  0  3.906761  0
C  C69  1  0.43499604  0.92795399  0.86538870  1  0  -0.035317  0  3.665791  0  0  -0.092642  0  3.917467  0  0  -0.089335  0  3.933201  0  0.29593  0  -0.06829  -0.094472  0  3.906769  0
C  C70  1  0.70331535  0.09839667  0.06097208  1  0  0.167021  0  3.556422  0  0  0.202217  0  3.785897  0  0  0.201295  0  3.805934  0  0.054377  0  -0.016169  0.202937  0  3.771827  0
C  C71  1  0.29668572  0.90160127  0.93902957  1  0  0.167002  0  3.556499  0  0  0.202278  0  3.785842  0  0  0.201356  0  3.805876  0  0.054459  0  -0.016179  0.202996  0  3.771773  0
C  C72  1  0.81082003  0.07522076  0.14620328  1  0  -0.062821  0  3.578096  0  0  -0.116297  0  3.816068  0  0  -0.113521  0  3.830586  0  0.236673  0  -0.06924  -0.117919  0  3.805772  0
C  C73  1  0.18918034  0.92477927  0.85379755  1  0  -0.062858  0  3.578116  0  0  -0.116318  0  3.816072  0  0  -0.113548  0  3.830594  0  0.236676  0  -0.069259  -0.117944  0  3.805789  0
C  C74  1  0.08108369  0.65914802  0.40052052  1  0  0.155388  0  3.610178  0  0  0.100639  0  3.877932  0  0  0.108989  0  3.884286  0  0.355877  0  -0.068368  0.094908  0  3.873399  0
C  C75  1  0.91891469  0.34085201  0.59947990  1  0  0.155401  0  3.610213  0  0  0.100642  0  3.877925  0  0  0.109006  0  3.884288  0  0.355881  0  -0.068356  0.094917  0  3.873391  0
C  C76  1  0.13150162  0.67355430  0.49969569  1  0  -0.338546  0  3.713053  0  0  -0.418221  0  3.960346  0  0  -0.42094  0  3.970425  0  -0.062109  0  -0.25481  -0.416002  0  3.953365  0
C  C77  1  0.86849605  0.32644781  0.50030306  1  0  -0.338565  0  3.712951  0  0  -0.418259  0  3.960264  0  0  -0.420974  0  3.970334  0  -0.061979  0  -0.254807  -0.416038  0  3.953282  0
C  C78  1  0.77699749  0.98421824  0.01268822  1  0  -0.345264  0  3.669726  0  0  -0.425125  0  3.904588  0  0  -0.428127  0  3.915772  0  -0.090746  0  -0.243563  -0.422513  0  3.897408  0
C  C79  1  0.22300458  0.01577970  0.98731322  1  0  -0.345297  0  3.66979  0  0  -0.425164  0  3.904629  0  0  -0.428169  0  3.915828  0  -0.09058  0  -0.243582  -0.422556  0  3.897459  0
C  C80  1  0.67069102  0.24042234  0.94379094  1  0  -0.334838  0  3.648478  0  0  -0.417498  0  3.886706  0  0  -0.420133  0  3.897975  0  -0.067717  0  -0.252063  -0.415409  0  3.878758  0
C  C81  1  0.32931105  0.75957560  0.05620966  1  0  -0.334826  0  3.648468  0  0  -0.417525  0  3.886694  0  0  -0.420148  0  3.897957  0  -0.067936  0  -0.252054  -0.415433  0  3.878744  0
C  C82  1  0.89572389  0.09658180  0.30224166  1  0  -0.193141  0  3.678524  0  0  -0.286752  0  3.927835  0  0  -0.284595  0  3.938756  0  0.191743  0  -0.152419  -0.287874  0  3.919985  0
C  C83  1  0.10427513  0.90341927  0.69775896  1  0  -0.193151  0  3.678508  0  0  -0.286748  0  3.927858  0  0  -0.284582  0  3.938783  0  0.191988  0  -0.152434  -0.287871  0  3.920007  0
C  C84  1  0.75896913  0.30672945  0.13857517  1  0  -0.172604  0  3.644402  0  0  -0.265217  0  3.892045  0  0  -0.262901  0  3.903063  0  0.197752  0  -0.149892  -0.266543  0  3.884166  0
C  C85  1  0.24103423  0.69327058  0.86142335  1  0  -0.172708  0  3.64447  0  0  -0.265322  0  3.892125  0  0  -0.26301  0  3.903141  0  0.197789  0  -0.149924  -0.266648  0  3.884246  0
N  N86  1  0.47979593  0.17092799  0.18788044  1  0  -0.356575  0  3.241113  0  0  -0.27185  0  3.518557  0  0  -0.293952  0  3.535523  0  -1.216515  0  -0.367362  -0.256923  0  3.506851  0
N  N87  1  0.52020444  0.82907203  0.81211956  1  0  -0.356542  0  3.241094  0  0  -0.271818  0  3.518542  0  0  -0.293923  0  3.535507  0  -1.216491  0  -0.367349  -0.256893  0  3.506837  0
N  N88  1  0.77760689  0.15759352  0.22008811  1  0  -0.166748  0  3.2827  0  0  -0.059626  0  3.523033  0  0  -0.077675  0  3.546154  0  -1.005446  0  -0.355802  -0.046751  0  3.506398  0
N  N89  1  0.22239412  0.84240755  0.77991126  1  0  -0.166668  0  3.282663  0  0  -0.059628  0  3.523077  0  0  -0.077679  0  3.546205  0  -1.005502  0  -0.355781  -0.046754  0  3.506441  0
N  N90  1  0.66082859  0.90463823  0.47969436  1  0  -0.542772  0  2.643361  0  0  -0.5113  0  2.932057  0  0  -0.530824  0  2.939037  0  -0.229364  0  -0.287601  -0.498202  0  2.927821  0
N  N91  1  0.33917207  0.09536388  0.52030628  1  0  -0.542707  0  2.643375  0  0  -0.511235  0  2.932082  0  0  -0.530759  0  2.939063  0  -0.229316  0  -0.287582  -0.498138  0  2.927845  0
N  N92  1  0.69535460  0.81958856  0.43944333  1  0  0.392731  0  4.258833  0  0  0.423769  0  4.538837  0  0  0.44022  0  4.568958  0  -0.353553  0  0.070517  0.412699  0  4.518786  0
N  N93  1  0.30464542  0.18041251  0.56055709  1  0  0.392626  0  4.258908  0  0  0.42366  0  4.538927  0  0  0.44011  0  4.569049  0  -0.353497  0  0.070453  0.41259  0  4.518874  0
N  N94  1  0.72802984  0.73186406  0.40410418  1  0  -0.463546  0  2.521623  0  0  -0.450693  0  2.787683  0  0  -0.463304  0  2.794826  0  -0.131877  0  -0.236876  -0.442098  0  2.783108  0
N  N95  1  0.27197083  0.26813805  0.59589645  1  0  -0.463484  0  2.521653  0  0  -0.450625  0  2.787701  0  0  -0.463237  0  2.794848  0  -0.131996  0  -0.236825  -0.442028  0  2.783125  0
N  N96  1  0.61237833  0.20033647  0.49518037  1  0  -0.654208  0  2.810862  0  0  -0.602622  0  3.121635  0  0  -0.631427  0  3.129025  0  -0.41779  0  -0.354402  -0.582776  0  3.11623  0
N  N97  1  0.38762099  0.79966668  0.50481839  1  0  -0.654176  0  2.810873  0  0  -0.602612  0  3.121624  0  0  -0.63142  0  3.129013  0  -0.417754  0  -0.354384  -0.582765  0  3.116217  0
N  N98  1  0.66323376  0.11869008  0.59734433  1  0  0.407147  0  4.228267  0  0  0.440006  0  4.507424  0  0  0.456268  0  4.536444  0  -0.270192  0  0.085496  0.429098  0  4.487558  0
N  N99  1  0.33676556  0.88131308  0.40265526  1  0  0.407167  0  4.228264  0  0  0.440063  0  4.50737  0  0  0.456324  0  4.536387  0  -0.27016  0  0.085544  0.429154  0  4.487505  0
N  N100  1  0.71486883  0.04352672  0.69442567  1  0  -0.349832  0  2.361048  0  0  -0.347854  0  2.571704  0  0  -0.353112  0  2.581673  0  0.004564  0  -0.172297  -0.34401  0  2.565223  0
N  N101  1  0.28512914  0.95647748  0.30557456  1  0  -0.349867  0  2.361072  0  0  -0.347905  0  2.57172  0  0  -0.353163  0  2.581688  0  0.004555  0  -0.172335  -0.34406  0  2.565239  0
N  N102  1  0.54077855  0.57251202  0.36692335  1  0  -0.652805  0  2.817093  0  0  -0.602489  0  3.136729  0  0  -0.631824  0  3.142296  0  -0.359545  0  -0.347944  -0.582372  0  3.132902  0
N  N103  1  0.45921842  0.42749218  0.63307375  1  0  -0.652827  0  2.817154  0  0  -0.602539  0  3.136821  0  0  -0.631875  0  3.142391  0  -0.359526  0  -0.348002  -0.582421  0  3.132993  0
N  N104  1  0.60096719  0.61622138  0.26277250  1  0  0.420473  0  4.225241  0  0  0.451439  0  4.503439  0  0  0.46843  0  4.532509  0  -0.336188  0  0.094562  0.439973  0  4.483799  0
N  N105  1  0.39903347  0.38378073  0.73722562  1  0  0.420522  0  4.225239  0  0  0.451484  0  4.503429  0  0  0.468473  0  4.532504  0  -0.336276  0  0.094629  0.440018  0  4.48379  0
N  N106  1  0.65797182  0.65965313  0.16264024  1  0  -0.349529  0  2.395873  0  0  -0.34371  0  2.61506  0  0  -0.350956  0  2.624552  0  0.028593  0  -0.159188  -0.338655  0  2.60905  0
N  N107  1  0.34203020  0.34034793  0.83735892  1  0  -0.349568  0  2.39585  0  0  -0.343731  0  2.615035  0  0  -0.350968  0  2.624523  0  0.028664  0  -0.159204  -0.338675  0  2.609027  0
O  O108  1  0.40650756  0.37195013  0.29750264  1  0  -0.632273  0  2.135349  0  0  -0.543292  0  2.39487  0  0  -0.574431  0  2.390219  0  -1.146799  0  -0.356188  -0.521083  0  2.397198  0
O  O109  1  0.59349011  0.62805198  0.70249695  1  0  -0.632272  0  2.135331  0  0  -0.543277  0  2.394864  0  0  -0.574413  0  2.390207  0  -1.146664  0  -0.356171  -0.521066  0  2.397187  0
O  O110  1  0.19670544  0.56247229  0.35936151  1  0  -0.321775  0  2.418648  0  0  -0.229933  0  2.656463  0  0  -0.250574  0  2.660195  0  -1.084971  0  -0.192499  -0.215447  0  2.653858  0
O  O111  1  0.80329259  0.43752878  0.64063766  1  0  -0.321732  0  2.418602  0  0  -0.229831  0  2.656357  0  0  -0.250533  0  2.660139  0  -1.084892  0  -0.192492  -0.215362  0  2.653763  0
