# generated using pymatgen
data_Zn3P2H22C28(N2O5)2
_symmetry_space_group_name_H-M   'P 1'
_cell_length_a   10.33420341
_cell_length_b   12.33842775
_cell_length_c   12.88950835
_cell_angle_alpha   72.20035892
_cell_angle_beta   77.35988008
_cell_angle_gamma   82.65802719
_symmetry_Int_Tables_number   1
_chemical_formula_structural   Zn3P2H22C28(N2O5)2
_chemical_formula_sum   'Zn6 P4 H44 C56 N8 O20'
_cell_volume   1523.63067363
_cell_formula_units_Z   2
loop_
 _symmetry_equiv_pos_site_id
 _symmetry_equiv_pos_as_xyz
  1  'x, y, z'
loop_
 _atom_site_type_symbol
 _atom_site_label
 _atom_site_symmetry_multiplicity
 _atom_site_fract_x
 _atom_site_fract_y
 _atom_site_fract_z
 _atom_site_occupancy
 _atom_site_hle17_bader_spin_density
 _atom_site_hle17_ddec_charge
 _atom_site_hle17_ddec_spin_density
 _atom_site_hle17_ddec_sum_bond_order
 _atom_site_hle17_magmom
 _atom_site_hse06_10hf_bader_spin_density
 _atom_site_hse06_10hf_ddec_charge
 _atom_site_hse06_10hf_ddec_spin_density
 _atom_site_hse06_10hf_ddec_sum_bond_order
 _atom_site_hse06_10hf_magmom
 _atom_site_hse06_bader_spin_density
 _atom_site_hse06_ddec_charge
 _atom_site_hse06_ddec_spin_density
 _atom_site_hse06_ddec_sum_bond_order
 _atom_site_hse06_magmom
 _atom_site_pbe_bader_spin_density
 _atom_site_pbe_cm5_charge
 _atom_site_pbe_ddec_charge
 _atom_site_pbe_ddec_spin_density
 _atom_site_pbe_ddec_sum_bond_order
 _atom_site_pbe_magmom
Zn  Zn0  1  0.02196105  0.83999717  0.98712845  1  0  1.17386  0  1.782488  0  0  1.001556  0  2.260766  0  0  1.045176  0  2.200926  0  0  0.726068  0.970893  0  2.301963  0
Zn  Zn1  1  0.97803923  0.16000341  0.01287194  1  0  1.173801  0  1.782557  0  0  1.00148  0  2.26083  0  0  1.045096  0  2.200993  0  0  0.726001  0.970768  0  2.302032  0
Zn  Zn2  1  0.94718741  0.04852808  0.34771536  1  0  1.230293  0  1.79285  0  0  1.066728  0  2.277693  0  0  1.110249  0  2.212583  0  0  0.718358  1.035736  0  2.323374  0
Zn  Zn3  1  0.05281199  0.95147079  0.65228645  1  0  1.230311  0  1.79282  0  0  1.066743  0  2.277659  0  0  1.110267  0  2.212546  0  0  0.718357  1.03575  0  2.323338  0
Zn  Zn4  1  0.86467934  0.79150332  0.36347124  1  0  1.126291  0  1.818802  0  0  0.950977  0  2.294809  0  0  0.996534  0  2.234916  0  0  0.705923  0.918317  0  2.336734  0
Zn  Zn5  1  0.13531901  0.20849641  0.63652896  1  0  1.126409  0  1.818715  0  0  0.951067  0  2.294704  0  0  0.996631  0  2.234815  0  0  0.705972  0.918413  0  2.33663  0
P  P6  1  0.82503361  0.87909410  0.57665678  1  0  1.460789  0  4.920524  0  0  1.304012  0  5.407638  0  0  1.354632  0  5.369484  0  0  0.337511  1.268246  0  5.433537  0
P  P7  1  0.17496683  0.12090392  0.42334277  1  0  1.460757  0  4.920481  0  0  1.303942  0  5.407622  0  0  1.354559  0  5.369471  0  0  0.337525  1.268176  0  5.433524  0
P  P8  1  0.08841933  0.91630455  0.17360864  1  0  1.487981  0  4.868408  0  0  1.328911  0  5.349944  0  0  1.379519  0  5.312414  0  0  0.350577  1.293723  0  5.375217  0
P  P9  1  0.91157889  0.08369689  0.82639108  1  0  1.487959  0  4.868422  0  0  1.328868  0  5.34998  0  0  1.379487  0  5.312441  0  0  0.350543  1.293681  0  5.375246  0
H  H10  1  0.58259208  0.88330210  0.49730087  1  0  0.101357  0  0.978635  0  0  0.109692  0  1.043914  0  0  0.113008  0  1.042158  0  0  0.101484  0.107229  0  1.045324  0
H  H11  1  0.41740527  0.11669765  0.50269872  1  0  0.101408  0  0.978597  0  0  0.109724  0  1.043887  0  0  0.113057  0  1.042103  0  0  0.101499  0.107257  0  1.045303  0
H  H12  1  0.34502579  0.87736374  0.58964276  1  0  0.098588  0  0.967584  0  0  0.108897  0  1.030364  0  0  0.111679  0  1.0289  0  0  0.100644  0.106713  0  1.031638  0
H  H13  1  0.65497133  0.12263942  0.41035744  1  0  0.098593  0  0.967553  0  0  0.108895  0  1.030345  0  0  0.111682  0  1.028866  0  0  0.100657  0.10672  0  1.031611  0
H  H14  1  0.45525654  0.84221922  0.90182954  1  0  0.096503  0  0.966173  0  0  0.106249  0  1.028757  0  0  0.1092  0  1.026961  0  0  0.103272  0.104187  0  1.030001  0
H  H15  1  0.54474577  0.15778050  0.09816918  1  0  0.096495  0  0.966128  0  0  0.106239  0  1.028718  0  0  0.109189  0  1.026924  0  0  0.103266  0.104177  0  1.029962  0
H  H16  1  0.69265469  0.85766991  0.80844004  1  0  0.093176  0  0.964017  0  0  0.103204  0  1.025975  0  0  0.105531  0  1.025945  0  0  0.101232  0.101346  0  1.026225  0
H  H17  1  0.30734563  0.14232983  0.19155670  1  0  0.09316  0  0.964014  0  0  0.103201  0  1.02596  0  0  0.105529  0  1.025929  0  0  0.101239  0.101352  0  1.026199  0
H  H18  1  0.57448907  0.87773215  0.05913875  1  0  0.103998  0  0.946172  0  0  0.114455  0  1.005421  0  0  0.117969  0  1.00346  0  0  0.10473  0.111659  0  1.007226  0
H  H19  1  0.42550822  0.12226846  0.94085905  1  0  0.104024  0  0.946157  0  0  0.114497  0  1.005392  0  0  0.118014  0  1.003434  0  0  0.10473  0.111699  0  1.007203  0
H  H20  1  0.33899608  0.91455330  0.02816216  1  0  0.102228  0  0.957905  0  0  0.11165  0  1.021189  0  0  0.114951  0  1.019085  0  0  0.105315  0.109042  0  1.023084  0
H  H21  1  0.66099941  0.08544474  0.97183981  1  0  0.1022  0  0.957888  0  0  0.111615  0  1.021193  0  0  0.114909  0  1.019103  0  0  0.105312  0.10901  0  1.023073  0
H  H22  1  0.20021100  0.86431521  0.37916650  1  0  0.092049  0  0.968064  0  0  0.101267  0  1.033886  0  0  0.10447  0  1.031805  0  0  0.096869  0.098599  0  1.035929  0
H  H23  1  0.79978828  0.13568537  0.62083484  1  0  0.092043  0  0.968048  0  0  0.101228  0  1.033909  0  0  0.10443  0  1.031829  0  0  0.096849  0.09856  0  1.035947  0
H  H24  1  0.43433649  0.83124161  0.40740133  1  0  0.096507  0  0.9643  0  0  0.107755  0  1.026868  0  0  0.110463  0  1.025667  0  0  0.102016  0.105601  0  1.028048  0
H  H25  1  0.56566372  0.16875982  0.59259804  1  0  0.096496  0  0.964292  0  0  0.107741  0  1.026868  0  0  0.11045  0  1.025662  0  0  0.102008  0.105583  0  1.028053  0
H  H26  1  0.95016956  0.59872438  0.15995853  1  0  0.096587  0  0.969163  0  0  0.102907  0  1.039548  0  0  0.104528  0  1.038225  0  0  0.13559  0.101678  0  1.040507  0
H  H27  1  0.04983573  0.40127533  0.84003889  1  0  0.096597  0  0.969117  0  0  0.102925  0  1.039503  0  0  0.10455  0  1.038174  0  0  0.135584  0.101701  0  1.040458  0
H  H28  1  0.87242099  0.74809018  0.83646351  1  0  0.126884  0  0.981321  0  0  0.133102  0  1.043166  0  0  0.13625  0  1.041059  0  0  0.120192  0.130796  0  1.044724  0
H  H29  1  0.12757823  0.25191126  0.16353759  1  0  0.126934  0  0.981248  0  0  0.133109  0  1.043138  0  0  0.136255  0  1.041033  0  0  0.120191  0.130809  0  1.044701  0
H  H30  1  0.75876226  0.53757536  0.92604072  1  0  0.110968  0  0.953323  0  0  0.124939  0  1.008093  0  0  0.127597  0  1.00691  0  0  0.124445  0.123062  0  1.00901  0
H  H31  1  0.24123708  0.46242437  0.07396164  1  0  0.110935  0  0.95341  0  0  0.124914  0  1.008169  0  0  0.127571  0  1.006987  0  0  0.124418  0.123039  0  1.009085  0
H  H32  1  0.89421803  0.38568397  0.17932749  1  0  0.087424  0  0.955553  0  0  0.097381  0  1.026642  0  0  0.098097  0  1.026851  0  0  0.1139  0.096762  0  1.026677  0
H  H33  1  0.10578329  0.61431575  0.82067374  1  0  0.087455  0  0.955619  0  0  0.097422  0  1.026665  0  0  0.098125  0  1.026905  0  0  0.113925  0.096805  0  1.0267  0
H  H34  1  0.79694635  0.37145048  0.08939043  1  0  0.094015  0  0.925993  0  0  0.109749  0  0.985944  0  0  0.110447  0  0.985601  0  0  0.119339  0.109172  0  0.986297  0
H  H35  1  0.20305690  0.62855008  0.91061021  1  0  0.094037  0  0.925961  0  0  0.109742  0  0.985933  0  0  0.11044  0  0.985587  0  0  0.119335  0.109166  0  0.986282  0
H  H36  1  0.55919935  0.48111560  0.10444599  1  0  0.08566  0  0.945492  0  0  0.099188  0  1.002392  0  0  0.102103  0  1.000924  0  0  0.100133  0.09716  0  1.003386  0
H  H37  1  0.44080010  0.51888243  0.89555373  1  0  0.085666  0  0.945529  0  0  0.09922  0  1.002402  0  0  0.102135  0  1.000932  0  0  0.100135  0.097174  0  1.003412  0
H  H38  1  0.34751032  0.47625609  0.24031554  1  0  0.081725  0  0.949125  0  0  0.09599  0  1.002846  0  0  0.098375  0  1.00222  0  0  0.100754  0.093884  0  1.004118  0
H  H39  1  0.65248914  0.52374193  0.75968651  1  0  0.081701  0  0.949117  0  0  0.095973  0  1.002833  0  0  0.098357  0  1.002207  0  0  0.100747  0.093864  0  1.004105  0
H  H40  1  0.35064982  0.41416271  0.44285084  1  0  0.085346  0  0.960035  0  0  0.09581  0  1.022202  0  0  0.09831  0  1.021169  0  0  0.099845  0.0942  0  1.022708  0
H  H41  1  0.64935150  0.58583701  0.55715038  1  0  0.085327  0  0.96005  0  0  0.095807  0  1.022201  0  0  0.098308  0  1.021166  0  0  0.099834  0.094193  0  1.022708  0
H  H42  1  0.56566026  0.36407348  0.50702807  1  0  0.089606  0  0.964584  0  0  0.099118  0  1.029861  0  0  0.101446  0  1.029743  0  0  0.100808  0.097517  0  1.029933  0
H  H43  1  0.43434007  0.63592625  0.49297255  1  0  0.089621  0  0.964579  0  0  0.099132  0  1.029854  0  0  0.10146  0  1.029736  0  0  0.100818  0.097526  0  1.02993  0
H  H44  1  0.87849901  0.29858577  0.34578460  1  0  0.107171  0  0.92999  0  0  0.120803  0  0.992895  0  0  0.12246  0  0.990941  0  0  0.120466  0.119406  0  0.994658  0
H  H45  1  0.12150126  0.70141481  0.65421578  1  0  0.107161  0  0.92993  0  0  0.120796  0  0.99283  0  0  0.122453  0  0.990875  0  0  0.12046  0.119398  0  0.994593  0
H  H46  1  0.79037449  0.31167512  0.47574293  1  0  0.089535  0  0.915301  0  0  0.107876  0  0.972543  0  0  0.108061  0  0.972383  0  0  0.116398  0.107694  0  0.972763  0
H  H47  1  0.20962677  0.68832546  0.52425728  1  0  0.089517  0  0.915324  0  0  0.10786  0  0.972555  0  0  0.108046  0  0.972396  0  0  0.116405  0.107677  0  0.972774  0
H  H48  1  0.72661284  0.58676551  0.37075496  1  0  0.103975  0  0.946647  0  0  0.113801  0  1.007432  0  0  0.115961  0  1.005606  0  0  0.140825  0.112155  0  1.008855  0
H  H49  1  0.27338643  0.41323508  0.62924405  1  0  0.10398  0  0.946673  0  0  0.113807  0  1.007454  0  0  0.115966  0  1.005626  0  0  0.140822  0.112159  0  1.008878  0
H  H50  1  0.08752143  0.38092107  0.36871880  1  0  0.144877  0  0.967842  0  0  0.15423  0  1.023968  0  0  0.157895  0  1.021697  0  0  0.126407  0.151397  0  1.025895  0
H  H51  1  0.91247884  0.61907951  0.63128159  1  0  0.144859  0  0.967831  0  0  0.154216  0  1.023957  0  0  0.157881  0  1.021687  0  0  0.126395  0.151383  0  1.025882  0
H  H52  1  0.13755516  0.60781008  0.34108891  1  0  0.108543  0  0.936474  0  0  0.122539  0  0.988276  0  0  0.124644  0  0.988045  0  0  0.122731  0.120675  0  0.989157  0
H  H53  1  0.86244307  0.39219136  0.65891081  1  0  0.108546  0  0.93646  0  0  0.122524  0  0.988284  0  0  0.124629  0  0.988052  0  0  0.122724  0.120658  0  0.989162  0
C  C54  1  0.65340337  0.87016847  0.64707221  1  0  -0.21537  0  3.744753  0  0  -0.173402  0  3.978193  0  0  -0.181792  0  4.000963  0  0  -0.018842  -0.167248  0  3.96249  0
C  C55  1  0.34660012  0.12982868  0.35293016  1  0  -0.21516  0  3.744537  0  0  -0.173183  0  3.977952  0  0  -0.181568  0  4.000726  0  0  -0.018793  -0.167031  0  3.962252  0
C  C56  1  0.55480189  0.87589378  0.58568985  1  0  -0.045458  0  3.731534  0  0  -0.066411  0  3.976419  0  0  -0.068549  0  3.998551  0  0  -0.081349  -0.06507  0  3.961448  0
C  C57  1  0.44519650  0.12410511  0.41430748  1  0  -0.045615  0  3.731685  0  0  -0.066557  0  3.976565  0  0  -0.068706  0  3.998695  0  0  -0.081379  -0.065207  0  3.961594  0
C  C58  1  0.42186623  0.87063793  0.63760250  1  0  -0.061502  0  3.715222  0  0  -0.085772  0  3.964308  0  0  -0.085855  0  3.985806  0  0  -0.0818  -0.085363  0  3.949618  0
C  C59  1  0.57813212  0.12936181  0.36239770  1  0  -0.061413  0  3.71515  0  0  -0.085675  0  3.964213  0  0  -0.085755  0  3.985716  0  0  -0.081767  -0.085272  0  3.949519  0
C  C60  1  0.38562261  0.85783308  0.75189768  1  0  -0.081282  0  3.773329  0  0  -0.056974  0  4.005012  0  0  -0.065958  0  4.029516  0  0  -0.022257  -0.050627  0  3.988051  0
C  C61  1  0.61437964  0.14216750  0.24810158  1  0  -0.081389  0  3.77342  0  0  -0.057081  0  4.005104  0  0  -0.066069  0  4.029608  0  0  -0.022293  -0.050738  0  3.988154  0
C  C62  1  0.48417498  0.85212699  0.81320867  1  0  -0.065681  0  3.730231  0  0  -0.090723  0  3.980354  0  0  -0.090754  0  4.001298  0  0  -0.085241  -0.090523  0  3.965792  0
C  C63  1  0.51582449  0.14787103  0.18679416  1  0  -0.065669  0  3.73047  0  0  -0.090699  0  3.980575  0  0  -0.09073  0  4.001523  0  0  -0.085261  -0.090499  0  3.966017  0
C  C64  1  0.61699104  0.85908993  0.76105070  1  0  -0.05136  0  3.767444  0  0  -0.073459  0  4.013153  0  0  -0.075679  0  4.037067  0  0  -0.085178  -0.071631  0  3.996737  0
C  C65  1  0.38301138  0.14090809  0.23894539  1  0  -0.051428  0  3.767471  0  0  -0.073551  0  4.013191  0  0  -0.075773  0  4.037097  0  0  -0.085199  -0.071729  0  3.996773  0
C  C66  1  0.24397067  0.84780067  0.80842082  1  0  0.669137  0  3.877532  0  0  0.617801  0  4.163732  0  0  0.653029  0  4.155289  0  0  0.22041  0.593486  0  4.169123  0
C  C67  1  0.75602861  0.15219991  0.19158051  1  0  0.669177  0  3.877486  0  0  0.617833  0  4.163692  0  0  0.653062  0  4.15525  0  0  0.22038  0.593515  0  4.169096  0
C  C68  1  0.65988978  0.83279939  0.25033033  1  0  0.620389  0  3.948233  0  0  0.575293  0  4.237997  0  0  0.608159  0  4.231686  0  0  0.192505  0.553306  0  4.240922  0
C  C69  1  0.34011049  0.16720120  0.74966695  1  0  0.620349  0  3.948237  0  0  0.57524  0  4.238016  0  0  0.608104  0  4.231709  0  0  0.192528  0.553253  0  4.240937  0
C  C70  1  0.51793373  0.85000998  0.23529284  1  0  -0.052181  0  3.755895  0  0  -0.027341  0  3.981772  0  0  -0.034125  0  4.004769  0  0  -0.017801  -0.02297  0  3.966282  0
C  C71  1  0.48206654  0.14999060  0.76470677  1  0  -0.052169  0  3.755957  0  0  -0.027328  0  3.981838  0  0  -0.034111  0  4.004838  0  0  -0.017812  -0.022957  0  3.966345  0
C  C72  1  0.49088618  0.87375064  0.12822178  1  0  -0.076585  0  3.727934  0  0  -0.097679  0  3.972451  0  0  -0.098849  0  3.993289  0  0  -0.083471  -0.096964  0  3.959053  0
C  C73  1  0.50910907  0.12625082  0.87177846  1  0  -0.076686  0  3.728042  0  0  -0.097804  0  3.972559  0  0  -0.09898  0  3.993402  0  0  -0.083523  -0.097088  0  3.959164  0
C  C74  1  0.36051583  0.89378959  0.11145427  1  0  -0.046932  0  3.74129  0  0  -0.068487  0  3.984074  0  0  -0.069701  0  4.005359  0  0  -0.081385  -0.067887  0  3.970336  0
C  C75  1  0.63947843  0.10621188  0.88854693  1  0  -0.046717  0  3.741281  0  0  -0.068262  0  3.984037  0  0  -0.069475  0  4.005322  0  0  -0.081275  -0.067657  0  3.970299  0
C  C76  1  0.25455537  0.88867323  0.20207600  1  0  -0.233295  0  3.771376  0  0  -0.189729  0  4.005349  0  0  -0.198605  0  4.028595  0  0  -0.0254  -0.18365  0  3.989475  0
C  C77  1  0.74544374  0.11132990  0.79792618  1  0  -0.233415  0  3.771473  0  0  -0.189848  0  4.005452  0  0  -0.198721  0  4.028689  0  0  -0.025443  -0.183774  0  3.989583  0
C  C78  1  0.28136077  0.86434209  0.30904001  1  0  -0.065578  0  3.78401  0  0  -0.088859  0  4.033947  0  0  -0.090665  0  4.05638  0  0  -0.093571  -0.087514  0  4.019045  0
C  C79  1  0.71863740  0.13566020  0.69096180  1  0  -0.065571  0  3.784022  0  0  -0.088833  0  4.033983  0  0  -0.09064  0  4.056416  0  0  -0.093561  -0.087488  0  4.019078  0
C  C80  1  0.41249186  0.84597853  0.32517759  1  0  -0.076332  0  3.736491  0  0  -0.100216  0  3.986793  0  0  -0.100427  0  4.007406  0  0  -0.089859  -0.09993  0  3.973133  0
C  C81  1  0.58750749  0.15402120  0.67482398  1  0  -0.076287  0  3.736545  0  0  -0.100163  0  3.986824  0  0  -0.100373  0  4.00744  0  0  -0.089825  -0.099876  0  3.973164  0
C  C82  1  0.91330632  0.61146798  0.08435485  1  0  0.180788  0  3.633121  0  0  0.11752  0  3.899786  0  0  0.13255  0  3.911725  0  0  0.150787  0.10786  0  3.891222  0
C  C83  1  0.08669804  0.38853088  0.91564532  1  0  0.180757  0  3.633127  0  0  0.117473  0  3.899775  0  0  0.132501  0  3.911715  0  0  0.150801  0.107816  0  3.891203  0
C  C84  1  0.86965522  0.68614156  0.91751837  1  0  0.006955  0  3.718642  0  0  -0.024349  0  3.981461  0  0  -0.022284  0  4.000774  0  0  0.002974  -0.025666  0  3.968351  0
C  C85  1  0.13034500  0.31385987  0.08248256  1  0  0.006898  0  3.718691  0  0  -0.024393  0  3.981527  0  0  -0.022331  0  4.000845  0  0  0.002994  -0.025718  0  3.968432  0
C  C86  1  0.81360549  0.58275207  0.96054757  1  0  -0.080493  0  3.694889  0  0  -0.122575  0  3.954041  0  0  -0.122548  0  3.974482  0  0  -0.001638  -0.122554  0  3.940248  0
C  C87  1  0.18639572  0.41724936  0.03945318  1  0  -0.080428  0  3.694947  0  0  -0.122497  0  3.954067  0  0  -0.122471  0  3.97451  0  0  -0.001585  -0.122473  0  3.940278  0
C  C88  1  0.80795894  0.42387763  0.14164535  1  0  -0.045385  0  3.648967  0  0  -0.113083  0  3.899916  0  0  -0.108315  0  3.910511  0  0  -0.050387  -0.116135  0  3.892591  0
C  C89  1  0.19204133  0.57612295  0.85835427  1  0  -0.04545  0  3.649018  0  0  -0.113123  0  3.899981  0  0  -0.108353  0  3.910567  0  0  -0.050399  -0.116173  0  3.892652  0
C  C90  1  0.68281721  0.42519552  0.22804542  1  0  0.03034  0  3.703757  0  0  0.040677  0  3.948843  0  0  0.0392  0  3.973801  0  0  -0.011497  0.041836  0  3.931673  0
C  C91  1  0.31718312  0.57480421  0.77195443  1  0  0.030313  0  3.703554  0  0  0.040664  0  3.948627  0  0  0.039186  0  3.973581  0  0  -0.011503  0.041823  0  3.931452  0
C  C92  1  0.56074466  0.45598487  0.19311766  1  0  -0.102661  0  3.749675  0  0  -0.123638  0  3.999059  0  0  -0.126219  0  4.021007  0  0  -0.087317  -0.121698  0  3.983735  0
C  C93  1  0.43925690  0.54401144  0.80688296  1  0  -0.1026  0  3.749485  0  0  -0.123607  0  3.998869  0  0  -0.12619  0  4.020817  0  0  -0.087263  -0.12166  0  3.98355  0
C  C94  1  0.44162848  0.45352317  0.26927641  1  0  -0.05642  0  3.779021  0  0  -0.069299  0  4.024216  0  0  -0.071184  0  4.046519  0  0  -0.085246  -0.067877  0  4.009521  0
C  C95  1  0.55837203  0.54647399  0.73072571  1  0  -0.056403  0  3.778927  0  0  -0.069292  0  4.024144  0  0  -0.071176  0  4.046447  0  0  -0.08528  -0.067873  0  4.009443  0
C  C96  1  0.44336937  0.42004285  0.38252261  1  0  -0.049347  0  3.768179  0  0  -0.063372  0  4.018125  0  0  -0.065178  0  4.040326  0  0  -0.086086  -0.062212  0  4.003106  0
C  C97  1  0.55663214  0.57995431  0.61747932  1  0  -0.049403  0  3.768019  0  0  -0.063434  0  4.017968  0  0  -0.065242  0  4.040171  0  0  -0.086107  -0.062276  0  4.002951  0
C  C98  1  0.56443863  0.39066285  0.41832747  1  0  -0.112582  0  3.751116  0  0  -0.134631  0  4.00204  0  0  -0.137827  0  4.025299  0  0  -0.088349  -0.13247  0  3.98624  0
C  C99  1  0.43556275  0.60933602  0.58167322  1  0  -0.112543  0  3.751013  0  0  -0.134589  0  4.001949  0  0  -0.137786  0  4.0252  0  0  -0.088335  -0.132429  0  3.986153  0
C  C100  1  0.68480935  0.39178067  0.34255100  1  0  0.015781  0  3.727874  0  0  0.031798  0  3.969158  0  0  0.029475  0  3.99485  0  0  -0.01119  0.033576  0  3.951589  0
C  C101  1  0.31519098  0.60821905  0.65744962  1  0  0.015784  0  3.727878  0  0  0.031767  0  3.969192  0  0  0.029456  0  3.994864  0  0  -0.011208  0.033545  0  3.951622  0
C  C102  1  0.81261179  0.35662967  0.38660295  1  0  -0.033248  0  3.613608  0  0  -0.102093  0  3.862665  0  0  -0.09645  0  3.871686  0  0  -0.042063  -0.105983  0  3.856786  0
C  C103  1  0.18739152  0.64337004  0.61339715  1  0  -0.033228  0  3.613503  0  0  -0.102062  0  3.862568  0  0  -0.096422  0  3.871584  0  0  -0.042063  -0.105954  0  3.85669  0
C  C104  1  0.83150163  0.56249237  0.36804003  1  0  0.137914  0  3.688498  0  0  0.076324  0  3.955946  0  0  0.089285  0  3.969339  0  0  0.139664  0.067817  0  3.946742  0
C  C105  1  0.16849957  0.43750906  0.63195762  1  0  0.137839  0  3.688503  0  0  0.076248  0  3.95594  0  0  0.089211  0  3.96933  0  0  0.139618  0.067739  0  3.94674  0
C  C106  1  0.02305653  0.45865125  0.36134900  1  0  -0.069746  0  3.638031  0  0  -0.111619  0  3.898646  0  0  -0.110592  0  3.917485  0  0  0.002718  -0.112121  0  3.886019  0
C  C107  1  0.97694380  0.54134847  0.63865240  1  0  -0.069734  0  3.638096  0  0  -0.111598  0  3.898695  0  0  -0.110571  0  3.917535  0  0  0.002711  -0.112104  0  3.886068  0
C  C108  1  0.04499814  0.56935754  0.35193873  1  0  0.009583  0  3.735459  0  0  -0.025381  0  4.005207  0  0  -0.023749  0  4.025172  0  0  0.002319  -0.026484  0  3.991807  0
C  C109  1  0.95500201  0.43064475  0.64806041  1  0  0.009553  0  3.735637  0  0  -0.025405  0  4.005407  0  0  -0.023771  0  4.025372  0  0  0.002297  -0.026511  0  3.992007  0
N  N110  1  0.93161702  0.70237278  0.99594453  1  0  -0.380996  0  3.293662  0  0  -0.301436  0  3.594367  0  0  -0.321262  0  3.60456  0  0  -0.352364  -0.28788  0  3.586902  0
N  N111  1  0.06838523  0.29762779  0.00405474  1  0  -0.380982  0  3.293742  0  0  -0.301373  0  3.59438  0  0  -0.3212  0  3.604577  0  0  -0.352347  -0.287808  0  3.58691  0
N  N112  1  0.84229447  0.53643355  0.06599088  1  0  -0.058249  0  3.564007  0  0  0.03571  0  3.783605  0  0  0.020544  0  3.810193  0  0  -0.240117  0.045723  0  3.765518  0
N  N113  1  0.15770784  0.46356617  0.93400862  1  0  -0.058254  0  3.564046  0  0  0.035682  0  3.783638  0  0  0.020517  0  3.810226  0  0  -0.240175  0.045699  0  3.765547  0
N  N114  1  0.92477992  0.63273697  0.35643793  1  0  -0.380373  0  3.33091  0  0  -0.302921  0  3.635914  0  0  -0.322427  0  3.64796  0  0  -0.357943  -0.289676  0  3.627423  0
N  N115  1  0.07521830  0.36726448  0.64356024  1  0  -0.380354  0  3.330933  0  0  -0.302892  0  3.635923  0  0  -0.322399  0  3.647969  0  0  -0.357915  -0.289652  0  3.627441  0
N  N116  1  0.88720610  0.45636886  0.37114544  1  0  -0.061357  0  3.565222  0  0  0.033974  0  3.784875  0  0  0.019185  0  3.811237  0  0  -0.240312  0.043868  0  3.766923  0
N  N117  1  0.11279411  0.54363257  0.62885471  1  0  -0.061313  0  3.565143  0  0  0.034016  0  3.784776  0  0  0.019226  0  3.811139  0  0  -0.240274  0.043908  0  3.766827  0
O  O118  1  0.83641565  0.99940111  0.49300012  1  0  -0.889634  0  2.033656  0  0  -0.796992  0  2.335946  0  0  -0.825326  0  2.308212  0  0  -0.384685  -0.776961  0  2.355166  0
O  O119  1  0.16358281  0.00059692  0.50700133  1  0  -0.889636  0  2.033592  0  0  -0.797016  0  2.335938  0  0  -0.825348  0  2.308204  0  0  -0.384724  -0.776974  0  2.355151  0
O  O120  1  0.90732674  0.86089643  0.66807533  1  0  -0.868573  0  2.026471  0  0  -0.774504  0  2.324201  0  0  -0.802342  0  2.297654  0  0  -0.383189  -0.753975  0  2.341808  0
O  O121  1  0.09267167  0.13910246  0.33192511  1  0  -0.868562  0  2.026528  0  0  -0.774488  0  2.324274  0  0  -0.802329  0  2.297732  0  0  -0.383157  -0.753963  0  2.341887  0
O  O122  1  0.86163863  0.78311249  0.52017015  1  0  -0.867484  0  2.018359  0  0  -0.775889  0  2.307042  0  0  -0.804146  0  2.282352  0  0  -0.387675  -0.755348  0  2.323333  0
O  O123  1  0.13836276  0.21688638  0.47982976  1  0  -0.867573  0  2.018432  0  0  -0.775901  0  2.307061  0  0  -0.804156  0  2.282373  0  0  -0.387675  -0.755355  0  2.323353  0
O  O124  1  0.15650658  0.84046233  0.75434747  1  0  -0.696135  0  2.101868  0  0  -0.624112  0  2.393363  0  0  -0.650421  0  2.37427  0  0  -0.335334  -0.605667  0  2.406284  0
O  O125  1  0.84349276  0.15953740  0.24565256  1  0  -0.69609  0  2.10185  0  0  -0.62407  0  2.393359  0  0  -0.650386  0  2.374269  0  0  -0.335297  -0.605602  0  2.40624  0
O  O126  1  0.21510194  0.84059635  0.91157730  1  0  -0.626224  0  2.048423  0  0  -0.555641  0  2.312932  0  0  -0.582789  0  2.297442  0  0  -0.303246  -0.537138  0  2.323481  0
O  O127  1  0.78489827  0.15940508  0.08842285  1  0  -0.626229  0  2.048367  0  0  -0.555658  0  2.312904  0  0  -0.582791  0  2.297391  0  0  -0.303213  -0.537132  0  2.323449  0
O  O128  1  0.08415471  0.03410933  0.09090175  1  0  -0.858898  0  2.055735  0  0  -0.765385  0  2.361689  0  0  -0.792783  0  2.332829  0  0  -0.374135  -0.745985  0  2.381082  0
O  O129  1  0.91584457  0.96589126  0.90909804  1  0  -0.858911  0  2.055691  0  0  -0.765403  0  2.361652  0  0  -0.7928  0  2.332789  0  0  -0.374147  -0.746016  0  2.381051  0
O  O130  1  0.05838506  0.81858227  0.13483922  1  0  -0.853646  0  2.022981  0  0  -0.764537  0  2.317345  0  0  -0.792477  0  2.292317  0  0  -0.378634  -0.744096  0  2.333865  0
O  O131  1  0.94161428  0.18141746  0.86516080  1  0  -0.85364  0  2.023018  0  0  -0.764522  0  2.317386  0  0  -0.792462  0  2.292352  0  0  -0.378633  -0.744079  0  2.333902  0
O  O132  1  0.99152701  0.91367749  0.28797466  1  0  -0.902927  0  2.153417  0  0  -0.785947  0  2.481936  0  0  -0.815597  0  2.447482  0  0  -0.37557  -0.765545  0  2.506351  0
O  O133  1  0.00846923  0.08632397  0.71202541  1  0  -0.902955  0  2.153436  0  0  -0.785936  0  2.481924  0  0  -0.815612  0  2.44749  0  0  -0.375557  -0.765537  0  2.506338  0
O  O134  1  0.67638184  0.81361875  0.35264624  1  0  -0.685124  0  2.042955  0  0  -0.610724  0  2.317607  0  0  -0.639951  0  2.302478  0  0  -0.343969  -0.59024  0  2.327254  0
O  O135  1  0.32361749  0.18638099  0.64735223  1  0  -0.685122  0  2.04302  0  0  -0.610712  0  2.317674  0  0  -0.63994  0  2.302548  0  0  -0.343997  -0.590235  0  2.327323  0
O  O136  1  0.75294758  0.83632606  0.16986943  1  0  -0.595735  0  1.915191  0  0  -0.554662  0  2.138159  0  0  -0.576109  0  2.129801  0  0  -0.320074  -0.539174  0  2.143399  0
O  O137  1  0.24705070  0.16367454  0.83012820  1  0  -0.595769  0  1.915094  0  0  -0.554702  0  2.13808  0  0  -0.576146  0  2.129719  0  0  -0.32013  -0.539216  0  2.14332  0
