# generated using pymatgen
data_CoH16C18(O3F)2
_symmetry_space_group_name_H-M   'P 1'
_cell_length_a   5.36808930
_cell_length_b   8.92611787
_cell_length_c   18.17311626
_cell_angle_alpha   97.15236272
_cell_angle_beta   89.99944195
_cell_angle_gamma   90.00164468
_symmetry_Int_Tables_number   1
_chemical_formula_structural   CoH16C18(O3F)2
_chemical_formula_sum   'Co2 H32 C36 O12 F4'
_cell_volume   864.01066226
_cell_formula_units_Z   2
loop_
 _symmetry_equiv_pos_site_id
 _symmetry_equiv_pos_as_xyz
  1  'x, y, z'
loop_
 _atom_site_type_symbol
 _atom_site_label
 _atom_site_symmetry_multiplicity
 _atom_site_fract_x
 _atom_site_fract_y
 _atom_site_fract_z
 _atom_site_occupancy
 _atom_site_pbe_cm5_charge
 _atom_site_pbe_ddec_charge
 _atom_site_pbe_ddec_spin_density
 _atom_site_pbe_ddec_sum_bond_order
 _atom_site_pbe_magmom
Co  Co0  1  0.00000183  0.99999983  0.49999749  1  0.656743  1.078469  -2.841021  2.276508  -2.624
Co  Co1  1  0.50000200  0.50000308  0.49999895  1  0.656768  1.078564  2.841013  2.276449  2.624
H  H2  1  0.83064037  0.40616444  0.82078766  1  0.107598  0.129742  -3e-06  1.018861  0.0
H  H3  1  0.33069022  0.09381173  0.17919280  1  0.107503  0.129565  3e-06  1.019267  0.0
H  H4  1  0.16934686  0.59383244  0.17920711  1  0.10756  0.12968  -3e-06  1.019153  0.0
H  H5  1  0.66932123  0.90619130  0.82080772  1  0.107516  0.129595  3e-06  1.019176  0.0
H  H6  1  0.41376677  0.72555428  0.96856164  1  0.105368  0.12909  2e-06  1.014951  0.0
H  H7  1  0.91374938  0.77442198  0.03143673  1  0.105321  0.128967  -3e-06  1.014858  0.0
H  H8  1  0.58624468  0.27444434  0.03143982  1  0.105361  0.129073  2e-06  1.01491  0.0
H  H9  1  0.08626393  0.22556568  0.96856760  1  0.105319  0.129001  -2e-06  1.015037  0.0
H  H10  1  0.11176935  0.75836058  0.86675043  1  0.098078  0.097325  -5e-06  1.0249  0.0
H  H11  1  0.61174045  0.74165029  0.13326356  1  0.098098  0.097338  5e-06  1.025042  0.0
H  H12  1  0.88821975  0.24163533  0.13325808  1  0.098146  0.097395  -5e-06  1.025062  0.0
H  H13  1  0.38826914  0.25835332  0.86674305  1  0.098093  0.097327  5e-06  1.025036  0.0
H  H14  1  0.16830304  0.61435068  0.74176552  1  0.102282  0.110399  -3e-06  1.006998  0.0
H  H15  1  0.66835130  0.88567701  0.25824397  1  0.102291  0.110322  3e-06  1.007048  0.0
H  H16  1  0.83165998  0.38565415  0.25824224  1  0.102278  0.110324  -3e-06  1.007046  0.0
H  H17  1  0.33166015  0.11432864  0.74176051  1  0.102268  0.110275  3e-06  1.007162  0.0
H  H18  1  0.38426422  0.44189975  0.65723608  1  0.105546  0.116793  -4.3e-05  1.036328  0.0
H  H19  1  0.88432986  0.05809846  0.34276103  1  0.10563  0.116994  4.3e-05  1.036064  0.0
H  H20  1  0.61570624  0.55810083  0.34276214  1  0.105601  0.116925  -4.3e-05  1.036184  0.0
H  H21  1  0.11568718  0.94191258  0.65724091  1  0.105611  0.116948  4.3e-05  1.036017  0.0
H  H22  1  0.86744380  0.29867148  0.70863773  1  0.101617  0.121936  3.2e-05  1.018573  0.0
H  H23  1  0.36753497  0.20130148  0.29135020  1  0.101638  0.12194  -3.2e-05  1.018403  0.0
H  H24  1  0.13251363  0.70130294  0.29135728  1  0.101746  0.122111  3.2e-05  1.018369  0.0
H  H25  1  0.63248393  0.79869735  0.70865347  1  0.101682  0.121964  -3.2e-05  1.018362  0.0
H  H26  1  0.51337686  0.99274755  0.43843564  1  0.310668  0.387522  -0.000426  0.926867  -0.001
H  H27  1  0.01335715  0.50724316  0.56155587  1  0.31064  0.387453  0.000426  0.92697  0.001
H  H28  1  0.48663831  0.00725656  0.56156438  1  0.310648  0.387461  -0.000426  0.926947  -0.001
H  H29  1  0.98664499  0.49275854  0.43844240  1  0.310643  0.387476  0.000426  0.926883  0.001
H  H30  1  0.63159124  0.15158932  0.47186056  1  0.294785  0.376978  -0.000123  0.97535  0.0
H  H31  1  0.13155856  0.34840137  0.52813383  1  0.29471  0.376775  0.000123  0.97561  0.0
H  H32  1  0.36842207  0.84841684  0.52813733  1  0.29478  0.376968  -0.000123  0.975389  0.0
H  H33  1  0.86844730  0.65160146  0.47186448  1  0.29472  0.37677  0.000123  0.97564  0.0
C  C34  1  0.67126388  0.48201042  0.82892858  1  -0.098149  -0.257056  0.000193  3.9517  0.0
C  C35  1  0.17130710  0.01797564  0.17105668  1  -0.098073  -0.256642  -0.000194  3.951644  0.0
C  C36  1  0.32870286  0.51799026  0.17107075  1  -0.098106  -0.256851  0.000193  3.951602  0.0
C  C37  1  0.82870248  0.98202534  0.82894597  1  -0.098109  -0.256739  -0.000193  3.951611  0.0
C  C38  1  0.63225559  0.56304806  0.89794926  1  0.092906  0.282462  -5.2e-05  4.088369  0.0
C  C39  1  0.13224273  0.93692493  0.10203399  1  0.092907  0.282383  5.2e-05  4.088685  0.0
C  C40  1  0.36775027  0.43694164  0.10204083  1  0.092953  0.282497  -5.2e-05  4.088686  0.0
C  C41  1  0.86776686  0.06307580  0.89796589  1  0.092968  0.282552  5.2e-05  4.088374  0.0
C  C42  1  0.43488560  0.66332793  0.91347136  1  -0.097248  -0.203221  0.000236  3.98728  0.0
C  C43  1  0.93486532  0.83666982  0.08652998  1  -0.097231  -0.203076  -0.000236  3.987464  0.0
C  C44  1  0.56510536  0.33667413  0.08653078  1  -0.097299  -0.203226  0.000236  3.987665  0.0
C  C45  1  0.06515545  0.16333143  0.91347543  1  -0.097235  -0.203189  -0.000236  3.987534  0.0
C  C46  1  0.26785235  0.68062166  0.85628416  1  -0.088075  -0.049422  -5.2e-05  4.022634  0.0
C  C47  1  0.76783370  0.81937280  0.14371708  1  -0.088033  -0.049355  5.2e-05  4.022345  0.0
C  C48  1  0.73215165  0.31937117  0.14371542  1  -0.088079  -0.049474  -5.2e-05  4.022506  0.0
C  C49  1  0.23217588  0.18062710  0.85628608  1  -0.088071  -0.049369  5.2e-05  4.022385  0.0
C  C50  1  0.29982090  0.59973338  0.78612135  1  -0.091557  -0.150491  0.000165  3.951312  0.0
C  C51  1  0.79985999  0.90027421  0.21388415  1  -0.09167  -0.150437  -0.000165  3.950935  0.0
C  C52  1  0.70014770  0.40027125  0.21388420  1  -0.091594  -0.15036  0.000164  3.95113  0.0
C  C53  1  0.20015332  0.09972801  0.78611965  1  -0.091647  -0.150359  -0.000165  3.951025  0.0
C  C54  1  0.50223178  0.49997298  0.77122644  1  -0.008481  0.119891  -0.000173  4.035524  0.0
C  C55  1  0.00228410  0.00002062  0.22876741  1  -0.008338  0.119765  0.000173  4.035468  0.0
C  C56  1  0.49774428  0.50001631  0.22877135  1  -0.00841  0.119748  -0.000173  4.035677  0.0
C  C57  1  0.99772735  0.99997575  0.77123396  1  -0.00828  0.119736  0.000173  4.035375  0.0
C  C58  1  0.53056216  0.42146418  0.69646124  1  -0.070816  -0.05046  0.000419  3.941914  0.0
C  C59  1  0.03064801  0.07851936  0.30353102  1  -0.070992  -0.050869  -0.000419  3.94189  0.0
C  C60  1  0.46939713  0.57853188  0.30353681  1  -0.070898  -0.050647  0.000419  3.941939  0.0
C  C61  1  0.96936903  0.92148029  0.69646937  1  -0.07096  -0.0507  -0.000419  3.941743  0.0
C  C62  1  0.71922321  0.32856734  0.67203513  1  -0.107695  -0.251585  -0.001695  3.919476  -0.003
C  C63  1  0.21931861  0.17141254  0.32795633  1  -0.107769  -0.251379  0.001696  3.919165  0.003
C  C64  1  0.28074539  0.67142077  0.32796206  1  -0.107928  -0.251715  -0.001695  3.919491  -0.003
C  C65  1  0.78070588  0.82858849  0.67204687  1  -0.107831  -0.251479  0.001695  3.91909  0.003
C  C66  1  0.73725569  0.25126281  0.59592033  1  0.208945  0.628851  0.003246  4.153888  0.005
C  C67  1  0.23730826  0.24873995  0.40406645  1  0.20874  0.628204  -0.003246  4.154587  -0.005
C  C68  1  0.26273154  0.74875068  0.40407178  1  0.208915  0.62859  0.003247  4.154094  0.005
C  C69  1  0.76270692  0.75125668  0.59593768  1  0.208776  0.628299  -0.003245  4.154275  -0.005
O  O70  1  0.86801568  0.13005001  0.58897223  1  -0.318365  -0.57904  -0.034684  2.385259  -0.054
O  O71  1  0.36807335  0.36994913  0.41101891  1  -0.318217  -0.578718  0.034686  2.385954  0.054
O  O72  1  0.13197155  0.86995235  0.41102110  1  -0.318357  -0.578885  -0.034679  2.385648  -0.054
O  O73  1  0.63193996  0.63004868  0.58898582  1  -0.318277  -0.578828  0.034678  2.385754  0.054
O  O74  1  0.62801345  0.29759437  0.53985584  1  -0.314395  -0.592183  0.025624  2.37189  0.039
O  O75  1  0.12803513  0.20240850  0.46012637  1  -0.314333  -0.591902  -0.025621  2.371922  -0.039
O  O76  1  0.37198309  0.70241481  0.46013832  1  -0.314329  -0.592059  0.025623  2.371572  0.039
O  O77  1  0.87196328  0.79758767  0.53987278  1  -0.314319  -0.591938  -0.025619  2.37183  -0.039
O  O78  1  0.66848711  0.05043264  0.44251881  1  -0.561648  -0.75401  -0.030137  2.19513  -0.045
O  O79  1  0.16846362  0.44955509  0.55747368  1  -0.561549  -0.753767  0.030132  2.195292  0.045
O  O80  1  0.33152434  0.94957122  0.55747844  1  -0.561653  -0.753976  -0.030132  2.195059  -0.045
O  O81  1  0.83153851  0.55044983  0.44252306  1  -0.561576  -0.753829  0.030134  2.195308  0.045
F  F82  1  0.79600093  0.54384250  0.95381180  1  -0.099717  -0.152769  -8e-06  1.367113  0.0
F  F83  1  0.29597517  0.95613316  0.04616657  1  -0.099652  -0.152794  8e-06  1.367264  0.0
F  F84  1  0.20401052  0.45616653  0.04618069  1  -0.099715  -0.152801  -8e-06  1.367372  0.0
F  F85  1  0.70404000  0.04386660  0.95383493  1  -0.099695  -0.152842  8e-06  1.36706  0.0
