# generated using pymatgen
data_NaCaP2H17(C4O7)3
_symmetry_space_group_name_H-M   'P 1'
_cell_length_a   7.91641225
_cell_length_b   11.79536266
_cell_length_c   13.23290000
_cell_angle_alpha   106.89292927
_cell_angle_beta   90.00000000
_cell_angle_gamma   109.60706217
_symmetry_Int_Tables_number   1
_chemical_formula_structural   NaCaP2H17(C4O7)3
_chemical_formula_sum   'Na2 Ca2 P4 H34 C24 O42'
_cell_volume   1107.23648857
_cell_formula_units_Z   2
loop_
 _symmetry_equiv_pos_site_id
 _symmetry_equiv_pos_as_xyz
  1  'x, y, z'
loop_
 _atom_site_type_symbol
 _atom_site_label
 _atom_site_symmetry_multiplicity
 _atom_site_fract_x
 _atom_site_fract_y
 _atom_site_fract_z
 _atom_site_occupancy
 _atom_site_hle17_bader_spin_density
 _atom_site_hle17_ddec_charge
 _atom_site_hle17_ddec_spin_density
 _atom_site_hle17_ddec_sum_bond_order
 _atom_site_hle17_magmom
 _atom_site_hse06_10hf_bader_spin_density
 _atom_site_hse06_10hf_ddec_charge
 _atom_site_hse06_10hf_ddec_spin_density
 _atom_site_hse06_10hf_ddec_sum_bond_order
 _atom_site_hse06_10hf_magmom
 _atom_site_hse06_bader_spin_density
 _atom_site_hse06_ddec_charge
 _atom_site_hse06_ddec_spin_density
 _atom_site_hse06_ddec_sum_bond_order
 _atom_site_hse06_magmom
 _atom_site_pbe_bader_charge
 _atom_site_pbe_bader_spin_density
 _atom_site_pbe_cm5_charge
 _atom_site_pbe_ddec_charge
 _atom_site_pbe_ddec_spin_density
 _atom_site_pbe_ddec_sum_bond_order
 _atom_site_pbe_magmom
Na  Na0  1  0.00000047  0.00000095  0.50000025  1  0  0.916247  0  0.352567  0  0  0.873774  0  0.497741  0  0  0.884118  0  0.476456  0  0.892629  0  0.699619  0.866078  0  0.513059  0
Na  Na1  1  0.99999951  0.99999894  0.99999859  1  0  0.915988  0  0.353476  0  0  0.873466  0  0.498927  0  0  0.883792  0  0.477622  0  0.893053  0  0.700162  0.865768  0  0.514286  0
Ca  Ca2  1  0.37387407  0.00000284  0.25009557  1  0  1.573878  0  1.063399  0  0  1.434662  0  1.408047  0  0  1.476473  0  1.364051  0  1.66282  0  0.914841  1.403205  0  1.439235  0
Ca  Ca3  1  0.62612260  0.99999800  0.74990502  1  0  1.573891  0  1.063412  0  0  1.43471  0  1.40801  0  0  1.476491  0  1.364068  0  1.662815  0  0.914832  1.403253  0  1.439198  0
P  P4  1  0.24382815  0.82461512  0.40619558  1  0  1.725532  0  4.867327  0  0  1.532697  0  5.400933  0  0  1.591636  0  5.346361  0  3.660251  0  0.42889  1.491519  0  5.438193  0
P  P5  1  0.58069674  0.82473907  0.90614909  1  0  1.726347  0  4.866433  0  0  1.533401  0  5.399763  0  0  1.592649  0  5.344811  0  3.655248  0  0.429054  1.492068  0  5.437266  0
P  P6  1  0.75617230  0.17538571  0.59380502  1  0  1.725504  0  4.867263  0  0  1.53269  0  5.400826  0  0  1.591631  0  5.346249  0  3.660253  0  0.42888  1.491505  0  5.438101  0
P  P7  1  0.41930277  0.17525988  0.09385102  1  0  1.726149  0  4.866571  0  0  1.533238  0  5.399896  0  0  1.592462  0  5.344952  0  3.655265  0  0.429009  1.491905  0  5.437401  0
H  H8  1  0.46315539  0.69121791  0.33996331  1  0  0.421239  0  0.855736  0  0  0.386785  0  0.936668  0  0  0.399345  0  0.92327  0  0.664075  0  0.311534  0.377954  0  0.946034  0
H  H9  1  0.22786708  0.69154148  0.83993981  1  0  0.420942  0  0.855173  0  0  0.387101  0  0.935094  0  0  0.399654  0  0.921718  0  0.671111  0  0.31138  0.378278  0  0.944451  0
H  H10  1  0.53684474  0.30878482  0.66003777  1  0  0.421189  0  0.855859  0  0  0.386728  0  0.936793  0  0  0.399287  0  0.923398  0  0.664204  0  0.311519  0.3779  0  0.946154  0
H  H11  1  0.77213337  0.30845935  0.16006078  1  0  0.420954  0  0.855172  0  0  0.387107  0  0.935104  0  0  0.399661  0  0.921728  0  0.671108  0  0.311384  0.378284  0  0.944462  0
H  H12  1  0.35194186  0.63718445  0.96975481  1  0  0.420747  0  0.862472  0  0  0.388119  0  0.940417  0  0  0.400563  0  0.926963  0  0.660547  0  0.31012  0.379402  0  0.949784  0
H  H13  1  0.28454005  0.63704537  0.46976337  1  0  0.421026  0  0.861825  0  0  0.388574  0  0.939652  0  0  0.400979  0  0.926251  0  0.665328  0  0.310343  0.379872  0  0.94899  0
H  H14  1  0.64805954  0.36281828  0.03024552  1  0  0.420759  0  0.862471  0  0  0.388136  0  0.940408  0  0  0.400581  0  0.926953  0  0.66056  0  0.310137  0.379421  0  0.949774  0
H  H15  1  0.71545755  0.36295736  0.53023621  1  0  0.42104  0  0.861806  0  0  0.388592  0  0.939628  0  0  0.400995  0  0.92623  0  0.665361  0  0.310338  0.37989  0  0.948968  0
H  H16  1  0.75005160  0.77689413  0.05361860  1  0  0.441451  0  0.863586  0  0  0.405263  0  0.933649  0  0  0.418549  0  0.914975  0  0.660077  0  0.308784  0.395995  0  0.946653  0
H  H17  1  0.02684374  0.77672950  0.55370292  1  0  0.440438  0  0.864938  0  0  0.40451  0  0.934601  0  0  0.417793  0  0.915942  0  0.674796  0  0.30886  0.395242  0  0.947602  0
H  H18  1  0.24994617  0.22310387  0.94638050  1  0  0.441433  0  0.863612  0  0  0.405232  0  0.933699  0  0  0.418518  0  0.915024  0  0.66007  0  0.308771  0.395965  0  0.946702  0
H  H19  1  0.97315940  0.22327417  0.44629766  1  0  0.440429  0  0.864979  0  0  0.404432  0  0.934743  0  0  0.417714  0  0.916084  0  0.674562  0  0.308845  0.395163  0  0.947742  0
H  H20  1  0.50000175  0.00000000  0.49999924  1  0  0.480422  0  0.815455  0  0  0.439762  0  0.891109  0  0  0.453549  0  0.871756  0  0.66774  0  0.32043  0.430154  0  0.904561  0
H  H21  1  0.49999902  0.99999894  0.00000010  1  0  0.480074  0  0.815758  0  0  0.439763  0  0.890909  0  0  0.453489  0  0.871638  0  0.668094  0  0.320535  0.430182  0  0.904328  0
H  H22  1  0.72578054  0.96286779  0.29270173  1  0  0.442482  0  0.841015  0  0  0.414288  0  0.899003  0  0  0.423325  0  0.885785  0  0.655122  0  0.313875  0.407844  0  0.908436  0
H  H23  1  0.23705136  0.96271074  0.79291043  1  0  0.443375  0  0.839614  0  0  0.414895  0  0.898353  0  0  0.423976  0  0.885044  0  0.656491  0  0.314266  0.408425  0  0.907843  0
H  H24  1  0.27421471  0.03713021  0.70729738  1  0  0.44238  0  0.841157  0  0  0.414202  0  0.899113  0  0  0.423237  0  0.885899  0  0.655119  0  0.31386  0.407758  0  0.908547  0
H  H25  1  0.76294309  0.03728821  0.20708968  1  0  0.443362  0  0.83963  0  0  0.414901  0  0.898339  0  0  0.423982  0  0.88503  0  0.656521  0  0.314263  0.408433  0  0.907824  0
H  H26  1  0.76738634  0.56763662  0.21463247  1  0  0.149064  0  0.909444  0  0  0.160749  0  0.966775  0  0  0.163927  0  0.964992  0  0.110823  0  0.117356  0.158427  0  0.968288  0
H  H27  1  0.79992843  0.56757512  0.71471932  1  0  0.149603  0  0.910258  0  0  0.161242  0  0.967523  0  0  0.164431  0  0.965802  0  0.078849  0  0.117658  0.158884  0  0.96897  0
H  H28  1  0.23261079  0.43236516  0.78536761  1  0  0.149048  0  0.909462  0  0  0.16075  0  0.96677  0  0  0.163934  0  0.964989  0  0.110818  0  0.117373  0.158427  0  0.968283  0
H  H29  1  0.20007328  0.43242571  0.28527825  1  0  0.14962  0  0.910236  0  0  0.161238  0  0.967506  0  0  0.164421  0  0.965795  0  0.078869  0  0.117688  0.158881  0  0.968955  0
H  H30  1  0.89896721  0.63245956  0.33857232  1  0  0.147121  0  0.900662  0  0  0.161371  0  0.953677  0  0  0.164762  0  0.951589  0  0.094337  0  0.122071  0.158922  0  0.955337  0
H  H31  1  0.73316508  0.63255606  0.83862905  1  0  0.147722  0  0.900997  0  0  0.161869  0  0.953888  0  0  0.165292  0  0.951791  0  0.100068  0  0.122409  0.159342  0  0.955559  0
H  H32  1  0.10103103  0.36753938  0.66142703  1  0  0.147117  0  0.900694  0  0  0.161368  0  0.953709  0  0  0.164765  0  0.951624  0  0.094356  0  0.122061  0.158917  0  0.95537  0
H  H33  1  0.26683506  0.36743910  0.16136781  1  0  0.147717  0  0.900988  0  0  0.161855  0  0.953886  0  0  0.165281  0  0.951782  0  0.100068  0  0.122392  0.159328  0  0.955558  0
H  H34  1  0.12832762  0.58574050  0.20765153  1  0  0.155651  0  0.923119  0  0  0.164858  0  0.984722  0  0  0.168394  0  0.982941  0  0.114411  0  0.117379  0.162335  0  0.986093  0
H  H35  1  0.45695373  0.58579348  0.70758061  1  0  0.155389  0  0.922727  0  0  0.164268  0  0.984618  0  0  0.167783  0  0.982867  0  0.124159  0  0.117056  0.161735  0  0.985961  0
H  H36  1  0.87167441  0.41425845  0.79235160  1  0  0.155673  0  0.923157  0  0  0.164883  0  0.984742  0  0  0.168419  0  0.982959  0  0.114463  0  0.117418  0.162358  0  0.986114  0
H  H37  1  0.54304831  0.41420547  0.29241722  1  0  0.155286  0  0.922756  0  0  0.16425  0  0.984557  0  0  0.167762  0  0.98281  0  0.124164  0  0.117071  0.161717  0  0.985898  0
H  H38  1  0.97783141  0.55525200  0.09674079  1  0  0.143828  0  0.9485  0  0  0.149467  0  1.016776  0  0  0.153164  0  1.014604  0  0.141859  0  0.110977  0.146821  0  1.0184  0
H  H39  1  0.57698571  0.55522173  0.59671557  1  0  0.143918  0  0.948158  0  0  0.149408  0  1.01626  0  0  0.153111  0  1.014104  0  0.133018  0  0.110891  0.146717  0  1.017904  0
H  H40  1  0.02217109  0.44474789  0.90326031  1  0  0.143822  0  0.9485  0  0  0.149466  0  1.016767  0  0  0.153162  0  1.014597  0  0.14183  0  0.110974  0.146818  0  1.018392  0
H  H41  1  0.42301695  0.44478100  0.40328249  1  0  0.143874  0  0.94815  0  0  0.149384  0  1.016257  0  0  0.153089  0  1.014101  0  0.133949  0  0.110883  0.146693  0  1.017901  0
C  C42  1  0.72285187  0.72875684  0.31727111  1  0  0.74347  0  3.746017  0  0  0.69404  0  4.052638  0  0  0.727094  0  4.042786  0  1.538727  0  0.245998  0.671469  0  4.058991  0
C  C43  1  0.00547413  0.72884577  0.81726996  1  0  0.744777  0  3.745569  0  0  0.694361  0  4.053492  0  0  0.727607  0  4.043431  0  1.539109  0  0.246006  0.671674  0  4.059913  0
C  C44  1  0.27715079  0.27124589  0.68272846  1  0  0.743422  0  3.746037  0  0  0.694022  0  4.052622  0  0  0.727098  0  4.042757  0  1.538728  0  0.245998  0.671449  0  4.058982  0
C  C45  1  0.99452191  0.27115128  0.18272663  1  0  0.744837  0  3.745635  0  0  0.694407  0  4.053559  0  0  0.727614  0  4.043557  0  1.539128  0  0.246045  0.671724  0  4.059979  0
C  C46  1  0.84740665  0.65720231  0.27372915  1  0  -0.361728  0  3.617593  0  0  -0.409479  0  3.865545  0  0  -0.416414  0  3.870943  0  -0.045236  0  -0.155165  -0.404758  0  3.862141  0
C  C47  1  0.80940949  0.65719190  0.77372872  1  0  -0.36429  0  3.619557  0  0  -0.411749  0  3.867902  0  0  -0.418859  0  3.873365  0  -0.022648  0  -0.155799  -0.406741  0  3.864167  0
C  C48  1  0.15259333  0.34279758  0.72626969  1  0  -0.361679  0  3.617596  0  0  -0.409469  0  3.865564  0  0  -0.416439  0  3.871003  0  -0.045264  0  -0.155168  -0.404742  0  3.862153  0
C  C49  1  0.19058702  0.34280610  0.22627114  1  0  -0.364319  0  3.619536  0  0  -0.411756  0  3.867875  0  0  -0.418853  0  3.87335  0  -0.022633  0  -0.155823  -0.406754  0  3.864141  0
C  C50  1  0.00762590  0.72759123  0.22316058  1  0  0.287001  0  3.551385  0  0  0.277799  0  3.796305  0  0  0.283204  0  3.80729  0  0.496313  0  0.100874  0.273935  0  3.788944  0
C  C51  1  0.71964783  0.72752784  0.72308069  1  0  0.288636  0  3.551572  0  0  0.278497  0  3.795822  0  0  0.283946  0  3.806857  0  0.494119  0  0.100126  0.27465  0  3.788264  0
C  C52  1  0.99237250  0.27241055  0.77683874  1  0  0.287062  0  3.551418  0  0  0.27778  0  3.796329  0  0  0.283188  0  3.807324  0  0.496303  0  0.100845  0.273911  0  3.78897  0
C  C53  1  0.28034915  0.27247110  0.27691942  1  0  0.288441  0  3.551835  0  0  0.278376  0  3.796095  0  0  0.283798  0  3.807129  0  0.494185  0  0.100102  0.274528  0  3.788539  0
C  C54  1  0.08517242  0.63040933  0.15526048  1  0  -0.380853  0  3.623498  0  0  -0.423551  0  3.866397  0  0  -0.431546  0  3.872278  0  -0.103975  0  -0.162927  -0.417981  0  3.862567  0
C  C55  1  0.54488033  0.63043393  0.65521546  1  0  -0.379925  0  3.62324  0  0  -0.42226  0  3.8653  0  0  -0.430176  0  3.87115  0  -0.08677  0  -0.16191  -0.416643  0  3.861321  0
C  C56  1  0.91483009  0.36959056  0.84474063  1  0  -0.380893  0  3.623528  0  0  -0.423568  0  3.866428  0  0  -0.431563  0  3.872304  0  -0.10404  0  -0.162976  -0.417991  0  3.862592  0
C  C57  1  0.45512264  0.36956690  0.34478589  1  0  -0.379685  0  3.622971  0  0  -0.422146  0  3.865134  0  0  -0.430064  0  3.870994  0  -0.08783  0  -0.161904  -0.416523  0  3.861149  0
C  C58  1  0.24300013  0.68314094  0.09797220  1  0  0.741774  0  3.722175  0  0  0.692778  0  4.02387  0  0  0.725999  0  4.0146  0  1.562944  0  0.245931  0.670012  0  4.029856  0
C  C59  1  0.43985473  0.68320717  0.59787222  1  0  0.741209  0  3.723721  0  0  0.694011  0  4.02238  0  0  0.727156  0  4.013188  0  1.535827  0  0.24636  0.671284  0  4.028295  0
C  C60  1  0.75700853  0.31686368  0.90203089  1  0  0.741857  0  3.721854  0  0  0.692801  0  4.023647  0  0  0.726032  0  4.014357  0  1.562919  0  0.245927  0.670032  0  4.029636  0
C  C61  1  0.56014351  0.31679177  0.40212939  1  0  0.741183  0  3.723824  0  0  0.693981  0  4.022531  0  0  0.727126  0  4.013342  0  1.536715  0  0.246323  0.671247  0  4.028457  0
C  C62  1  0.94906483  0.79351828  0.15152231  1  0  0.62258  0  3.759973  0  0  0.574595  0  4.057397  0  0  0.605317  0  4.051589  0  1.595812  0  0.244402  0.553628  0  4.061016  0
C  C63  1  0.84425900  0.79326661  0.65137627  1  0  0.620534  0  3.758526  0  0  0.574983  0  4.052503  0  0  0.605887  0  4.046335  0  1.577207  0  0.244341  0.553879  0  4.056375  0
C  C64  1  0.05093531  0.20647688  0.84847530  1  0  0.62231  0  3.760512  0  0  0.574618  0  4.05744  0  0  0.605337  0  4.051645  0  1.595889  0  0.244476  0.553652  0  4.061062  0
C  C65  1  0.15574477  0.20673328  0.34862408  1  0  0.62069  0  3.758646  0  0  0.575081  0  4.052678  0  0  0.606002  0  4.046492  0  1.57713  0  0.24435  0.553976  0  4.056553  0
O  O66  1  0.77316768  0.84483924  0.35722136  1  0  -0.612068  0  1.94041  0  0  -0.571532  0  2.166485  0  0  -0.590192  0  2.153864  0  -1.169642  0  -0.323881  -0.558736  0  2.175025  0
O  O67  1  0.07106213  0.84496886  0.85730632  1  0  -0.612589  0  1.940352  0  0  -0.571848  0  2.167258  0  0  -0.590605  0  2.154533  0  -1.171036  0  -0.324378  -0.559014  0  2.175876  0
O  O68  1  0.22683324  0.15516254  0.64277873  1  0  -0.61204  0  1.940295  0  0  -0.571542  0  2.166378  0  0  -0.590208  0  2.153753  0  -1.169583  0  -0.323892  -0.558728  0  2.174878  0
O  O69  1  0.92893974  0.15503482  0.14268972  1  0  -0.612569  0  1.940515  0  0  -0.57183  0  2.167388  0  0  -0.59057  0  2.154686  0  -1.171066  0  -0.324411  -0.558986  0  2.175976  0
O  O70  1  0.55431838  0.65033353  0.30808496  1  0  -0.549456  0  2.063035  0  0  -0.493229  0  2.278708  0  0  -0.516871  0  2.264587  0  -1.1783  0  -0.324125  -0.476764  0  2.28801  0
O  O71  1  0.09582202  0.65055681  0.80801281  1  0  -0.549941  0  2.064099  0  0  -0.493175  0  2.278269  0  0  -0.516801  0  2.264173  0  -1.183215  0  -0.323984  -0.476729  0  2.287541  0
O  O72  1  0.44568634  0.34966825  0.69191437  1  0  -0.549392  0  2.06324  0  0  -0.493165  0  2.27891  0  0  -0.516807  0  2.264784  0  -1.178502  0  -0.324104  -0.476703  0  2.288211  0
O  O73  1  0.90417765  0.34944497  0.19198878  1  0  -0.550003  0  2.064133  0  0  -0.493214  0  2.278295  0  0  -0.516828  0  2.264215  0  -1.183239  0  -0.323984  -0.476769  0  2.287568  0
O  O74  1  0.34234444  0.79512289  0.12176994  1  0  -0.605136  0  1.9869  0  0  -0.558491  0  2.221047  0  0  -0.580969  0  2.211688  0  -1.186435  0  -0.306925  -0.542868  0  2.227238  0
O  O75  1  0.45293803  0.79522507  0.62142688  1  0  -0.604833  0  1.986786  0  0  -0.559309  0  2.220725  0  0  -0.581732  0  2.211374  0  -1.178285  0  -0.307462  -0.543725  0  2.226911  0
O  O76  1  0.65765365  0.20487322  0.87823320  1  0  -0.6052  0  1.986619  0  0  -0.558509  0  2.220763  0  0  -0.580988  0  2.211404  0  -1.186381  0  -0.306894  -0.542883  0  2.226955  0
O  O77  1  0.54705832  0.20477766  0.37857496  1  0  -0.604747  0  1.986946  0  0  -0.559212  0  2.220891  0  0  -0.58163  0  2.211526  0  -1.179032  0  -0.307397  -0.543621  0  2.22707  0
O  O78  1  0.26479976  0.59406251  0.01615413  1  0  -0.549554  0  2.042313  0  0  -0.495039  0  2.252142  0  0  -0.517235  0  2.236768  0  -1.179629  0  -0.33056  -0.479594  0  2.262381  0
O  O79  1  0.32851932  0.59400196  0.51627749  1  0  -0.550101  0  2.041182  0  0  -0.496603  0  2.250542  0  0  -0.518804  0  2.235226  0  -1.174929  0  -0.331133  -0.481168  0  2.260763  0
O  O80  1  0.73520322  0.40593833  0.98384722  1  0  -0.549583  0  2.042304  0  0  -0.495073  0  2.252183  0  0  -0.517271  0  2.236802  0  -1.179656  0  -0.330587  -0.479628  0  2.262423  0
O  O81  1  0.67147939  0.40599793  0.48372361  1  0  -0.550158  0  2.041129  0  0  -0.496661  0  2.250505  0  0  -0.518861  0  2.235187  0  -1.174953  0  -0.331148  -0.481228  0  2.260733  0
O  O82  1  0.05102879  0.89497661  0.14203180  1  0  -0.598537  0  1.9766  0  0  -0.562951  0  2.214823  0  0  -0.583698  0  2.206275  0  -1.184945  0  -0.306884  -0.548488  0  2.220418  0
O  O83  1  0.84351780  0.89456978  0.64160374  1  0  -0.598531  0  1.974329  0  0  -0.563577  0  2.211343  0  0  -0.584416  0  2.202784  0  -1.178477  0  -0.307186  -0.549061  0  2.216938  0
O  O84  1  0.94897103  0.10502044  0.85796555  1  0  -0.598426  0  1.976895  0  0  -0.562953  0  2.214964  0  0  -0.583694  0  2.20642  0  -1.184976  0  -0.306912  -0.548491  0  2.220559  0
O  O85  1  0.15648059  0.10543200  0.35839558  1  0  -0.598598  0  1.974525  0  0  -0.563611  0  2.211542  0  0  -0.58444  0  2.202931  0  -1.178467  0  -0.307191  -0.549096  0  2.217139  0
O  O86  1  0.78731217  0.72796967  0.10180375  1  0  -0.535957  0  2.061713  0  0  -0.479389  0  2.260817  0  0  -0.502861  0  2.245555  0  -1.170308  0  -0.312572  -0.463181  0  2.271035  0
O  O87  1  0.94075095  0.72780410  0.60191049  1  0  -0.533468  0  2.061898  0  0  -0.478573  0  2.260762  0  0  -0.502085  0  2.245428  0  -1.18047  0  -0.312326  -0.462353  0  2.271043  0
O  O88  1  0.21269065  0.27202832  0.89819536  1  0  -0.535851  0  2.061842  0  0  -0.479353  0  2.260805  0  0  -0.502824  0  2.245544  0  -1.17035  0  -0.312563  -0.46315  0  2.271026  0
O  O89  1  0.05925250  0.27219768  0.39808959  1  0  -0.533491  0  2.061855  0  0  -0.478527  0  2.260785  0  0  -0.502045  0  2.245442  0  -1.180205  0  -0.312288  -0.462307  0  2.271067  0
O  O90  1  0.14538551  0.82876288  0.29943339  1  0  -0.649628  0  2.366889  0  0  -0.564482  0  2.623926  0  0  -0.586174  0  2.61388  0  -1.322318  0  -0.243883  -0.548877  0  2.630224  0
O  O91  1  0.68318041  0.82877708  0.79933353  1  0  -0.65017  0  2.367648  0  0  -0.564484  0  2.624709  0  0  -0.586406  0  2.614724  0  -1.315803  0  -0.243195  -0.548766  0  2.630899  0
O  O92  1  0.85461447  0.17123701  0.70056696  1  0  -0.649648  0  2.36688  0  0  -0.56453  0  2.623974  0  0  -0.586216  0  2.613926  0  -1.322241  0  -0.243891  -0.548924  0  2.630272  0
O  O93  1  0.31681957  0.17122281  0.20066682  1  0  -0.650105  0  2.367843  0  0  -0.564462  0  2.624865  0  0  -0.586358  0  2.614917  0  -1.31581  0  -0.243193  -0.548744  0  2.631056  0
O  O94  1  0.41578324  0.94016108  0.41426553  1  0  -0.860896  0  1.984434  0  0  -0.774412  0  2.230686  0  0  -0.801196  0  2.205336  0  -1.449461  0  -0.378134  -0.755422  0  2.247799  0
O  O95  1  0.52451621  0.94038720  0.91423493  1  0  -0.860082  0  1.984471  0  0  -0.774416  0  2.231346  0  0  -0.801075  0  2.205859  0  -1.446868  0  -0.377898  -0.755453  0  2.248492  0
O  O96  1  0.58421800  0.05983881  0.58573330  1  0  -0.860851  0  1.984408  0  0  -0.774408  0  2.230688  0  0  -0.80119  0  2.20534  0  -1.449432  0  -0.378131  -0.755419  0  2.247802  0
O  O97  1  0.47547982  0.05960985  0.08576393  1  0  -0.860024  0  1.984518  0  0  -0.774377  0  2.231398  0  0  -0.80104  0  2.205922  0  -1.446899  0  -0.377898  -0.755419  0  2.24855  0
O  O98  1  0.27534107  0.69912931  0.38170750  1  0  -0.875904  0  1.961663  0  0  -0.792604  0  2.201984  0  0  -0.819231  0  2.179902  0  -1.462102  0  -0.357139  -0.773886  0  2.216954  0
O  O99  1  0.42348155  0.69938476  0.88175402  1  0  -0.877088  0  1.961843  0  0  -0.793775  0  2.201871  0  0  -0.820753  0  2.179892  0  -1.463135  0  -0.357591  -0.774942  0  2.216854  0
O  O100  1  0.72465812  0.30087153  0.61829309  1  0  -0.875904  0  1.961659  0  0  -0.792593  0  2.201967  0  0  -0.819221  0  2.179887  0  -1.462134  0  -0.35712  -0.773878  0  2.216937  0
O  O101  1  0.57651922  0.30061418  0.11824609  1  0  -0.87702  0  1.961859  0  0  -0.793723  0  2.201894  0  0  -0.820699  0  2.179919  0  -1.463126  0  -0.357599  -0.774897  0  2.21688  0
O  O102  1  0.12761723  0.84892361  0.49484043  1  0  -0.912834  0  2.005636  0  0  -0.842512  0  2.268856  0  0  -0.866814  0  2.242078  0  -1.468638  0  -0.432056  -0.82533  0  2.287044  0
O  O103  1  0.72118832  0.84897754  0.99479318  1  0  -0.912883  0  2.003602  0  0  -0.84237  0  2.26649  0  0  -0.866715  0  2.239735  0  -1.468629  0  -0.432106  -0.825159  0  2.284643  0
O  O104  1  0.87238543  0.15107912  0.50515990  1  0  -0.912854  0  2.005624  0  0  -0.842494  0  2.268871  0  0  -0.866797  0  2.242092  0  -1.46866  0  -0.432085  -0.825309  0  2.287058  0
O  O105  1  0.27880992  0.15102141  0.00520692  1  0  -0.912814  0  2.00361  0  0  -0.842297  0  2.266484  0  0  -0.866641  0  2.239739  0  -1.468635  0  -0.432074  -0.825084  0  2.284634  0
O  O106  1  0.67296950  0.00018544  0.24998266  1  0  -0.869646  0  1.800597  0  0  -0.818193  0  1.977338  0  0  -0.837886  0  1.948628  0  -1.292997  0  -0.622914  -0.804004  0  1.997385  0
O  O107  1  0.32702858  0.99981824  0.75002018  1  0  -0.869565  0  1.800685  0  0  -0.818105  0  1.977434  0  0  -0.837789  0  1.948729  0  -1.292965  0  -0.622921  -0.803915  0  1.997482  0
