# generated using pymatgen
data_CdH10C11(N2Cl)2
_symmetry_space_group_name_H-M   'P 1'
_cell_length_a   8.46077224
_cell_length_b   9.45301002
_cell_length_c   9.54665075
_cell_angle_alpha   82.81544650
_cell_angle_beta   84.38691882
_cell_angle_gamma   62.20716577
_symmetry_Int_Tables_number   1
_chemical_formula_structural   CdH10C11(N2Cl)2
_chemical_formula_sum   'Cd2 H20 C22 N8 Cl4'
_cell_volume   669.47429062
_cell_formula_units_Z   2
loop_
 _symmetry_equiv_pos_site_id
 _symmetry_equiv_pos_as_xyz
  1  'x, y, z'
loop_
 _atom_site_type_symbol
 _atom_site_label
 _atom_site_symmetry_multiplicity
 _atom_site_fract_x
 _atom_site_fract_y
 _atom_site_fract_z
 _atom_site_occupancy
 _atom_site_pbe_bader_charge
 _atom_site_pbe_bader_spin_density
 _atom_site_pbe_cm5_charge
 _atom_site_pbe_ddec_charge
 _atom_site_pbe_ddec_spin_density
 _atom_site_pbe_ddec_sum_bond_order
 _atom_site_pbe_magmom
Cd  Cd0  1  0.55456638  0.97960494  0.80209280  1  1.130325  0  0.629105  0.775176  0  2.39533  0
Cd  Cd1  1  0.44542887  0.02039518  0.19790657  1  1.130265  0  0.629096  0.775139  0  2.395332  0
H  H2  1  0.38318430  0.52250134  0.68386872  1  0.51442  0  0.313544  0.291199  0  0.948497  0
H  H3  1  0.61681166  0.47751188  0.31613300  1  0.514366  0  0.313566  0.29126  0  0.948429  0
H  H4  1  0.95664737  0.99656191  0.78297967  1  0.13452  0  0.134926  0.112197  0  1.002933  0
H  H5  1  0.04335487  0.00342146  0.21702346  1  0.134385  0  0.135003  0.112285  0  1.002918  0
H  H6  1  0.82956747  0.72755876  0.53361078  1  0.132815  0  0.106796  0.117109  0  1.032212  0
H  H7  1  0.17044003  0.27244072  0.46636563  1  0.132504  0  0.106862  0.117163  0  1.0322  0
H  H8  1  0.17403148  0.68522503  0.45519961  1  0.134469  0  0.125044  0.13254  0  1.001583  0
H  H9  1  0.82598425  0.31477695  0.54479567  1  0.134643  0  0.125067  0.132585  0  1.001562  0
H  H10  1  0.24567471  0.97534801  0.65089449  1  0.139244  0  0.122045  0.12235  0  0.9843  0
H  H11  1  0.75431088  0.02466206  0.34911901  1  0.139322  0  0.122026  0.122366  0  0.984084  0
H  H12  1  0.33127830  0.85601520  0.50555987  1  0.135265  0  0.103207  0.115248  0  1.047894  0
H  H13  1  0.66871465  0.14400653  0.49444933  1  0.135132  0  0.103286  0.115302  0  1.047728  0
H  H14  1  0.63262146  0.24377087  0.84535642  1  0.096328  0  0.081455  0.092503  0  1.091236  0
H  H15  1  0.36736913  0.75623878  0.15463786  1  0.09631  0  0.081459  0.092529  0  1.091208  0
H  H16  1  0.86947017  0.16768530  0.01582792  1  0.074539  0  0.080879  0.083585  0  1.061164  0
H  H17  1  0.13052681  0.83230644  0.98417034  1  0.074699  0  0.080915  0.083577  0  1.061214  0
H  H18  1  0.94400207  0.37062524  0.08929467  1  0.077819  0  0.092553  0.094243  0  1.032576  0
H  H19  1  0.05600263  0.62936523  0.91070939  1  0.077849  0  0.092544  0.094212  0  1.032636  0
H  H20  1  0.79187549  0.65590385  0.98770888  1  0.116328  0  0.090669  0.108687  0  1.066544  0
H  H21  1  0.20813045  0.34409137  0.01229652  1  0.116517  0  0.090659  0.108714  0  1.066537  0
C  C22  1  0.96598242  0.91753721  0.70582219  1  0.997062  0  0.140011  0.090943  0  3.910882  0
C  C23  1  0.03400982  0.08245937  0.29417477  1  0.996941  0  0.139942  0.090781  0  3.911061  0
C  C24  1  0.90810483  0.77472834  0.57608033  1  0.418079  0  -0.001882  -0.022508  0  3.991737  0
C  C25  1  0.09190299  0.22526311  0.42391494  1  0.4184  0  -0.001934  -0.022502  0  3.991493  0
C  C26  1  0.07816046  0.75262315  0.53593315  1  0.26476  0  -0.003263  -0.117077  0  3.908617  0
C  C27  1  0.92185212  0.24737067  0.46406769  1  0.264527  0  -0.003235  -0.117196  0  3.908705  0
C  C28  1  0.27747911  0.85852090  0.61560497  1  0.293997  0  -0.043955  -0.175479  0  3.895575  0
C  C29  1  0.72252148  0.14148522  0.38440466  1  0.294141  0  -0.044061  -0.175597  0  3.895463  0
C  C30  1  0.41778321  0.72945551  0.70621982  1  1.043094  0  0.231188  0.350439  0  3.96889  0
C  C31  1  0.58221678  0.27054459  0.29378438  1  1.043055  0  0.231165  0.350429  0  3.968773  0
C  C32  1  0.59045733  0.48986406  0.81405015  1  0.339241  0  0.091257  0.150996  0  4.019553  0
C  C33  1  0.40953977  0.51013956  0.18594754  1  0.339472  0  0.09119  0.150745  0  4.019519  0
C  C34  1  0.67236241  0.33073637  0.87192715  1  -0.039915  0  -0.106801  -0.176599  0  4.01838  0
C  C35  1  0.32763057  0.66927084  0.12806621  1  -0.039756  0  -0.106822  -0.176699  0  4.018574  0
C  C36  1  0.80228642  0.29104772  0.96896316  1  -0.01364  0  -0.107337  -0.086083  0  4.036518  0
C  C37  1  0.19770523  0.70895006  0.03103368  1  -0.013897  0  -0.10737  -0.085926  0  4.036619  0
C  C38  1  0.84527664  0.40657608  0.00968236  1  -0.044047  0  -0.101756  -0.08066  0  4.009718  0
C  C39  1  0.15471850  0.59341936  0.99032183  1  -0.044046  0  -0.101668  -0.08057  0  4.009768  0
C  C40  1  0.76342925  0.56540966  0.95206502  1  -0.029328  0  -0.097786  -0.156463  0  3.961764  0
C  C41  1  0.23656473  0.43459057  0.04793967  1  -0.029466  0  -0.097836  -0.156573  0  3.961872  0
C  C42  1  0.63675400  0.60578989  0.85071070  1  0.341815  0  0.081277  0.143946  0  4.039202  0
C  C43  1  0.36324600  0.39420778  0.14929069  1  0.341402  0  0.081252  0.144037  0  4.03914  0
N  N44  1  0.83966248  0.87830230  0.68154876  1  -1.207711  0  -0.355232  -0.295757  0  3.511714  0
N  N45  1  0.16033337  0.12169177  0.31844509  1  -1.207637  0  -0.355247  -0.29573  0  3.511634  0
N  N46  1  0.11289770  0.84399192  0.61932560  1  -1.252882  0  -0.242425  0.053032  0  3.778026  0
N  N47  1  0.88710293  0.15600931  0.38067629  1  -1.252671  0  -0.242395  0.053205  0  3.778309  0
N  N48  1  0.52796721  0.75328918  0.77941117  1  -1.20519  0  -0.354838  -0.387217  0  3.426038  0
N  N49  1  0.47203578  0.24670725  0.22059117  1  -1.205185  0  -0.354799  -0.38722  0  3.426051  0
N  N50  1  0.45267381  0.57239420  0.72179502  1  -1.279499  0  -0.376841  -0.318005  0  3.596342  0
N  N51  1  0.54732624  0.42760823  0.27820676  1  -1.279426  0  -0.376795  -0.317963  0  3.596142  0
Cl  Cl52  1  0.73033623  0.94913120  0.01949857  1  -0.635174  0  -0.285307  -0.481572  0  1.338634  0
Cl  Cl53  1  0.26967107  0.05086616  0.98049386  1  -0.635154  0  -0.285283  -0.481539  0  1.338685  0
Cl  Cl54  1  0.40300353  0.24380490  0.65580588  1  -0.676739  0  -0.346558  -0.536802  0  1.060485  0
Cl  Cl55  1  0.59699412  0.75620240  0.34419964  1  -0.67669  0  -0.346561  -0.536787  0  1.060511  0
