# generated using pymatgen
data_YbH12(C4O3)3
_symmetry_space_group_name_H-M   'P 1'
_cell_length_a   7.73927739
_cell_length_b   9.34366287
_cell_length_c   10.70731970
_cell_angle_alpha   68.92603309
_cell_angle_beta   71.10498421
_cell_angle_gamma   75.19231465
_symmetry_Int_Tables_number   1
_chemical_formula_structural   YbH12(C4O3)3
_chemical_formula_sum   'Yb2 H24 C24 O18'
_cell_volume   675.01942337
_cell_formula_units_Z   2
loop_
 _symmetry_equiv_pos_site_id
 _symmetry_equiv_pos_as_xyz
  1  'x, y, z'
loop_
 _atom_site_type_symbol
 _atom_site_label
 _atom_site_symmetry_multiplicity
 _atom_site_fract_x
 _atom_site_fract_y
 _atom_site_fract_z
 _atom_site_occupancy
 _atom_site_hle17_bader_spin_density
 _atom_site_hle17_ddec_charge
 _atom_site_hle17_ddec_spin_density
 _atom_site_hle17_ddec_sum_bond_order
 _atom_site_hle17_magmom
 _atom_site_hse06_10hf_bader_spin_density
 _atom_site_hse06_10hf_ddec_charge
 _atom_site_hse06_10hf_ddec_spin_density
 _atom_site_hse06_10hf_ddec_sum_bond_order
 _atom_site_hse06_10hf_magmom
 _atom_site_hse06_bader_spin_density
 _atom_site_hse06_ddec_charge
 _atom_site_hse06_ddec_spin_density
 _atom_site_hse06_ddec_sum_bond_order
 _atom_site_hse06_magmom
 _atom_site_pbe_bader_spin_density
 _atom_site_pbe_cm5_charge
 _atom_site_pbe_ddec_charge
 _atom_site_pbe_ddec_spin_density
 _atom_site_pbe_ddec_sum_bond_order
 _atom_site_pbe_magmom
Yb  Yb0  1  0.26651842  0.29537809  0.00367599  1  0  2.222968  0  1.770812  0  0  2.16807  0  2.086186  0  0  2.212913  0  2.047706  0  0  1.588174  2.123099  0  2.125455  0
Yb  Yb1  1  0.73348209  0.70462182  0.99632435  1  0  2.222963  0  1.770817  0  0  2.168039  0  2.086244  0  0  2.212884  0  2.047764  0  0  1.588188  2.12314  0  2.125385  0
H  H2  1  0.42202771  0.49440931  0.33170981  1  0  0.099568  0  0.96398  0  0  0.105892  0  1.032891  0  0  0.10956  0  1.030214  0  0  0.107106  0.102871  0  1.035576  0
H  H3  1  0.57797270  0.50559067  0.66829364  1  0  0.099623  0  0.963975  0  0  0.105925  0  1.032915  0  0  0.109586  0  1.030238  0  0  0.107146  0.102904  0  1.0356  0
H  H4  1  0.32573439  0.39062107  0.59158478  1  0  0.105871  0  0.946968  0  0  0.115502  0  1.007151  0  0  0.118738  0  1.005924  0  0  0.108229  0.112845  0  1.008588  0
H  H5  1  0.67426611  0.60937738  0.40841660  1  0  0.105851  0  0.947035  0  0  0.115474  0  1.00722  0  0  0.118707  0  1.005997  0  0  0.108221  0.112818  0  1.008658  0
H  H6  1  0.89701482  0.78499923  0.60140094  1  0  0.094624  0  0.983368  0  0  0.103471  0  1.046943  0  0  0.105784  0  1.046595  0  0  0.103324  0.101693  0  1.047182  0
H  H7  1  0.10298690  0.21500367  0.39860042  1  0  0.094644  0  0.983361  0  0  0.103485  0  1.04694  0  0  0.105795  0  1.046591  0  0  0.103338  0.101708  0  1.047175  0
H  H8  1  0.97655045  0.87831210  0.34338156  1  0  0.09845  0  0.943807  0  0  0.109428  0  1.002287  0  0  0.113008  0  1.000123  0  0  0.106453  0.106551  0  1.004334  0
H  H9  1  0.02345160  0.12168823  0.65662084  1  0  0.098469  0  0.943754  0  0  0.10949  0  1.00218  0  0  0.113072  0  1.000012  0  0  0.106466  0.106612  0  1.004229  0
H  H10  1  0.59058580  0.25857797  0.35558484  1  0  0.100746  0  0.954474  0  0  0.110155  0  1.016839  0  0  0.113227  0  1.0154  0  0  0.10749  0.107511  0  1.018713  0
H  H11  1  0.40941472  0.74142340  0.64441447  1  0  0.100773  0  0.954466  0  0  0.110177  0  1.016823  0  0  0.113251  0  1.015381  0  0  0.107498  0.107534  0  1.018696  0
H  H12  1  0.33087756  0.87324569  0.41751495  1  0  0.09934  0  0.982893  0  0  0.105857  0  1.049631  0  0  0.108184  0  1.050377  0  0  0.102471  0.104301  0  1.048931  0
H  H13  1  0.66912260  0.12675533  0.58248539  1  0  0.0993  0  0.982921  0  0  0.105818  0  1.04966  0  0  0.108145  0  1.050406  0  0  0.102456  0.104262  0  1.04896  0
H  H14  1  0.19079972  0.64029163  0.91756940  1  0  0.448558  0  0.834897  0  0  0.421565  0  0.894231  0  0  0.431277  0  0.879696  0  0  0.313826  0.413723  0  0.905801  0
H  H15  1  0.80920279  0.35970898  0.08242887  1  0  0.448543  0  0.834911  0  0  0.421545  0  0.894256  0  0  0.431258  0  0.879723  0  0  0.313815  0.413703  0  0.905828  0
H  H16  1  0.40914055  0.60544329  0.88836121  1  0  0.46248  0  0.829367  0  0  0.434353  0  0.887236  0  0  0.445152  0  0.871438  0  0  0.307648  0.425338  0  0.900394  0
H  H17  1  0.59086065  0.39455586  0.11163810  1  0  0.462481  0  0.829365  0  0  0.434353  0  0.887235  0  0  0.445154  0  0.871437  0  0  0.307647  0.425338  0  0.900394  0
H  H18  1  0.95273598  0.16670718  0.99484098  1  0  0.441628  0  0.853632  0  0  0.412079  0  0.914155  0  0  0.422241  0  0.899436  0  0  0.304411  0.404198  0  0.925535  0
H  H19  1  0.04726643  0.83329495  0.00515935  1  0  0.44165  0  0.853597  0  0  0.412112  0  0.914103  0  0  0.422273  0  0.899383  0  0  0.304433  0.404231  0  0.925481  0
H  H20  1  0.02442811  0.05818130  0.12349598  1  0  0.439768  0  0.836295  0  0  0.413459  0  0.899681  0  0  0.423256  0  0.885199  0  0  0.312309  0.405626  0  0.911169  0
H  H21  1  0.97557371  0.94182007  0.87650332  1  0  0.439863  0  0.836247  0  0  0.413551  0  0.899572  0  0  0.423348  0  0.885093  0  0  0.312354  0.405716  0  0.911065  0
H  H22  1  0.47166698  0.04950826  0.86920045  1  0  0.435172  0  0.864104  0  0  0.408788  0  0.921044  0  0  0.418252  0  0.907203  0  0  0.302896  0.400722  0  0.932805  0
H  H23  1  0.52833492  0.95049013  0.13079783  1  0  0.435017  0  0.864316  0  0  0.408628  0  0.921265  0  0  0.418091  0  0.907425  0  0  0.302829  0.400561  0  0.933026  0
H  H24  1  0.28405809  0.99651360  0.97335789  1  0  0.424298  0  0.884617  0  0  0.390862  0  0.953188  0  0  0.402532  0  0.935948  0  0  0.295221  0.381892  0  0.966304  0
H  H25  1  0.71594383  0.00348770  0.02663831  1  0  0.424328  0  0.884564  0  0  0.390882  0  0.953149  0  0  0.402552  0  0.935911  0  0  0.295228  0.381912  0  0.966266  0
C  C26  1  0.27237487  0.75811744  0.16868373  1  0  0.726272  0  3.814534  0  0  0.674975  0  4.106152  0  0  0.710645  0  4.094424  0  0  0.239022  0.649419  0  4.11479  0
C  C27  1  0.72762236  0.24188323  0.83131765  1  0  0.726329  0  3.814489  0  0  0.675018  0  4.106125  0  0  0.710687  0  4.094397  0  0  0.23906  0.649463  0  4.114761  0
C  C28  1  0.20669192  0.69261390  0.32206063  1  0  -0.066764  0  3.739959  0  0  -0.048239  0  3.977034  0  0  -0.054667  0  3.998291  0  0  -0.012982  -0.044461  0  3.963737  0
C  C29  1  0.79330668  0.30738379  0.67793972  1  0  -0.066708  0  3.739873  0  0  -0.048178  0  3.97695  0  0  -0.054606  0  3.998204  0  0  -0.012959  -0.044401  0  3.963655  0
C  C30  1  0.30476300  0.55520077  0.39208872  1  0  -0.066513  0  3.724218  0  0  -0.090105  0  3.976474  0  0  -0.091301  0  3.997422  0  0  -0.078212  -0.089589  0  3.962834  0
C  C31  1  0.69523421  0.44479844  0.60791370  1  0  -0.066608  0  3.724206  0  0  -0.090204  0  3.97651  0  0  -0.091389  0  3.997444  0  0  -0.078289  -0.089688  0  3.96287  0
C  C32  1  0.25262963  0.49850116  0.53586353  1  0  -0.065208  0  3.722031  0  0  -0.086401  0  3.967847  0  0  -0.088033  0  3.990239  0  0  -0.075785  -0.085625  0  3.953228  0
C  C33  1  0.74737253  0.50149910  0.46413577  1  0  -0.065208  0  3.72204  0  0  -0.08638  0  3.967852  0  0  -0.088015  0  3.990251  0  0  -0.075772  -0.085604  0  3.953235  0
C  C34  1  0.10640195  0.58260339  0.61164532  1  0  -0.061922  0  3.720645  0  0  -0.038216  0  3.944785  0  0  -0.045497  0  3.967813  0  0  -0.010213  -0.034275  0  3.930891  0
C  C35  1  0.89359762  0.41739687  0.38835399  1  0  -0.061943  0  3.720493  0  0  -0.038277  0  3.944633  0  0  -0.045559  0  3.967661  0  0  -0.01025  -0.034336  0  3.930741  0
C  C36  1  0.06008722  0.52873118  0.76658622  1  0  0.733298  0  3.849001  0  0  0.688972  0  4.139242  0  0  0.725071  0  4.126163  0  0  0.236377  0.662468  0  4.14798  0
C  C37  1  0.93991495  0.47127054  0.23341204  1  0  0.733276  0  3.848928  0  0  0.689053  0  4.139006  0  0  0.725152  0  4.125927  0  0  0.236425  0.662549  0  4.147747  0
C  C38  1  0.00844689  0.71995524  0.54146013  1  0  -0.062261  0  3.721309  0  0  -0.083831  0  3.966862  0  0  -0.084936  0  3.988419  0  0  -0.07909  -0.082913  0  3.951882  0
C  C39  1  0.99155042  0.28004244  0.45854023  1  0  -0.062219  0  3.721174  0  0  -0.083783  0  3.966752  0  0  -0.084882  0  3.988308  0  0  -0.07907  -0.082865  0  3.951774  0
C  C40  1  0.05463767  0.77273223  0.39762049  1  0  -0.062455  0  3.72752  0  0  -0.086747  0  3.981356  0  0  -0.087337  0  4.000283  0  0  -0.077943  -0.086411  0  3.968314  0
C  C41  1  0.94536378  0.22726734  0.60238088  1  0  -0.062518  0  3.727453  0  0  -0.086838  0  3.981278  0  0  -0.087431  0  4.000205  0  0  -0.077954  -0.086501  0  3.968237  0
C  C42  1  0.40123451  0.15389398  0.24006763  1  0  0.646783  0  3.906199  0  0  0.596341  0  4.208895  0  0  0.630925  0  4.197656  0  0  0.20238  0.571442  0  4.21547  0
C  C43  1  0.59876706  0.84610697  0.75992961  1  0  0.646828  0  3.906244  0  0  0.59635  0  4.208984  0  0  0.630934  0  4.197743  0  0  0.202392  0.57145  0  4.215565  0
C  C44  1  0.45582750  0.07381518  0.37274191  1  0  -0.056064  0  3.738909  0  0  -0.031807  0  3.966977  0  0  -0.038548  0  3.988606  0  0  -0.011449  -0.02788  0  3.953722  0
C  C45  1  0.54416941  0.92618805  0.62725843  1  0  -0.056137  0  3.73901  0  0  -0.031875  0  3.967077  0  0  -0.038618  0  3.988707  0  0  -0.01149  -0.027947  0  3.95382  0
C  C46  1  0.55071500  0.14563013  0.41928277  1  0  -0.056959  0  3.70173  0  0  -0.078957  0  3.945862  0  0  -0.079801  0  3.966043  0  0  -0.07403  -0.078636  0  3.932722  0
C  C47  1  0.44928423  0.85437123  0.58071653  1  0  -0.056976  0  3.701703  0  0  -0.07895  0  3.945815  0  0  -0.079794  0  3.965992  0  0  -0.074024  -0.078628  0  3.932668  0
C  C48  1  0.40565523  0.92757652  0.45406205  1  0  -0.06027  0  3.700639  0  0  -0.080468  0  3.942244  0  0  -0.081146  0  3.962606  0  0  -0.076547  -0.080126  0  3.928618  0
C  C49  1  0.59434565  0.07242519  0.54593621  1  0  -0.060201  0  3.700716  0  0  -0.080391  0  3.942312  0  0  -0.081068  0  3.962674  0  0  -0.076525  -0.080049  0  3.928686  0
O  O50  1  0.16328629  0.86329260  0.10279019  1  0  -0.665405  0  2.017639  0  0  -0.593584  0  2.227936  0  0  -0.619083  0  2.214776  0  0  -0.305918  -0.577265  0  2.239042  0
O  O51  1  0.83671188  0.13670772  0.89721222  1  0  -0.665435  0  2.017617  0  0  -0.593584  0  2.227902  0  0  -0.619085  0  2.214743  0  0  -0.305927  -0.577266  0  2.239009  0
O  O52  1  0.43735916  0.70986860  0.11058228  1  0  -0.739778  0  2.079295  0  0  -0.697672  0  2.339585  0  0  -0.72392  0  2.327631  0  0  -0.421433  -0.674639  0  2.345476  0
O  O53  1  0.56263970  0.29013096  0.88941910  1  0  -0.739823  0  2.079332  0  0  -0.697711  0  2.339606  0  0  -0.723957  0  2.327649  0  0  -0.421464  -0.674668  0  2.345505  0
O  O54  1  0.95004046  0.62030798  0.83128081  1  0  -0.752625  0  2.131072  0  0  -0.713888  0  2.393867  0  0  -0.739389  0  2.381444  0  0  -0.419551  -0.692108  0  2.399761  0
O  O55  1  0.04996003  0.37968902  0.16872161  1  0  -0.752667  0  2.13107  0  0  -0.71396  0  2.393789  0  0  -0.739454  0  2.381351  0  0  -0.419582  -0.692172  0  2.399692  0
O  O56  1  0.13835215  0.39505112  0.82565503  1  0  -0.738711  0  2.059406  0  0  -0.703191  0  2.317464  0  0  -0.727741  0  2.303761  0  0  -0.423937  -0.681788  0  2.3245  0
O  O57  1  0.86164497  0.60494961  0.17434945  1  0  -0.738685  0  2.059431  0  0  -0.703197  0  2.317443  0  0  -0.727747  0  2.303739  0  0  -0.423956  -0.681803  0  2.324473  0
O  O58  1  0.41866617  0.29531442  0.17415117  1  0  -0.673525  0  2.054271  0  0  -0.627114  0  2.290394  0  0  -0.651589  0  2.280665  0  0  -0.34574  -0.608009  0  2.296327  0
O  O59  1  0.58133025  0.70468798  0.82584503  1  0  -0.673537  0  2.05427  0  0  -0.627114  0  2.290408  0  0  -0.651591  0  2.280686  0  0  -0.345751  -0.608011  0  2.296333  0
O  O60  1  0.33009153  0.07973233  0.19309178  1  0  -0.720404  0  2.03016  0  0  -0.678547  0  2.274484  0  0  -0.702577  0  2.263854  0  0  -0.385976  -0.658359  0  2.279804  0
O  O61  1  0.66990804  0.92026793  0.80690752  1  0  -0.72043  0  2.030206  0  0  -0.678554  0  2.274556  0  0  -0.702583  0  2.263926  0  0  -0.385958  -0.658373  0  2.27987  0
O  O62  1  0.29564876  0.55565404  0.92749880  1  0  -0.925429  0  1.861947  0  0  -0.892907  0  2.05576  0  0  -0.910045  0  2.023368  0  0  -0.654003  -0.876671  0  2.07983  0
O  O63  1  0.70435246  0.44434657  0.07249947  1  0  -0.92542  0  1.861951  0  0  -0.892905  0  2.055803  0  0  -0.910035  0  2.02339  0  0  -0.654  -0.876679  0  2.079867  0
O  O64  1  0.99760424  0.16881675  0.07154213  1  0  -0.8848  0  1.890684  0  0  -0.842564  0  2.076081  0  0  -0.861592  0  2.045444  0  0  -0.621185  -0.826332  0  2.098211  0
O  O65  1  0.00239982  0.83118573  0.92845716  1  0  -0.884911  0  1.890607  0  0  -0.84269  0  2.075959  0  0  -0.861718  0  2.045316  0  0  -0.621239  -0.82647  0  2.09809  0
O  O66  1  0.34345067  0.08975038  0.91158521  1  0  -0.920696  0  1.913268  0  0  -0.885496  0  2.101585  0  0  -0.903537  0  2.06969  0  0  -0.663346  -0.868599  0  2.125342  0
O  O67  1  0.65655159  0.91024981  0.08841099  1  0  -0.920549  0  1.913353  0  0  -0.885343  0  2.10169  0  0  -0.903384  0  2.069797  0  0  -0.663282  -0.868454  0  2.125437  0
