# generated using pymatgen
data_CoH22C30N3O4
_symmetry_space_group_name_H-M   'P 1'
_cell_length_a   10.72815311
_cell_length_b   13.10237958
_cell_length_c   22.81907458
_cell_angle_alpha   97.97089403
_cell_angle_beta   100.32938609
_cell_angle_gamma   100.51741675
_symmetry_Int_Tables_number   1
_chemical_formula_structural   CoH22C30N3O4
_chemical_formula_sum   'Co4 H88 C120 N12 O16'
_cell_volume   3053.45032995
_cell_formula_units_Z   4
loop_
 _symmetry_equiv_pos_site_id
 _symmetry_equiv_pos_as_xyz
  1  'x, y, z'
loop_
 _atom_site_type_symbol
 _atom_site_label
 _atom_site_symmetry_multiplicity
 _atom_site_fract_x
 _atom_site_fract_y
 _atom_site_fract_z
 _atom_site_occupancy
 _atom_site_pbe_bader_charge
 _atom_site_pbe_bader_spin_density
 _atom_site_pbe_cm5_charge
 _atom_site_pbe_ddec_charge
 _atom_site_pbe_ddec_spin_density
 _atom_site_pbe_ddec_sum_bond_order
 _atom_site_pbe_magmom
Co  Co0  1  0.12006592  0.58391237  0.23435130  1  1.290219  2.600464  0.676602  0.878422  2.850623  2.601279  2.581
Co  Co1  1  0.87993761  0.41609106  0.76564694  1  1.290195  2.600463  0.676614  0.87843  2.850616  2.601245  2.581
Co  Co2  1  0.37326168  0.37295757  0.26470488  1  1.286646  2.588547  0.670136  0.87187  2.827752  2.549661  2.569
Co  Co3  1  0.62673698  0.62703798  0.73529325  1  1.28673  2.588521  0.670141  0.87182  2.827724  2.549684  2.569
H  H4  1  0.08377103  0.13484073  0.21361734  1  0.074665  0.000134  0.107097  0.119181  -2.5e-05  0.994192  0.0
H  H5  1  0.91622566  0.86516572  0.78637442  1  0.07456  0.000134  0.107119  0.11926  -2.5e-05  0.994134  0.0
H  H6  1  0.41817791  0.82090642  0.27869860  1  0.086688  0.000251  0.106137  0.119968  5.8e-05  0.997127  0.0
H  H7  1  0.58182739  0.17910018  0.72130090  1  0.086664  0.000251  0.106135  0.119966  5.8e-05  0.997117  0.0
H  H8  1  0.66227052  0.60679630  0.32803712  1  0.083763  0.000181  0.103982  0.109518  1e-05  1.016768  0.0
H  H9  1  0.33772608  0.39320233  0.67195800  1  0.083981  0.000181  0.103915  0.109445  1e-05  1.01681  0.0
H  H10  1  0.83712336  0.35502687  0.18321933  1  0.064301  0.000256  0.100003  0.101237  7e-05  1.040513  0.0
H  H11  1  0.16286796  0.64497335  0.81677635  1  0.064062  0.000256  0.100011  0.101303  7e-05  1.040452  0.0
H  H12  1  0.45840699  0.04046001  0.27504680  1  0.062109  0.000567  0.104113  0.113303  0.000323  0.997942  0.0
H  H13  1  0.54160223  0.95954344  0.72495235  1  0.061988  0.000567  0.10408  0.113188  0.000323  0.998036  0.0
H  H14  1  0.04230391  0.91258648  0.21104331  1  0.12705  0.000655  0.104287  0.115405  0.000389  0.995469  0.0
H  H15  1  0.95769976  0.08742100  0.78896138  1  0.127  0.000655  0.104315  0.115419  0.000389  0.995555  0.0
H  H16  1  0.18627788  0.97207452  0.45376358  1  0.066682  6e-05  0.101798  0.101853  2.9e-05  0.990803  0.0
H  H17  1  0.81372263  0.02792816  0.54623699  1  0.066669  6e-05  0.101774  0.101841  2.9e-05  0.990788  0.0
H  H18  1  0.93735135  0.18308679  0.35128920  1  0.074325  5e-06  0.09706  0.104283  -2.4e-05  1.029574  0.0
H  H19  1  0.06265375  0.81691520  0.64871652  1  0.074385  5e-06  0.09706  0.104287  -2.4e-05  1.029592  0.0
H  H20  1  0.61801496  0.49139873  0.23825820  1  0.120303  0.001515  0.118305  0.089203  0.00041  1.01346  0.001
H  H21  1  0.38198630  0.50859214  0.76174243  1  0.120282  0.001515  0.118299  0.089158  0.00041  1.01346  0.001
H  H22  1  0.86136968  0.75036152  0.34918099  1  0.037134  6.6e-05  0.097776  0.104614  -3.8e-05  1.03784  0.0
H  H23  1  0.13863200  0.24963478  0.65081525  1  0.037208  6.6e-05  0.097746  0.104581  -3.8e-05  1.037851  0.0
H  H24  1  0.63893119  0.21037142  0.15386815  1  0.078669  -6e-06  0.101451  0.112278  -8.5e-05  1.020525  0.0
H  H25  1  0.36105913  0.78963207  0.84613426  1  0.078935  -6e-06  0.101483  0.11225  -8.5e-05  1.020581  0.0
H  H26  1  0.56066599  0.77686190  0.14590975  1  0.008307  7.1e-05  0.096284  0.099389  4.3e-05  1.046057  0.0
H  H27  1  0.43933823  0.22314019  0.85410160  1  0.008306  7.1e-05  0.096261  0.099354  4.3e-05  1.046021  0.0
H  H28  1  0.78433467  0.30266643  0.33022939  1  0.072811  0.000551  0.099628  0.103323  0.000308  1.013876  0.0
H  H29  1  0.21567273  0.69733714  0.66977620  1  0.072735  0.000551  0.099632  0.103313  0.000308  1.013978  0.0
H  H30  1  0.71030677  0.65477802  0.16458370  1  0.113996  0.000426  0.096657  0.096036  0.000235  1.046849  0.0
H  H31  1  0.28969780  0.34522555  0.83542253  1  0.114707  0.000426  0.096642  0.096037  0.000235  1.04686  0.0
H  H32  1  0.78934062  0.00416671  0.43533204  1  0.084813  -1.3e-05  0.105481  0.10864  -1.8e-05  1.019505  0.0
H  H33  1  0.21065942  0.99583046  0.56466895  1  0.084781  -1.3e-05  0.10548  0.108582  -1.8e-05  1.019584  0.0
H  H34  1  0.03358095  0.04058022  0.35597661  1  0.075598  2.4e-05  0.115373  0.098481  1.6e-05  0.985023  0.0
H  H35  1  0.96642436  0.95941536  0.64402338  1  0.07579  2.4e-05  0.115382  0.098529  1.6e-05  0.984946  0.0
H  H36  1  0.01077742  0.90308544  0.35206486  1  0.081222  -9.9e-05  0.118503  0.104749  -0.000122  0.9713  0.0
H  H37  1  0.98922414  0.09691020  0.64793789  1  0.081166  -9.9e-05  0.118481  0.104764  -0.000122  0.971336  0.0
H  H38  1  0.73680935  0.49050527  0.15427135  1  0.137407  0.001057  0.106793  0.129721  0.000562  1.040313  0.0
H  H39  1  0.26319531  0.50949507  0.84573026  1  0.137461  0.001057  0.106745  0.129658  0.000562  1.040287  0.0
H  H40  1  0.48653292  0.05220172  0.15160306  1  0.07853  0.000113  0.117809  0.105937  5.2e-05  0.972952  0.0
H  H41  1  0.51345770  0.94778834  0.84839662  1  0.078407  0.000114  0.117816  0.105946  5.2e-05  0.972993  0.0
H  H42  1  0.46781230  0.91409521  0.13544451  1  0.063248  -1.1e-05  0.117534  0.103667  -1.5e-05  0.961694  0.0
H  H43  1  0.53218582  0.08589808  0.86455954  1  0.063273  -1.1e-05  0.117502  0.103598  -1.5e-05  0.961769  0.0
H  H44  1  0.28789098  0.29516783  0.12998011  1  0.12074  0.001469  0.11837  0.095594  0.000276  0.998716  0.001
H  H45  1  0.71211551  0.70482140  0.87001645  1  0.120712  0.001469  0.118445  0.095707  0.000276  0.998708  0.001
H  H46  1  0.28992275  0.18920592  0.32717055  1  0.118432  0.001383  0.11696  0.09067  0.000261  1.006627  0.001
H  H47  1  0.71007603  0.81079365  0.67283227  1  0.118399  0.001383  0.116954  0.090605  0.000261  1.006634  0.001
H  H48  1  0.98588837  0.55889897  0.89035965  1  0.089061  0.001574  0.119476  0.089719  0.000301  0.98494  0.001
H  H49  1  0.01411502  0.44111480  0.10964461  1  0.089234  0.001574  0.119454  0.089747  0.000301  0.98485  0.001
H  H50  1  0.63652613  0.91451824  0.93999057  1  0.058707  -3.6e-05  0.102148  0.103008  -4.2e-05  1.001654  0.0
H  H51  1  0.36347373  0.08547818  0.06001211  1  0.058672  -3.6e-05  0.102151  0.103043  -4.2e-05  1.001651  0.0
H  H52  1  0.29324668  0.50731281  0.36342840  1  0.12313  0.001379  0.118536  0.090794  0.000131  1.018381  0.001
H  H53  1  0.70674235  0.49268585  0.63656784  1  0.123021  0.001378  0.118527  0.090801  0.000131  1.018425  0.001
H  H54  1  0.20415402  0.15789999  0.42023505  1  0.05976  0.000887  0.099256  0.101766  0.000432  1.040697  0.0
H  H55  1  0.79584442  0.84210193  0.57976748  1  0.059757  0.000887  0.099266  0.101804  0.000432  1.040633  0.0
H  H56  1  0.78398697  0.25996108  0.65065741  1  0.110763  0.001454  0.120602  0.097927  0.00024  0.991473  0.001
H  H57  1  0.21600423  0.74003127  0.34933898  1  0.110307  0.001453  0.120537  0.097904  0.00024  0.991462  0.001
H  H58  1  0.92179546  0.58601674  0.99050816  1  0.069381  0.000996  0.108027  0.117096  0.000482  0.99477  0.0
H  H59  1  0.07820536  0.41399072  0.00949542  1  0.069525  0.000996  0.108008  0.116974  0.000482  0.994665  0.0
H  H60  1  0.08785045  0.51928851  0.70400044  1  0.146806  0.001597  0.122049  0.099126  0.00041  0.990197  0.001
H  H61  1  0.91214980  0.48069844  0.29600069  1  0.14674  0.001597  0.122101  0.099217  0.00041  0.990215  0.001
H  H62  1  0.39177429  0.28488762  0.03961999  1  0.07797  0.000985  0.10282  0.109484  0.000473  1.007452  0.0
H  H63  1  0.60823892  0.71510559  0.96037873  1  0.077901  0.000985  0.102797  0.109469  0.000473  1.007452  0.0
H  H64  1  0.13307774  0.22582631  0.50930784  1  0.06315  2.9e-05  0.094025  0.097578  4.7e-05  0.999286  0.0
H  H65  1  0.86691930  0.77417396  0.49069050  1  0.063063  2.9e-05  0.09404  0.097602  4.7e-05  0.999317  0.0
H  H66  1  0.22080975  0.35452570  0.54242116  1  0.068274  -0.00073  0.102484  0.108675  -0.000587  0.972846  0.0
H  H67  1  0.77918333  0.64547384  0.45758074  1  0.068261  -0.00073  0.102475  0.10864  -0.000587  0.972897  0.0
H  H68  1  0.65855704  0.90507718  0.04896887  1  0.053899  2.1e-05  0.100022  0.099605  5e-06  1.021397  0.0
H  H69  1  0.34143056  0.09491212  0.95103270  1  0.053766  2.1e-05  0.100042  0.099595  5e-06  1.021411  0.0
H  H70  1  0.14577414  0.49890863  0.60246982  1  0.070091  0.001086  0.111045  0.123812  0.000519  0.988234  0.0
H  H71  1  0.85421960  0.50108615  0.39753004  1  0.069965  0.001087  0.110996  0.123723  0.000519  0.988235  0.0
H  H72  1  0.82552963  0.22918725  0.54527492  1  0.080413  0.000955  0.104255  0.112545  0.000469  1.006855  0.0
H  H73  1  0.17446787  0.77080748  0.45472174  1  0.080556  0.000954  0.104264  0.112571  0.000469  1.006802  0.0
H  H74  1  0.20805509  0.49067930  0.45664817  1  0.038789  0.00085  0.104211  0.110883  0.000371  1.008193  0.0
H  H75  1  0.79193895  0.50932410  0.54334884  1  0.038666  0.00085  0.104187  0.110867  0.000371  1.008079  0.0
H  H76  1  0.77747906  0.52626151  0.05626665  1  0.026642  4.2e-05  0.10063  0.106904  5.5e-05  0.984334  0.0
H  H77  1  0.22252167  0.47374198  0.94373575  1  0.026676  4.1e-05  0.100639  0.106905  5.5e-05  0.984391  0.0
H  H78  1  0.62221354  0.52508371  0.01429767  1  0.027926  -0.001138  0.095163  0.098572  -0.000924  0.985668  -0.001
H  H79  1  0.37778354  0.47491663  0.98570419  1  0.028325  -0.001137  0.095152  0.098548  -0.000924  0.985658  -0.001
H  H80  1  0.93954009  0.29091011  0.47046397  1  0.07531  2.5e-05  0.096214  0.099836  3.5e-05  0.98558  0.0
H  H81  1  0.06045654  0.70908859  0.52953466  1  0.075385  2.5e-05  0.096212  0.099871  3.5e-05  0.985546  0.0
H  H82  1  0.02838118  0.42258935  0.48627741  1  0.033631  -0.000489  0.09259  0.087769  -0.000379  1.023939  0.0
H  H83  1  0.97161356  0.57740935  0.51372150  1  0.033647  -0.000489  0.092591  0.087809  -0.000379  1.023945  0.0
H  H84  1  0.66353584  0.31957939  0.81843343  1  0.102135  0.001347  0.11659  0.085527  0.000196  1.025775  0.001
H  H85  1  0.33647537  0.68042803  0.18156794  1  0.102011  0.001347  0.116481  0.085332  0.000196  1.02581  0.001
H  H86  1  0.72249650  0.33239842  0.04956218  1  0.06947  -0.000772  0.100364  0.107044  -0.000629  0.962726  0.0
H  H87  1  0.27751366  0.66760502  0.95043661  1  0.069748  -0.000771  0.100357  0.107074  -0.000628  0.962787  0.0
H  H88  1  0.57443744  0.32136409  0.99880773  1  0.049193  0.000154  0.091577  0.083849  0.000133  1.015678  0.0
H  H89  1  0.42556720  0.67863622  0.00119256  1  0.049042  0.000154  0.091577  0.083885  0.000133  1.015675  0.0
H  H90  1  0.58249742  0.33932041  0.91360843  1  0.058797  0.000812  0.100158  0.103149  0.000393  1.039896  0.0
H  H91  1  0.41750938  0.66068462  0.08639152  1  0.058652  0.000813  0.100128  0.103113  0.000393  1.039883  0.0
C  C92  1  0.87643611  0.06743294  0.18716015  1  0.007332  0.000511  -0.021654  -0.026168  0.000243  4.054252  0.0
C  C93  1  0.12356080  0.93257049  0.81283886  1  0.007458  0.000511  -0.021627  -0.026115  0.000243  4.054369  0.0
C  C94  1  0.62493684  0.88902190  0.30562356  1  -0.057666  0.001088  -0.022195  -0.02433  0.000457  4.062959  0.001
C  C95  1  0.37506745  0.11098077  0.69437600  1  -0.058015  0.001088  -0.022186  -0.024429  0.000457  4.062869  0.001
C  C96  1  0.98621722  0.14909857  0.20130690  1  -0.027106  0.000562  -0.083408  -0.118816  -0.000163  3.955355  0.0
C  C97  1  0.01377720  0.85090636  0.79868807  1  -0.027428  0.000564  -0.083412  -0.119003  -0.000162  3.955478  0.0
C  C98  1  0.51542897  0.80739857  0.29333407  1  0.012856  -0.002786  -0.087389  -0.131591  -0.00318  3.972398  -0.002
C  C99  1  0.48457455  0.19260484  0.70666373  1  0.013165  -0.002785  -0.087376  -0.131557  -0.003179  3.972587  -0.002
C  C100  1  0.96989730  0.25233466  0.19979491  1  0.032729  0.008606  -0.036274  -0.071642  0.00446  4.035541  0.007
C  C101  1  0.03009651  0.74766789  0.80019939  1  0.033213  0.008605  -0.036247  -0.071406  0.004459  4.035407  0.007
C  C102  1  0.75154442  0.09058215  0.17002202  1  0.353125  -1.9e-05  0.101551  0.13982  -0.000212  4.005488  0.0
C  C103  1  0.24844937  0.90941656  0.82997682  1  0.353302  -1.6e-05  0.10144  0.139713  -0.000211  4.005655  0.0
C  C104  1  0.78073352  0.04305088  0.32625405  1  0.334336  -0.001501  0.095592  0.128078  -0.001695  4.022544  -0.001
C  C105  1  0.21927094  0.95694869  0.67374880  1  0.334413  -0.0015  0.095552  0.12816  -0.001695  4.022226  -0.001
C  C106  1  0.64499451  0.00133861  0.30577583  1  0.003076  0.000364  -0.024278  -0.028969  0.000101  4.062957  0.0
C  C107  1  0.35500982  0.99866410  0.69422681  1  0.003079  0.000364  -0.024268  -0.028933  0.000101  4.062661  0.0
C  C108  1  0.53067246  0.70595439  0.30137043  1  -0.025232  0.010549  -0.037144  -0.070574  0.005291  4.029851  0.009
C  C109  1  0.46932969  0.29404741  0.69862539  1  -0.026381  0.010549  -0.037131  -0.070585  0.00529  4.030026  0.009
C  C110  1  0.74952948  0.86726377  0.32543690  1  0.338112  -0.002686  0.0974  0.134977  -0.002913  4.016003  -0.002
C  C111  1  0.25047386  0.13273889  0.67456258  1  0.338078  -0.002685  0.097403  0.135027  -0.002912  4.015852  -0.002
C  C112  1  0.85571564  0.95453408  0.18479161  1  -0.006236  0.00066  -0.022851  -0.025426  0.000241  4.049907  0.001
C  C113  1  0.14428435  0.04547020  0.81521035  1  -0.006099  0.00066  -0.022785  -0.025353  0.000241  4.04979  0.001
C  C114  1  0.52656725  0.25110293  0.28775042  1  1.529371  -0.005478  0.180668  0.536733  -0.007114  4.245766  -0.006
C  C115  1  0.47343359  0.74889736  0.71224868  1  1.529414  -0.005479  0.180716  0.536743  -0.007114  4.245636  -0.006
C  C116  1  0.71915324  0.91440294  0.16621948  1  0.347915  -0.001853  0.098242  0.131888  -0.002019  4.033415  -0.001
C  C117  1  0.28085036  0.08560060  0.83378535  1  0.348006  -0.001853  0.098223  0.13192  -0.002019  4.033365  -0.001
C  C118  1  0.65522455  0.68650346  0.32140440  1  -0.020916  -0.001703  -0.090287  -0.093453  -0.002059  3.993046  -0.001
C  C119  1  0.34477320  0.31349598  0.67859131  1  -0.020076  -0.001704  -0.090254  -0.093424  -0.002059  3.993043  -0.001
C  C120  1  0.84505885  0.27337128  0.18321423  1  -0.028899  0.000962  -0.094156  -0.09814  0.000196  4.010898  0.0
C  C121  1  0.15493288  0.72663052  0.81678160  1  -0.029519  0.000964  -0.094184  -0.098231  0.000198  4.010786  0.0
C  C122  1  0.08431129  0.34159028  0.21630407  1  1.503098  -0.000549  0.214016  0.585692  -0.002376  4.194261  0.001
C  C123  1  0.91568008  0.65841385  0.78369015  1  1.503547  -0.000553  0.213927  0.585441  -0.002372  4.194355  0.001
C  C124  1  0.56243559  0.06941862  0.29208759  1  -0.07906  -0.000146  -0.085336  -0.126056  -0.000495  3.969961  0.0
C  C125  1  0.43757061  0.93058408  0.70791388  1  -0.07861  -0.000146  -0.085321  -0.12592  -0.000495  3.969951  0.0
C  C126  1  0.93756662  0.88509161  0.19620799  1  -0.080517  -0.000347  -0.082221  -0.115358  -0.000733  3.952373  0.0
C  C127  1  0.06243472  0.11491424  0.80379375  1  -0.080551  -0.000347  -0.082372  -0.115553  -0.000733  3.952601  0.0
C  C128  1  0.61415992  0.17779563  0.30125370  1  0.091869  0.002629  -0.031507  -0.051549  0.00143  4.02093  0.002
C  C129  1  0.38584324  0.82220628  0.69874790  1  0.09173  0.002629  -0.031514  -0.051597  0.00143  4.021102  0.002
C  C130  1  0.10392078  0.98454313  0.47386104  1  -0.084237  5.4e-05  -0.09264  -0.141126  2.9e-05  4.025957  0.0
C  C131  1  0.89607892  0.01545641  0.52614010  1  -0.084112  5.5e-05  -0.092577  -0.141076  2.9e-05  4.025894  0.0
C  C132  1  0.83354552  0.15132446  0.33552323  1  -0.02333  0.000718  -0.104496  -0.18395  0.000233  4.030832  0.001
C  C133  1  0.16645714  0.84867910  0.66448196  1  -0.023354  0.000718  -0.104412  -0.183889  0.000233  4.030741  0.001
C  C134  1  0.57145812  0.44688956  0.19331719  1  0.470228  -0.007786  0.04757  0.104217  -0.008263  3.935538  -0.005
C  C135  1  0.42854657  0.55310365  0.80668214  1  0.4706  -0.007788  0.047485  0.104286  -0.008263  3.935642  -0.005
C  C136  1  0.76594841  0.76633396  0.33352432  1  -0.006931  0.001272  -0.102955  -0.175725  0.000491  4.014449  0.001
C  C137  1  0.23405336  0.23366632  0.66647398  1  -0.006626  0.001271  -0.102914  -0.175655  0.000491  4.014438  0.001
C  C138  1  0.88428800  0.77698963  0.18815709  1  -0.007801  0.003342  -0.036271  -0.060025  0.001781  4.022425  0.002
C  C139  1  0.11571631  0.22301306  0.81184423  1  -0.007835  0.003342  -0.036187  -0.059873  0.001781  4.022391  0.002
C  C140  1  0.41455094  0.61827310  0.28963280  1  1.532826  -0.002987  0.214006  0.576608  -0.004556  4.204194  0.001
C  C141  1  0.58544890  0.38172711  0.71036182  1  1.532581  -0.002983  0.213932  0.576481  -0.004551  4.204476  0.001
C  C142  1  0.73455063  0.19315985  0.16715493  1  -0.021279  0.000491  -0.102263  -0.176667  0.000136  4.016984  0.0
C  C143  1  0.26543999  0.80684122  0.83284426  1  -0.020676  0.00049  -0.102275  -0.176701  0.000136  4.017017  0.0
C  C144  1  0.66513379  0.80670367  0.15861347  1  -0.04055  0.00104  -0.109337  -0.197923  0.000393  4.055154  0.001
C  C145  1  0.33487134  0.19329837  0.84139488  1  -0.040854  0.00104  -0.109396  -0.197961  0.000393  4.05522  0.001
C  C146  1  0.51141591  0.99382973  0.06188993  1  -0.022791  5.4e-05  -0.016822  0.079954  2.8e-05  3.982682  0.0
C  C147  1  0.48857555  0.00616351  0.93811182  1  -0.023192  5.4e-05  -0.016736  0.080021  2.8e-05  3.982584  0.0
C  C148  1  0.97110966  0.70301153  0.20113116  1  1.537016  -0.005251  0.183859  0.541561  -0.006807  4.23792  -0.006
C  C149  1  0.02889201  0.29699194  0.79886955  1  1.536566  -0.005253  0.183911  0.541597  -0.006806  4.237739  -0.006
C  C150  1  0.74836644  0.21769604  0.32351914  1  -0.074148  -0.000314  -0.089575  -0.086924  -0.00066  3.995784  0.0
C  C151  1  0.25163642  0.78230829  0.67648569  1  -0.0743  -0.000313  -0.089613  -0.086941  -0.000659  3.996088  0.0
C  C152  1  0.98621799  0.98666171  0.43644796  1  0.010652  7e-06  -0.015049  0.079424  1e-06  3.983276  0.0
C  C153  1  0.01378267  0.01333783  0.56355326  1  0.010574  7e-06  -0.015082  0.079475  1e-06  3.983232  0.0
C  C154  1  0.74892270  0.73895498  0.16942009  1  -0.040683  -0.000879  -0.092706  -0.086672  -0.001143  4.00235  0.0
C  C155  1  0.25108145  0.26104700  0.83058511  1  -0.041237  -0.00088  -0.092672  -0.086684  -0.001143  4.002428  0.0
C  C156  1  0.88217907  0.00226346  0.46341165  1  -0.106304  2.7e-05  -0.094264  -0.135208  1e-05  3.996074  0.0
C  C157  1  0.11782024  0.99773451  0.53659022  1  -0.106184  2.7e-05  -0.094245  -0.135096  1e-05  3.99602  0.0
C  C158  1  0.97386370  0.97248746  0.36831976  1  0.343579  -1.4e-05  -0.040967  -0.098702  -3.2e-05  3.936942  0.0
C  C159  1  0.02613749  0.02751050  0.63168138  1  0.343482  -1.3e-05  -0.040969  -0.098809  -3.2e-05  3.936872  0.0
C  C160  1  0.63700085  0.44546030  0.14598748  1  -0.070154  0.005748  -0.091539  -0.197941  0.00266  3.934072  0.005
C  C161  1  0.36300413  0.55453765  0.85401310  1  -0.070839  0.005747  -0.091491  -0.198013  0.00266  3.934086  0.005
C  C162  1  0.52456355  0.98875720  0.12867158  1  0.319321  1e-05  -0.04025  -0.095663  7e-06  3.920346  0.0
C  C163  1  0.47543000  0.01123682  0.87132951  1  0.319918  1e-05  -0.040342  -0.095762  7e-06  3.92069  0.0
C  C164  1  0.38701314  0.33697196  0.13268623  1  0.506822  -0.008074  0.04601  0.100096  -0.008869  3.959889  -0.005
C  C165  1  0.61299567  0.66301886  0.86731151  1  0.507222  -0.008074  0.046036  0.09999  -0.008869  3.959781  -0.005
C  C166  1  0.26986180  0.25345108  0.35745004  1  0.494937  -0.010228  0.044079  0.095027  -0.010883  3.952431  -0.007
C  C167  1  0.73013756  0.74655082  0.64255081  1  0.494463  -0.010229  0.04412  0.095202  -0.010884  3.95239  -0.007
C  C168  1  0.89717908  0.51146781  0.89774198  1  0.488332  -0.010892  0.04832  0.105102  -0.011648  3.950792  -0.007
C  C169  1  0.10282368  0.48854356  0.10226029  1  0.488698  -0.010894  0.048385  0.105231  -0.011651  3.950563  -0.007
C  C170  1  0.57688138  0.95262065  0.96638879  1  -0.006549  -7e-06  -0.094233  -0.135934  -1e-05  4.009326  0.0
C  C171  1  0.42311408  0.04737339  0.03361334  1  -0.006562  -8e-06  -0.094192  -0.135948  -1e-05  4.009279  0.0
C  C172  1  0.27206647  0.43122788  0.37767731  1  0.482136  -0.00726  0.048659  0.108278  -0.00797  3.939885  -0.005
C  C173  1  0.72792868  0.56877240  0.62232131  1  0.48225  -0.007264  0.04872  0.108251  -0.007973  3.939942  -0.005
C  C174  1  0.22150841  0.23673362  0.40885598  1  -0.095205  0.005426  -0.095324  -0.204517  0.002395  3.981137  0.004
C  C175  1  0.77849254  0.76327067  0.59114693  1  -0.09552  0.005426  -0.095322  -0.204523  0.002395  3.981177  0.004
C  C176  1  0.19770540  0.32149486  0.44658271  1  -0.041437  -0.013043  0.008815  0.164389  -0.013602  3.9573  -0.008
C  C177  1  0.80229419  0.67850784  0.55341953  1  -0.041135  -0.013047  0.008775  0.164306  -0.013606  3.957218  -0.008
C  C178  1  0.86293211  0.31058886  0.63748798  1  0.524983  -0.01034  0.043496  0.091169  -0.011123  3.967818  -0.007
C  C179  1  0.13706288  0.68940351  0.36250874  1  0.525402  -0.010341  0.04358  0.091306  -0.011123  3.967719  -0.007
C  C180  1  0.57453482  0.38471778  0.08932897  1  0.019547  -0.011944  0.003986  0.152782  -0.012479  3.968134  -0.008
C  C181  1  0.42547259  0.61527859  0.91067126  1  0.019747  -0.011943  0.003867  0.152769  -0.012478  3.968326  -0.008
C  C182  1  0.86047875  0.52636110  0.95336278  1  -0.020212  0.005841  -0.0901  -0.200763  0.002647  3.968671  0.005
C  C183  1  0.13952057  0.47364790  0.04663947  1  -0.020705  0.005842  -0.090133  -0.200737  0.002647  3.968312  0.005
C  C184  1  0.03316287  0.45554854  0.66749643  1  0.491963  -0.008672  0.053543  0.106093  -0.009179  3.939262  -0.006
C  C185  1  0.96683439  0.54444152  0.33250292  1  0.491771  -0.00867  0.053606  0.106137  -0.009179  3.939186  -0.006
C  C186  1  0.44572513  0.33184770  0.08305381  1  -0.149809  0.004719  -0.09529  -0.209133  0.002106  3.994079  0.004
C  C187  1  0.55428410  0.66814473  0.91694541  1  -0.149602  0.00472  -0.095236  -0.209015  0.002107  3.994022  0.004
C  C188  1  0.14723837  0.30854658  0.50306371  1  -0.043505  -0.000866  -0.153865  -0.189971  -0.001217  3.92221  0.0
C  C189  1  0.85276004  0.69145529  0.49693618  1  -0.043328  -0.000866  -0.15389  -0.189914  -0.001216  3.922251  0.0
C  C190  1  0.58841204  0.94657670  0.02758892  1  -0.092062  2e-05  -0.094507  -0.129631  1.6e-05  3.994437  0.0
C  C191  1  0.41158015  0.05341574  0.97241150  1  -0.091772  2e-05  -0.094579  -0.129685  1.6e-05  3.994365  0.0
C  C192  1  0.98877674  0.36199564  0.56457492  1  -0.079369  -0.01403  0.00468  0.152499  -0.014581  3.977906  -0.009
C  C193  1  0.01121949  0.63800150  0.43542444  1  -0.079356  -0.01403  0.004668  0.152484  -0.014581  3.977884  -0.009
C  C194  1  0.06365761  0.44388251  0.61058031  1  -0.062531  0.005598  -0.089694  -0.202688  0.002588  3.959337  0.004
C  C195  1  0.93633856  0.55611070  0.38941919  1  -0.062561  0.005598  -0.089688  -0.20256  0.002588  3.95906  0.004
C  C196  1  0.74542612  0.46471741  0.96123174  1  -0.041162  -0.014706  0.007843  0.161117  -0.01531  3.955533  -0.009
C  C197  1  0.25457655  0.53528999  0.03876848  1  -0.041317  -0.014712  0.007892  0.161108  -0.015315  3.955338  -0.009
C  C198  1  0.88669151  0.29429264  0.57928655  1  -0.064717  0.005436  -0.093719  -0.204214  0.002405  3.982126  0.004
C  C199  1  0.11330558  0.70570054  0.42071127  1  -0.06521  0.005435  -0.093698  -0.204224  0.002404  3.982067  0.004
C  C200  1  0.22397697  0.42069122  0.42955246  1  0.018318  0.004166  -0.089319  -0.190172  0.001912  3.957802  0.003
C  C201  1  0.77602184  0.57931222  0.57044714  1  0.018512  0.004167  -0.089276  -0.190064  0.001912  3.957667  0.003
C  C202  1  0.69860638  0.47888297  0.01968077  1  0.022384  -0.000525  -0.152981  -0.194369  -0.00094  3.930411  0.0
C  C203  1  0.30139297  0.52111890  0.98031876  1  0.022433  -0.000524  -0.152935  -0.194218  -0.00094  3.930488  0.0
C  C204  1  0.01940930  0.34699308  0.50269080  1  -0.05645  -0.000563  -0.155404  -0.195172  -0.000937  3.943341  0.0
C  C205  1  0.98058524  0.65300484  0.49730803  1  -0.056551  -0.000563  -0.15538  -0.195291  -0.000938  3.94354  0.0
C  C206  1  0.71732062  0.37836427  0.85758244  1  0.482372  -0.009675  0.047275  0.104647  -0.010329  3.954078  -0.006
C  C207  1  0.28268646  0.62164550  0.14241832  1  0.482409  -0.009679  0.04727  0.10479  -0.010332  3.954109  -0.006
C  C208  1  0.64297586  0.37346492  0.03758383  1  -0.050801  -0.000404  -0.153736  -0.188858  -0.000751  3.945553  0.0
C  C209  1  0.35703047  0.62653461  0.96241655  1  -0.05086  -0.000404  -0.153751  -0.189029  -0.000751  3.945771  0.0
C  C210  1  0.67355291  0.38962477  0.91121247  1  -0.027193  0.005354  -0.093865  -0.195468  0.002421  3.965427  0.004
C  C211  1  0.32645166  0.61038263  0.08878791  1  -0.027211  0.005355  -0.093786  -0.195385  0.002422  3.965358  0.004
N  N212  1  0.65838746  0.99765947  0.15826688  1  -1.215886  0.000581  -0.254634  -0.069394  0.00029  3.722832  0.001
N  N213  1  0.34160867  0.00234086  0.84173490  1  -1.216247  0.000581  -0.254534  -0.069243  0.00029  3.723053  0.001
N  N214  1  0.84214667  0.96035807  0.33598513  1  -1.241629  -0.000672  -0.258691  -0.073323  -0.000541  3.724583  0.0
N  N215  1  0.15785893  0.03964226  0.66401612  1  -1.241777  -0.000673  -0.258703  -0.073436  -0.000541  3.724484  0.0
N  N216  1  0.44925089  0.39234211  0.18755103  1  -1.227076  0.051858  -0.329367  -0.248672  0.027502  3.587155  0.047
N  N217  1  0.55075434  0.60764953  0.81244823  1  -1.227508  0.051856  -0.329304  -0.248624  0.027499  3.587288  0.047
N  N218  1  0.29602812  0.34935485  0.34192080  1  -1.207553  0.047274  -0.320487  -0.236668  0.025109  3.558623  0.044
N  N219  1  0.70396854  0.65064389  0.65808003  1  -1.207228  0.047276  -0.320552  -0.236831  0.02511  3.558805  0.044
N  N220  1  0.82726232  0.43866978  0.85011690  1  -1.211817  0.047983  -0.324965  -0.249955  0.025204  3.586114  0.046
N  N221  1  0.17274254  0.56134238  0.14988517  1  -1.211778  0.04799  -0.324969  -0.250034  0.025208  3.586099  0.046
N  N222  1  0.93378417  0.39057271  0.68096979  1  -1.212106  0.050138  -0.325212  -0.244059  0.026564  3.582  0.048
N  N223  1  0.06621022  0.60941731  0.31902758  1  -1.211356  0.050135  -0.325328  -0.244395  0.026562  3.582146  0.048
O  O224  1  0.19554460  0.32202876  0.21359489  1  -1.157124  0.087927  -0.315163  -0.563381  0.045947  2.447432  0.073
O  O225  1  0.80445135  0.67797465  0.78640272  1  -1.157237  0.087924  -0.315124  -0.563302  0.045947  2.447687  0.073
O  O226  1  0.30382158  0.64154853  0.27523420  1  -1.17042  0.089811  -0.318893  -0.572264  0.047806  2.495387  0.075
O  O227  1  0.69617931  0.35845568  0.72476431  1  -1.17034  0.089816  -0.318864  -0.572236  0.047808  2.495472  0.075
O  O228  1  0.43224852  0.52686572  0.29627529  1  -1.160713  0.078246  -0.313285  -0.557876  0.04133  2.480794  0.065
O  O229  1  0.56775255  0.47313203  0.70371444  1  -1.160794  0.078251  -0.313214  -0.557745  0.041328  2.480869  0.065
O  O230  1  0.56200843  0.34898913  0.31096609  1  -1.155281  0.075592  -0.327691  -0.555765  0.038799  2.171567  0.065
O  O231  1  0.43798839  0.65101032  0.68903086  1  -1.155365  0.075597  -0.327742  -0.555782  0.038802  2.171443  0.065
O  O232  1  0.41430923  0.21502515  0.25295055  1  -1.158554  0.078577  -0.332162  -0.568841  0.040581  2.191831  0.068
O  O233  1  0.58569092  0.78496883  0.74704803  1  -1.158559  0.078577  -0.332135  -0.568762  0.040579  2.191849  0.068
O  O234  1  0.92694701  0.60287424  0.18879556  1  -1.171376  0.076568  -0.324446  -0.564907  0.039502  2.203116  0.066
O  O235  1  0.07305610  0.39712758  0.81120165  1  -1.170891  0.076567  -0.324445  -0.564918  0.039499  2.203075  0.066
O  O236  1  0.06351064  0.43304245  0.23258043  1  -1.165728  0.102577  -0.315358  -0.569037  0.05412  2.507726  0.087
O  O237  1  0.93648047  0.56696080  0.76740888  1  -1.166055  0.102593  -0.315307  -0.568916  0.054119  2.507626  0.087
O  O238  1  0.09073925  0.73973278  0.22615575  1  -1.150336  0.085128  -0.32979  -0.558543  0.04416  2.203092  0.073
O  O239  1  0.90926035  0.26026994  0.77384737  1  -1.150396  0.085123  -0.329816  -0.558574  0.044157  2.203037  0.073
