# generated using pymatgen
data_ZnH17(C7O2)3
_symmetry_space_group_name_H-M   'P 1'
_cell_length_a   7.87006074
_cell_length_b   17.74699408
_cell_length_c   34.80526667
_cell_angle_alpha   89.93003790
_cell_angle_beta   90.14857172
_cell_angle_gamma   90.92977916
_symmetry_Int_Tables_number   1
_chemical_formula_structural   ZnH17(C7O2)3
_chemical_formula_sum   'Zn4 H68 C84 O24'
_cell_volume   4860.58907604
_cell_formula_units_Z   4
loop_
 _symmetry_equiv_pos_site_id
 _symmetry_equiv_pos_as_xyz
  1  'x, y, z'
loop_
 _atom_site_type_symbol
 _atom_site_label
 _atom_site_symmetry_multiplicity
 _atom_site_fract_x
 _atom_site_fract_y
 _atom_site_fract_z
 _atom_site_occupancy
 _atom_site_pbe_bader_charge
 _atom_site_pbe_bader_spin_density
 _atom_site_pbe_cm5_charge
 _atom_site_pbe_ddec_charge
 _atom_site_pbe_ddec_spin_density
 _atom_site_pbe_ddec_sum_bond_order
 _atom_site_pbe_magmom
Zn  Zn0  1  0.59057317  0.00240028  0.50015212  1  1.290361  0  0.714859  0.931571  0  2.156146  0
Zn  Zn1  1  0.24973554  0.99948552  0.49919007  1  1.300211  0  0.720975  0.947557  0  2.172677  0
Zn  Zn2  1  0.31932533  0.99556492  0.00011175  1  1.290368  0  0.715041  0.931663  0  2.158932  0
Zn  Zn3  1  0.66037555  0.99974520  0.99963610  1  1.305218  0  0.720147  0.946637  0  2.170485  0
H  H4  1  0.41512857  0.09228784  0.75248050  1  0.036869  0  0.103579  0.102184  0  0.992067  0
H  H5  1  0.46706732  0.92219614  0.74749645  1  0.064867  0  0.102628  0.101803  0  0.991823  0
H  H6  1  0.44777039  0.07479328  0.24835841  1  0.022923  0  0.102758  0.102064  0  0.99195  0
H  H7  1  0.48335151  0.90370543  0.25170565  1  0.016757  0  0.101704  0.098359  0  1.004822  0
H  H8  1  0.61862686  0.75987819  0.50136293  1  0.15007  0  0.117767  0.1302  0  0.981532  0
H  H9  1  0.60597128  0.62189477  0.49936596  1  0.122441  0  0.108744  0.123654  0  1.024114  0
H  H10  1  0.07206545  0.76706020  0.49530595  1  0.146588  0  0.117946  0.130151  0  0.994629  0
H  H11  1  0.60995648  0.23588071  0.49681206  1  0.151198  0  0.116433  0.129014  0  0.998306  0
H  H12  1  0.06254738  0.23662642  0.49970339  1  0.13349  0  0.118428  0.128234  0  0.978734  0
H  H13  1  0.06809182  0.37483148  0.49857662  1  0.17326  0  0.107984  0.124474  0  1.030642  0
H  H14  1  0.29354061  0.75506955  0.00095719  1  0.132188  0  0.117048  0.131499  0  0.9877  0
H  H15  1  0.30497103  0.61744216  0.00242505  1  0.136017  0  0.108945  0.122416  0  1.017132  0
H  H16  1  0.84076762  0.76904493  0.00475016  1  0.156775  0  0.117879  0.129352  0  0.994667  0
H  H17  1  0.29808671  0.23031426  0.00140466  1  0.154887  0  0.116825  0.129816  0  0.998265  0
H  H18  1  0.84570074  0.23981392  0.00017049  1  0.141978  0  0.118272  0.130395  0  0.983774  0
H  H19  1  0.83902037  0.37763876  0.00152723  1  0.128291  0  0.108268  0.122115  0  1.022141  0
H  H20  1  0.07563222  0.91606199  0.88507870  1  0.016919  0  0.095741  0.133769  0  0.982902  0
H  H21  1  0.25668506  0.88349366  0.90954341  1  0.045993  0  0.091534  0.133819  0  1.007187  0
H  H22  1  0.20639478  0.84825626  0.86315066  1  0.03469  0  0.089973  0.122264  0  1.007831  0
H  H23  1  0.23211600  0.86355318  0.79570278  1  0.00319  0  0.089883  0.119562  0  0.996512  0
H  H24  1  0.16746678  0.94486958  0.77061009  1  0.055115  0  0.086894  0.120925  0  1.035766  0
H  H25  1  0.06389618  0.91748711  0.81390459  1  0.023725  0  0.091785  0.126428  0  0.998384  0
H  H26  1  0.75992378  0.09592876  0.89624665  1  0.049142  0  0.096212  0.137357  0  0.979379  0
H  H27  1  0.57733008  0.12802090  0.91994005  1  0.047131  0  0.088154  0.127976  0  1.024061  0
H  H28  1  0.64687648  0.17320139  0.87727854  1  0.023204  0  0.08986  0.122458  0  1.012135  0
H  H29  1  0.60540439  0.18519378  0.81182843  1  0.023253  0  0.091121  0.121455  0  0.994839  0
H  H30  1  0.66158536  0.11523192  0.77793749  1  0.016763  0  0.089538  0.122295  0  1.024148  0
H  H31  1  0.77430234  0.12367286  0.82175118  1  0.048995  0  0.094945  0.131291  0  0.990749  0
H  H32  1  0.20915244  0.12929730  0.69877645  1  0.049757  0  0.090242  0.119683  0  0.996029  0
H  H33  1  0.16166262  0.04199472  0.72106206  1  0.036569  0  0.08748  0.120823  0  1.034724  0
H  H34  1  0.07571929  0.06318631  0.67511160  1  0.021565  0  0.092177  0.128325  0  0.999329  0
H  H35  1  0.12179786  0.06752058  0.60531420  1  0.062368  0  0.094468  0.133523  0  0.987346  0
H  H36  1  0.29992327  0.11591427  0.58637612  1  0.05323  0  0.089317  0.131166  0  1.012385  0
H  H37  1  0.21453155  0.14372424  0.63114687  1  0.038206  0  0.089916  0.122773  0  1.006407  0
H  H38  1  0.68926949  0.85105245  0.70243231  1  0.030771  0  0.091448  0.122384  0  0.991637  0
H  H39  1  0.74005731  0.93573167  0.72715582  1  0.044356  0  0.090507  0.124658  0  1.014918  0
H  H40  1  0.84809541  0.91309583  0.68427988  1  0.049494  0  0.093468  0.130033  0  1.003286  0
H  H41  1  0.85449082  0.93969834  0.61128175  1  0.059772  0  0.09428  0.133135  0  0.988537  0
H  H42  1  0.69057351  0.89249432  0.58603874  1  0.07198  0  0.091957  0.135975  0  1.007381  0
H  H43  1  0.75873230  0.85728745  0.63108321  1  0.020505  0  0.089995  0.123468  0  1.00932  0
H  H44  1  0.05598617  0.06615389  0.11290142  1  0.040931  0  0.094859  0.133324  0  0.984961  0
H  H45  1  0.22001703  0.10874205  0.08581871  1  0.035279  0  0.091781  0.135684  0  1.009113  0
H  H46  1  0.16272116  0.14749797  0.13082986  1  0.017698  0  0.089948  0.122407  0  1.009529  0
H  H47  1  0.22405841  0.15345084  0.19904829  1  0.022881  0  0.09126  0.121771  0  0.993463  0
H  H48  1  0.18233125  0.07289475  0.22798434  1  0.045726  0  0.089957  0.123799  0  1.019075  0
H  H49  1  0.06444016  0.08751932  0.18535930  1  0.038779  0  0.093906  0.130333  0  0.998352  0
H  H50  1  0.78007387  0.92698175  0.10584882  1  0.061566  0  0.09482  0.134312  0  0.985173  0
H  H51  1  0.59802463  0.88214077  0.08643582  1  0.022303  0  0.08882  0.129898  0  1.015985  0
H  H52  1  0.68029201  0.85185259  0.13119247  1  0.027881  0  0.08966  0.122187  0  1.007579  0
H  H53  1  0.68529013  0.86441460  0.19878812  1  0.017499  0  0.089837  0.119234  0  0.996663  0
H  H54  1  0.74082344  0.95022134  0.22162089  1  0.043954  0  0.087244  0.120779  0  1.036481  0
H  H55  1  0.82484486  0.92865793  0.17566402  1  0.032753  0  0.092279  0.128163  0  0.99899  0
H  H56  1  0.29668275  0.85244647  0.27985530  1  0.039467  0  0.089469  0.119532  0  1.025951  0
H  H57  1  0.13333668  0.89788956  0.30483230  1  0.036904  0  0.094889  0.130264  0  0.982989  0
H  H58  1  0.23226081  0.81911183  0.32563422  1  0.039252  0  0.090915  0.122465  0  1.020366  0
H  H59  1  0.14034043  0.89259600  0.38960614  1  0.053435  0  0.096687  0.137241  0  0.974978  0
H  H60  1  0.30889052  0.87806196  0.42201144  1  0.027728  0  0.087097  0.128039  0  1.042924  0
H  H61  1  0.28413515  0.81877009  0.38149539  1  0.015371  0  0.088974  0.11877  0  1.011553  0
H  H62  1  0.68859341  0.12755618  0.29526008  1  0.024703  0  0.089673  0.119616  0  0.997185  0
H  H63  1  0.74626743  0.04511592  0.27042819  1  0.052269  0  0.086573  0.120401  0  1.036976  0
H  H64  1  0.85270181  0.07113234  0.31367981  1  0.022611  0  0.091826  0.126713  0  0.99833  0
H  H65  1  0.83952010  0.07355945  0.38604808  1  0.064647  0  0.095765  0.134992  0  0.981419  0
H  H66  1  0.65897000  0.11094152  0.40846243  1  0.065112  0  0.091495  0.133708  0  1.007427  0
H  H67  1  0.71830729  0.14242020  0.36194323  1  0.018958  0  0.089675  0.121823  0  1.010182  0
H  H68  1  0.09294323  0.52501223  0.48156152  1  0.604548  0  0.300288  0.335743  0  0.979403  0
H  H69  1  0.57983775  0.47845583  0.48786170  1  0.606451  0  0.298695  0.333913  0  0.984016  0
H  H70  1  0.82093271  0.52536984  0.01405592  1  0.614535  0  0.299586  0.335738  0  0.979972  0
H  H71  1  0.32427633  0.47392750  0.00829326  1  0.606536  0  0.298976  0.334491  0  0.982921  0
C  C72  1  0.35305179  0.85688968  0.50011908  1  1.495722  0  0.220224  0.592249  0  4.1547  0
C  C73  1  0.49005309  0.00295419  0.57218783  1  1.457164  0  0.222803  0.622327  0  4.105101  0
C  C74  1  0.34030491  0.14267610  0.49873519  1  1.493337  0  0.219751  0.595779  0  4.144534  0
C  C75  1  0.49004037  0.99441318  0.42739345  1  1.509417  0  0.223634  0.623361  0  4.110152  0
C  C76  1  0.55931617  0.85544513  0.00108471  1  1.54797  0  0.221155  0.594917  0  4.150795  0
C  C77  1  0.42112422  0.00164471  0.92754038  1  1.493604  0  0.224475  0.624765  0  4.111441  0
C  C78  1  0.56870748  0.14135688  0.00027353  1  1.553331  0  0.218698  0.591516  0  4.151961  0
C  C79  1  0.41848782  0.99809483  0.07236327  1  1.461456  0  0.222367  0.620776  0  4.106038  0
C  C80  1  0.41810712  0.00945548  0.88483601  1  -0.000281  0  -0.025006  -0.162048  0  3.951013  0
C  C81  1  0.52345162  0.06515853  0.86773458  1  -0.032179  0  -0.008828  0.093634  0  3.948587  0
C  C82  1  0.52574842  0.07118200  0.82752032  1  -0.006005  0  -0.016711  0.049659  0  3.933225  0
C  C83  1  0.41897530  0.02391242  0.80488277  1  -0.003153  0  -0.016143  -0.008385  0  3.996375  0
C  C84  1  0.31104051  0.96945316  0.82243437  1  0.036574  0  -0.015109  0.050453  0  3.925335  0
C  C85  1  0.31384088  0.96094479  0.86272320  1  -0.009793  0  -0.008847  0.093882  0  3.945915  0
C  C86  1  0.42376380  0.03426630  0.76285977  1  -0.096712  0  -0.08629  -0.112779  0  4.003457  0
C  C87  1  0.44722890  0.97939879  0.73681085  1  -0.030201  0  -0.088598  -0.119951  0  4.008528  0
C  C88  1  0.59187845  0.95282248  0.67553686  1  0.051771  0  -0.016536  0.048396  0  3.93173  0
C  C89  1  0.45875544  0.98967843  0.69491579  1  -0.046544  0  -0.015682  -0.004974  0  3.998847  0
C  C90  1  0.34070098  0.03340114  0.67418420  1  0.009762  0  -0.014641  0.049878  0  3.925058  0
C  C91  1  0.35953214  0.04183999  0.63418114  1  0.004696  0  -0.007959  0.097262  0  3.936099  0
C  C92  1  0.48705349  0.00135699  0.61500369  1  0.014936  0  -0.025567  -0.166235  0  3.943302  0
C  C93  1  0.60287095  0.95592351  0.63526546  1  -0.047171  0  -0.008162  0.09549  0  3.946381  0
C  C94  1  0.42093469  0.99915530  0.11519138  1  0.017371  0  -0.025596  -0.164856  0  3.945911  0
C  C95  1  0.54453660  0.95617590  0.13445020  1  0.005375  0  -0.007756  0.096318  0  3.938608  0
C  C96  1  0.56314754  0.96333346  0.17451936  1  -0.023175  0  -0.015469  0.049414  0  3.924108  0
C  C97  1  0.44890222  0.00877116  0.19525794  1  0.041624  0  -0.01481  -0.003627  0  3.995532  0
C  C98  1  0.31987240  0.04842807  0.17574202  1  0.0029  0  -0.016456  0.047557  0  3.931086  0
C  C99  1  0.30871953  0.04594863  0.13543333  1  -0.029316  0  -0.008497  0.094958  0  3.94718  0
C  C100  1  0.46142308  0.01758561  0.23724171  1  0.009901  0  -0.089804  -0.120295  0  4.005978  0
C  C101  1  0.48104202  0.96130975  0.26278445  1  -0.087894  0  -0.087184  -0.112705  0  4.002146  0
C  C102  1  0.60212068  0.02287750  0.32229691  1  0.039134  0  -0.015264  0.050165  0  3.926611  0
C  C103  1  0.49032048  0.96973186  0.30481685  1  -0.034758  0  -0.01463  -0.00551  0  3.995538  0
C  C104  1  0.38306023  0.92292756  0.32755657  1  0.000807  0  -0.015247  0.048717  0  3.928701  0
C  C105  1  0.38589971  0.92931352  0.36783228  1  -0.009823  0  -0.008289  0.095832  0  3.936941  0
C  C106  1  0.49334061  0.98460418  0.38478002  1  -0.033743  0  -0.023915  -0.158873  0  3.94062  0
C  C107  1  0.60028211  0.03172645  0.36252032  1  -0.004933  0  -0.009115  0.092051  0  3.945683  0
C  C108  1  0.34566254  0.77278098  0.49907032  1  -0.002884  0  -0.007961  -0.026778  0  3.957058  0
C  C109  1  0.49554517  0.73107577  0.49991836  1  -0.075384  0  -0.06118  -0.053782  0  3.910195  0
C  C110  1  0.48764948  0.65290894  0.49871441  1  0.036975  0  -0.07308  -0.109126  0  3.898287  0
C  C111  1  0.32963539  0.61436413  0.49609595  1  0.166189  0  0.006177  0.112111  0  4.092385  0
C  C112  1  0.17779866  0.65676682  0.49446415  1  -0.058536  0  -0.012601  -0.108886  0  3.956246  0
C  C113  1  0.18899786  0.73521917  0.49638041  1  0.069838  0  -0.062801  -0.081176  0  3.924889  0
C  C114  1  0.33045266  0.53441594  0.49558052  1  -0.396125  0  -0.022306  -0.10463  0  4.09144  0
C  C115  1  0.33907244  0.46533790  0.49589457  1  -0.183673  0  -0.020805  -0.098115  0  4.086006  0
C  C116  1  0.34386101  0.38546544  0.49656970  1  0.093437  0  0.005915  0.112114  0  4.092903  0
C  C117  1  0.49849649  0.34491658  0.49606654  1  -0.016421  0  -0.012712  -0.109432  0  3.95824  0
C  C118  1  0.49115703  0.26642772  0.49703695  1  0.023382  0  -0.063575  -0.078612  0  3.924392  0
C  C119  1  0.33650411  0.22678576  0.49816621  1  -0.055142  0  -0.007908  -0.029078  0  3.956188  0
C  C120  1  0.18421852  0.26669688  0.49872513  1  0.039885  0  -0.060733  -0.054714  0  3.913324  0
C  C121  1  0.18802080  0.34502603  0.49805267  1  -0.005782  0  -0.072668  -0.109529  0  3.894306  0
C  C122  1  0.56685488  0.77144528  0.00238013  1  0.030527  0  -0.007794  -0.027415  0  3.954184  0
C  C123  1  0.41649615  0.72790119  0.00197215  1  -0.025035  0  -0.061612  -0.053934  0  3.909598  0
C  C124  1  0.42371761  0.64984679  0.00285730  1  0.049385  0  -0.072455  -0.108249  0  3.901278  0
C  C125  1  0.58148711  0.61313304  0.00447720  1  0.09627  0  0.00623  0.111709  0  4.095051  0
C  C126  1  0.73402176  0.65736805  0.00550100  1  -0.070954  0  -0.013615  -0.109943  0  3.955972  0
C  C127  1  0.72335509  0.73579121  0.00419606  1  -0.068945  0  -0.062105  -0.078618  0  3.921436  0
C  C128  1  0.57901497  0.53317153  0.00451532  1  -0.257509  0  -0.022505  -0.103759  0  4.093159  0
C  C129  1  0.56817728  0.46403268  0.00377583  1  -0.223507  0  -0.021838  -0.099783  0  4.089429  0
C  C130  1  0.56301083  0.38411471  0.00272619  1  0.0737  0  0.004962  0.110615  0  4.094312  0
C  C131  1  0.40854947  0.34115229  0.00255995  1  0.007546  0  -0.012672  -0.108343  0  3.95539  0
C  C132  1  0.41661403  0.26276030  0.00159832  1  -0.045171  0  -0.063205  -0.079066  0  3.922837  0
C  C133  1  0.57158894  0.22555852  0.00095222  1  -0.04795  0  -0.007273  -0.025746  0  3.950492  0
C  C134  1  0.72364623  0.26781468  0.00086892  1  0.066305  0  -0.060064  -0.054599  0  3.909062  0
C  C135  1  0.71917444  0.34605251  0.00168153  1  -0.035754  0  -0.072323  -0.107581  0  3.897995  0
C  C136  1  0.20841550  0.89902730  0.88113468  1  -0.037776  0  -0.240697  -0.40143  0  3.98132  0
C  C137  1  0.18748828  0.92163474  0.79938737  1  -0.047706  0  -0.2417  -0.398963  0  4.001923  0
C  C138  1  0.63188041  0.11834614  0.89151254  1  -0.052979  0  -0.242131  -0.401063  0  3.978286  0
C  C139  1  0.64729425  0.12655001  0.80867752  1  -0.048236  0  -0.238635  -0.396629  0  3.991083  0
C  C140  1  0.18942163  0.06861323  0.69333444  1  -0.069081  0  -0.241128  -0.399092  0  3.998441  0
C  C141  1  0.24360153  0.09493488  0.61311542  1  -0.080348  0  -0.242041  -0.400616  0  3.980313  0
C  C142  1  0.72380549  0.91105604  0.69847144  1  -0.075249  0  -0.239853  -0.401317  0  3.9967  0
C  C143  1  0.73289792  0.90889240  0.61487431  1  -0.08326  0  -0.241486  -0.404368  0  3.982418  0
C  C144  1  0.18103126  0.09467703  0.11515511  1  -0.027926  0  -0.241395  -0.402963  0  3.980617  0
C  C145  1  0.19160648  0.09277297  0.19822767  1  -0.064771  0  -0.239859  -0.399679  0  3.995408  0
C  C146  1  0.65592513  0.90155363  0.11334340  1  -0.044049  0  -0.242457  -0.400128  0  3.981473  0
C  C147  1  0.71073502  0.92486384  0.19371184  1  -0.061777  0  -0.24117  -0.399208  0  4.000149  0
C  C148  1  0.25658901  0.87003470  0.30854919  1  -0.063657  0  -0.238352  -0.392845  0  3.989863  0
C  C149  1  0.27506771  0.87718149  0.39159666  1  -0.029842  0  -0.241819  -0.399725  0  3.976291  0
C  C150  1  0.72861821  0.06880422  0.29914505  1  -0.052763  0  -0.241277  -0.40013  0  4.004288  0
C  C151  1  0.70918922  0.09280950  0.38071544  1  -0.084411  0  -0.240982  -0.401966  0  3.980946  0
C  C152  1  0.00189564  0.62450504  0.48995761  1  1.526164  0  0.229237  0.569301  0  4.142148  0
C  C153  1  0.67369337  0.37904824  0.49455401  1  1.543415  0  0.229149  0.569281  0  4.141968  0
C  C154  1  0.91038733  0.62727133  0.00823935  1  1.542259  0  0.229464  0.568643  0  4.141406  0
C  C155  1  0.23273037  0.37232615  0.00329811  1  1.549607  0  0.229213  0.567459  0  4.141399  0
O  O156  1  0.49817508  0.88878347  0.50146538  1  -1.165537  0  -0.306994  -0.561679  0  2.311098  0
O  O157  1  0.20948940  0.89114928  0.49899360  1  -1.128515  0  -0.315502  -0.526275  0  2.255695  0
O  O158  1  0.34839172  0.99687013  0.55468743  1  -1.172817  0  -0.309412  -0.570326  0  2.352644  0
O  O159  1  0.63468263  0.00919671  0.55471964  1  -1.125991  0  -0.31592  -0.525781  0  2.252389  0
O  O160  1  0.19674413  0.10638844  0.49972038  1  -1.131985  0  -0.315784  -0.526269  0  2.229461  0
O  O161  1  0.48494220  0.11218210  0.49828662  1  -1.176103  0  -0.308216  -0.566011  0  2.324539  0
O  O162  1  0.63344540  0.99510909  0.44566521  1  -1.122402  0  -0.314993  -0.525066  0  2.254063  0
O  O163  1  0.34651952  0.00150378  0.44355386  1  -1.178555  0  -0.309885  -0.568043  0  2.331157  0
O  O164  1  0.41370374  0.88488563  0.99969440  1  -1.168677  0  -0.307112  -0.561732  0  2.319437  0
O  O165  1  0.70233171  0.89213123  0.00164405  1  -1.135812  0  -0.315334  -0.52556  0  2.251878  0
O  O166  1  0.56471247  0.99572661  0.94397255  1  -1.168457  0  -0.309614  -0.56769  0  2.329188  0
O  O167  1  0.27753147  0.00185676  0.94554135  1  -1.120007  0  -0.315007  -0.524133  0  2.252094  0
O  O168  1  0.71280686  0.10754167  0.99963092  1  -1.134905  0  -0.315334  -0.524387  0  2.229555  0
O  O169  1  0.42450659  0.10839148  0.00010160  1  -1.177208  0  -0.307749  -0.567217  0  2.320074  0
O  O170  1  0.27384584  0.99324156  0.05462991  1  -1.123033  0  -0.315828  -0.52547  0  2.252338  0
O  O171  1  0.56056563  0.00279124  0.05514306  1  -1.175121  0  -0.308823  -0.568939  0  2.34838  0
O  O172  1  0.98290812  0.55083478  0.48142233  1  -1.117327  0  -0.332382  -0.45009  0  2.307083  0
O  O173  1  0.87589393  0.66362514  0.49289567  1  -1.1384  0  -0.276922  -0.463716  0  2.121651  0
O  O174  1  0.69129872  0.45392613  0.48936054  1  -1.119056  0  -0.332012  -0.45063  0  2.309929  0
O  O175  1  0.80067412  0.34048264  0.49755786  1  -1.137778  0  -0.276673  -0.463078  0  2.125656  0
O  O176  1  0.93095136  0.55279471  0.01392952  1  -1.135287  0  -0.334165  -0.45388  0  2.297561  0
O  O177  1  0.03601892  0.66857729  0.00602546  1  -1.13658  0  -0.275131  -0.46187  0  2.125095  0
O  O178  1  0.21339394  0.44731897  0.00687872  1  -1.126516  0  -0.334355  -0.453763  0  2.299948  0
O  O179  1  0.10635931  0.33146253  0.00092654  1  -1.138607  0  -0.275498  -0.461777  0  2.127506  0
