# generated using pymatgen
data_CuH9C7NO7
_symmetry_space_group_name_H-M   'P 1'
_cell_length_a   7.25956906
_cell_length_b   8.65800940
_cell_length_c   9.50376110
_cell_angle_alpha   62.90784853
_cell_angle_beta   80.89940073
_cell_angle_gamma   69.72641319
_symmetry_Int_Tables_number   1
_chemical_formula_structural   CuH9C7NO7
_chemical_formula_sum   'Cu2 H18 C14 N2 O14'
_cell_volume   498.85468758
_cell_formula_units_Z   2
loop_
 _symmetry_equiv_pos_site_id
 _symmetry_equiv_pos_as_xyz
  1  'x, y, z'
loop_
 _atom_site_type_symbol
 _atom_site_label
 _atom_site_symmetry_multiplicity
 _atom_site_fract_x
 _atom_site_fract_y
 _atom_site_fract_z
 _atom_site_occupancy
 _atom_site_pbe_cm5_charge
 _atom_site_pbe_ddec_charge
 _atom_site_pbe_ddec_spin_density
 _atom_site_pbe_ddec_sum_bond_order
 _atom_site_pbe_magmom
Cu  Cu0  1  0.21504319  0.13898928  0.74515646  1  0.725418  0.874179  0.776647  2.173222  0.598
Cu  Cu1  1  0.71453495  0.88436696  0.25494039  1  0.725604  0.873446  -0.776614  2.175286  -0.598
H  H2  1  0.19321254  0.74040162  0.39621633  1  0.111337  0.117365  0.000211  1.011233  0.0
H  H3  1  0.69291805  0.13677771  0.60384594  1  0.110981  0.116579  -0.000214  1.012368  0.0
H  H4  1  0.16470523  0.59111567  0.69215770  1  0.114222  0.135302  0.000907  1.032085  0.001
H  H5  1  0.66338117  0.28378224  0.30798229  1  0.114408  0.135733  -0.000906  1.031566  -0.001
H  H6  1  0.18471281  0.75601600  0.84526694  1  0.127598  0.100673  0.001296  0.980999  0.002
H  H7  1  0.68314137  0.60183848  0.15487567  1  0.127586  0.101166  -0.00129  0.981144  -0.002
H  H8  1  0.57226955  0.86738998  0.87150435  1  0.282119  0.369026  -0.000174  0.983219  0.0
H  H9  1  0.07187787  0.73920966  0.12810863  1  0.282638  0.369233  0.000172  0.98249  0.0
H  H10  1  0.37287786  0.97633527  0.01661869  1  0.292539  0.377011  0.000302  0.975732  0.0
H  H11  1  0.87265264  0.99310811  0.98337984  1  0.292327  0.376091  -0.000301  0.977002  0.0
H  H12  1  0.29642250  0.81879319  0.02582776  1  0.287346  0.402792  0.000756  0.938872  0.001
H  H13  1  0.79636135  0.84483147  0.97401041  1  0.287305  0.401689  -0.000757  0.940185  -0.001
H  H14  1  0.35851048  0.30620641  0.84467604  1  0.295342  0.385258  0.000638  0.951797  0.001
H  H15  1  0.85820807  0.15072121  0.15563149  1  0.296321  0.387344  -0.00063  0.948921  -0.001
H  H16  1  0.16178521  0.26824753  0.93975899  1  0.295242  0.385915  0.000684  0.948841  0.0
H  H17  1  0.66161028  0.20821744  0.06038624  1  0.295523  0.386054  -0.000683  0.948405  0.0
H  H18  1  0.75036457  0.75676149  0.79592515  1  0.284993  0.384223  -1.5e-05  0.958401  0.0
H  H19  1  0.24976793  0.55287312  0.20373408  1  0.285156  0.384954  1.4e-05  0.957496  0.0
C  C20  1  0.23403438  0.07072167  0.21408285  1  0.228372  0.615149  0.001879  4.181619  0.002
C  C21  1  0.73410277  0.28506338  0.78590623  1  0.228683  0.615632  -0.001875  4.178344  -0.002
C  C22  1  0.23996122  0.25697561  0.42142978  1  0.211508  0.536343  0.000327  4.228865  -0.002
C  C23  1  0.74022548  0.67846327  0.57857362  1  0.210818  0.533982  -0.000322  4.230507  0.002
C  C24  1  0.22095935  0.06972544  0.48511898  1  0.110253  0.065304  -0.000105  3.975589  -0.001
C  C25  1  0.72071535  0.55502441  0.51492503  1  0.110173  0.067413  0.000111  3.973996  0.001
C  C26  1  0.21532428  0.98559597  0.39142122  1  0.00763  -0.063838  0.002849  3.919293  0.003
C  C27  1  0.71521672  0.37719600  0.60857817  1  0.007672  -0.064986  -0.00285  3.920113  -0.003
C  C28  1  0.19596576  0.81020232  0.46662909  1  -0.056645  -0.043468  -0.002408  3.887616  -0.002
C  C29  1  0.69551919  0.27702968  0.53344428  1  -0.056116  -0.04309  0.002415  3.889601  0.002
C  C30  1  0.18211366  0.72644605  0.63051799  1  -0.067174  -0.088646  0.00558  3.891757  0.006
C  C31  1  0.68112826  0.35739248  0.36959277  1  -0.066995  -0.087448  -0.005564  3.894653  -0.006
C  C32  1  0.19151286  0.81771073  0.71663984  1  0.060625  0.12207  0.000672  3.885692  0.0
C  C33  1  0.69035163  0.53480560  0.28346620  1  0.059827  0.119836  -0.000667  3.887276  0.0
N  N34  1  0.21008958  0.98542408  0.64436116  1  -0.347491  -0.271687  0.066477  3.67447  0.084
N  N35  1  0.70935880  0.63013595  0.35571898  1  -0.347279  -0.271206  -0.066421  3.672299  -0.084
O  O36  1  0.40296530  0.01683536  0.15822539  1  -0.31848  -0.582025  0.00037  2.340367  -0.001
O  O37  1  0.90293600  0.17507122  0.84160162  1  -0.31901  -0.58195  -0.000446  2.33655  0.0
O  O38  1  0.08222192  0.17592487  0.12974336  1  -0.29807  -0.531414  0.000451  2.194028  0.0
O  O39  1  0.58232053  0.30635783  0.87030693  1  -0.298404  -0.531699  -0.000466  2.192998  -0.001
O  O40  1  0.22355326  0.32060966  0.52397025  1  -0.324722  -0.535944  0.076229  2.277705  0.107
O  O41  1  0.72373415  0.84462469  0.47611270  1  -0.324518  -0.535304  -0.076283  2.279686  -0.107
O  O42  1  0.26993241  0.33921020  0.27677004  1  -0.280802  -0.474094  0.015869  2.174932  0.021
O  O43  1  0.77070808  0.61593850  0.72316850  1  -0.280709  -0.472892  -0.015927  2.174039  -0.021
O  O44  1  0.71350625  0.84819891  0.84167788  1  -0.591257  -0.770948  -0.001036  2.043329  -0.001
O  O45  1  0.21314228  0.69002701  0.15785670  1  -0.591886  -0.772193  0.001027  2.042835  0.001
O  O46  1  0.34873286  0.92641636  0.94559111  1  -0.57851  -0.786252  0.042766  2.251778  0.058
O  O47  1  0.84840522  0.87220348  0.05435789  1  -0.57816  -0.783811  -0.042579  2.254677  -0.057
O  O48  1  0.22355755  0.30717893  0.83135848  1  -0.570862  -0.722143  0.047321  2.224036  0.063
O  O49  1  0.72313268  0.13864985  0.16885105  1  -0.572477  -0.724723  -0.047437  2.223264  -0.063
