# generated using pymatgen
data_GaP2H11C12(NO4)2
_symmetry_space_group_name_H-M   'P 1'
_cell_length_a   7.83562571
_cell_length_b   8.68833238
_cell_length_c   12.07524451
_cell_angle_alpha   108.38052698
_cell_angle_beta   106.05013720
_cell_angle_gamma   97.24711172
_symmetry_Int_Tables_number   1
_chemical_formula_structural   GaP2H11C12(NO4)2
_chemical_formula_sum   'Ga2 P4 H22 C24 N4 O16'
_cell_volume   728.91688704
_cell_formula_units_Z   2
loop_
 _symmetry_equiv_pos_site_id
 _symmetry_equiv_pos_as_xyz
  1  'x, y, z'
loop_
 _atom_site_type_symbol
 _atom_site_label
 _atom_site_symmetry_multiplicity
 _atom_site_fract_x
 _atom_site_fract_y
 _atom_site_fract_z
 _atom_site_occupancy
 _atom_site_hle17_bader_spin_density
 _atom_site_hle17_ddec_charge
 _atom_site_hle17_ddec_spin_density
 _atom_site_hle17_ddec_sum_bond_order
 _atom_site_hle17_magmom
 _atom_site_hse06_10hf_bader_spin_density
 _atom_site_hse06_10hf_ddec_charge
 _atom_site_hse06_10hf_ddec_spin_density
 _atom_site_hse06_10hf_ddec_sum_bond_order
 _atom_site_hse06_10hf_magmom
 _atom_site_hse06_bader_spin_density
 _atom_site_hse06_ddec_charge
 _atom_site_hse06_ddec_spin_density
 _atom_site_hse06_ddec_sum_bond_order
 _atom_site_hse06_magmom
 _atom_site_pbe_bader_spin_density
 _atom_site_pbe_cm5_charge
 _atom_site_pbe_ddec_charge
 _atom_site_pbe_ddec_spin_density
 _atom_site_pbe_ddec_sum_bond_order
 _atom_site_pbe_magmom
Ga  Ga0  1  0.06297793  0.31665914  0.62777794  1  0  1.60906  0  2.350338  0  0  1.437579  0  2.781653  0  0  1.489917  0  2.734823  0  0  0.621227  1.401108  0  2.81335  0
Ga  Ga1  1  0.93707330  0.68328741  0.37222753  1  0  1.609233  0  2.349923  0  0  1.437781  0  2.781181  0  0  1.490125  0  2.734359  0  0  0.621415  1.401311  0  2.812877  0
P  P2  1  0.85580800  0.60722928  0.60963821  1  0  1.788469  0  4.834473  0  0  1.599398  0  5.376368  0  0  1.659558  0  5.31692  0  0  0.445533  1.557335  0  5.416905  0
P  P3  1  0.25290788  0.00363941  0.60841699  1  0  1.811752  0  4.783639  0  0  1.621016  0  5.324128  0  0  1.681148  0  5.264007  0  0  0.464949  1.578916  0  5.365416  0
P  P4  1  0.14416219  0.39266810  0.39035028  1  0  1.788348  0  4.834467  0  0  1.599274  0  5.376286  0  0  1.659416  0  5.316861  0  0  0.445474  1.557215  0  5.416807  0
P  P5  1  0.74708156  0.99630009  0.39160048  1  0  1.811441  0  4.784385  0  0  1.620605  0  5.325073  0  0  1.680767  0  5.264868  0  0  0.464658  1.578504  0  5.366359  0
H  H6  1  0.00361953  0.21133910  0.08399787  1  0  0.122227  0  0.949014  0  0  0.131599  0  1.009348  0  0  0.135046  0  1.006909  0  0  0.112269  0.129067  0  1.011161  0
H  H7  1  0.57873998  0.87103346  0.08226617  1  0  0.119718  0  0.949481  0  0  0.129054  0  1.010218  0  0  0.132366  0  1.007847  0  0  0.11182  0.126612  0  1.011991  0
H  H8  1  0.99639327  0.78867174  0.91601552  1  0  0.122198  0  0.948923  0  0  0.131543  0  1.009313  0  0  0.134987  0  1.006884  0  0  0.112272  0.129018  0  1.01111  0
H  H9  1  0.42127153  0.12895259  0.91772302  1  0  0.119751  0  0.949559  0  0  0.129083  0  1.010284  0  0  0.132398  0  1.007906  0  0  0.111842  0.126643  0  1.012052  0
H  H10  1  0.81195761  0.99566800  0.87371764  1  0  0.102588  0  0.956921  0  0  0.114419  0  1.01345  0  0  0.117165  0  1.012991  0  0  0.110211  0.112447  0  1.013952  0
H  H11  1  0.56265259  0.87648071  0.87194811  1  0  0.101319  0  0.958226  0  0  0.1139  0  1.01384  0  0  0.116628  0  1.013394  0  0  0.110061  0.111959  0  1.014303  0
H  H12  1  0.18804845  0.00433778  0.12630495  1  0  0.102743  0  0.956815  0  0  0.114504  0  1.013398  0  0  0.117249  0  1.01294  0  0  0.110191  0.112534  0  1.013898  0
H  H13  1  0.43733905  0.12350555  0.12804001  1  0  0.10136  0  0.958277  0  0  0.113945  0  1.013872  0  0  0.116674  0  1.013425  0  0  0.110068  0.112005  0  1.014332  0
H  H14  1  0.83056721  0.04037422  0.68304545  1  0  0.097682  0  0.929071  0  0  0.105543  0  0.991231  0  0  0.108038  0  0.988121  0  0  0.129471  0.103583  0  0.993678  0
H  H15  1  0.35329251  0.64245161  0.68159395  1  0  0.099348  0  0.930698  0  0  0.106069  0  0.993918  0  0  0.10858  0  0.990811  0  0  0.129507  0.104088  0  0.996384  0
H  H16  1  0.16943124  0.95962295  0.31696880  1  0  0.09764  0  0.929068  0  0  0.105558  0  0.991174  0  0  0.108054  0  0.988061  0  0  0.129443  0.103595  0  0.993634  0
H  H17  1  0.64669388  0.35754472  0.31839555  1  0  0.099301  0  0.930662  0  0  0.10606  0  0.993874  0  0  0.108577  0  0.990753  0  0  0.129504  0.104078  0  0.996344  0
H  H18  1  0.24533104  0.48495994  0.20483956  1  0  0.121408  0  0.957881  0  0  0.132696  0  1.015275  0  0  0.135713  0  1.013842  0  0  0.111371  0.130427  0  1.016491  0
H  H19  1  0.45736576  0.71796270  0.20451229  1  0  0.120351  0  0.955315  0  0  0.131738  0  1.012607  0  0  0.134644  0  1.011377  0  0  0.110725  0.12958  0  1.013617  0
H  H20  1  0.75468908  0.51504839  0.79516795  1  0  0.121475  0  0.957801  0  0  0.132808  0  1.015116  0  0  0.135832  0  1.013666  0  0  0.111421  0.130533  0  1.016344  0
H  H21  1  0.54265409  0.28203454  0.79547852  1  0  0.120434  0  0.955301  0  0  0.131842  0  1.012564  0  0  0.134751  0  1.011327  0  0  0.110757  0.12968  0  1.013581  0
H  H22  1  0.11709442  0.86556425  0.71197979  1  0  0.468886  0  0.835317  0  0  0.425873  0  0.916889  0  0  0.438718  0  0.898933  0  0  0.300825  0.416924  0  0.929357  0
H  H23  1  0.88286594  0.13442960  0.28802926  1  0  0.468616  0  0.835715  0  0  0.425475  0  0.917457  0  0  0.438323  0  0.899503  0  0  0.300729  0.416525  0  0.929924  0
H  H24  1  0.58077617  0.62375584  0.52602037  1  0  0.427501  0  0.815085  0  0  0.408307  0  0.873022  0  0  0.417454  0  0.862138  0  0  0.338314  0.401762  0  0.880885  0
H  H25  1  0.44679981  0.89559356  0.53109480  1  0  0.436432  0  0.802554  0  0  0.417143  0  0.859278  0  0  0.426181  0  0.848653  0  0  0.344035  0.410674  0  0.866944  0
H  H26  1  0.41953459  0.37698344  0.47411224  1  0  0.427487  0  0.8157  0  0  0.407863  0  0.874339  0  0  0.417062  0  0.863391  0  0  0.338045  0.401264  0  0.882276  0
H  H27  1  0.55327095  0.10484818  0.46872495  1  0  0.436703  0  0.802272  0  0  0.417589  0  0.858643  0  0  0.426593  0  0.848085  0  0  0.34446  0.411133  0  0.866285  0
C  C28  1  0.13458083  0.37617262  0.89024289  1  0  0.131036  0  3.765095  0  0  0.120942  0  4.005201  0  0  0.12569  0  4.026186  0  0  0.128042  0.117777  0  3.991082  0
C  C29  1  0.25531086  0.51446574  0.89006949  1  0  0.130123  0  3.769984  0  0  0.119793  0  4.008742  0  0  0.124509  0  4.029666  0  0  0.129169  0.116655  0  3.994661  0
C  C30  1  0.86542701  0.62382462  0.10975734  1  0  0.13113  0  3.765374  0  0  0.121007  0  4.005459  0  0  0.125756  0  4.026445  0  0  0.12806  0.117842  0  3.991339  0
C  C31  1  0.74470094  0.48552645  0.10993028  1  0  0.129932  0  3.770083  0  0  0.119639  0  4.008789  0  0  0.124356  0  4.029711  0  0  0.12908  0.116505  0  3.994712  0
C  C32  1  0.13189493  0.36410288  0.00396975  1  0  0.025047  0  3.799297  0  0  0.040106  0  4.035377  0  0  0.037498  0  4.05984  0  0  0.001582  0.041677  0  4.018876  0
C  C33  1  0.37105493  0.63934701  0.00350040  1  0  0.02371  0  3.803439  0  0  0.041177  0  4.036053  0  0  0.038599  0  4.060559  0  0  0.001011  0.042724  0  4.019514  0
C  C34  1  0.86810828  0.63589690  0.99603189  1  0  0.025131  0  3.799351  0  0  0.040139  0  4.035499  0  0  0.037528  0  4.059962  0  0  0.001624  0.041712  0  4.018999  0
C  C35  1  0.62895858  0.36065146  0.99649701  1  0  0.023936  0  3.803125  0  0  0.041348  0  4.035777  0  0  0.038766  0  4.060295  0  0  0.001004  0.04288  0  4.019261  0
C  C36  1  0.01130155  0.22381610  0.99798406  1  0  -0.048036  0  3.649978  0  0  -0.074418  0  3.900694  0  0  -0.071472  0  3.917901  0  0  -0.058794  -0.076052  0  3.888892  0
C  C37  1  0.48565798  0.77302016  0.99672229  1  0  -0.047325  0  3.653482  0  0  -0.074435  0  3.904067  0  0  -0.071581  0  3.921465  0  0  -0.059422  -0.075995  0  3.892143  0
C  C38  1  0.98870493  0.77618607  0.00202535  1  0  -0.047868  0  3.649981  0  0  -0.074233  0  3.900724  0  0  -0.071285  0  3.91793  0  0  -0.058744  -0.075868  0  3.888922  0
C  C39  1  0.51434458  0.22697219  0.00327171  1  0  -0.047405  0  3.653361  0  0  -0.07449  0  3.903934  0  0  -0.071636  0  3.921335  0  0  -0.059436  -0.076043  0  3.892008  0
C  C40  1  0.90456389  0.10680982  0.88304889  1  0  -0.099869  0  3.703422  0  0  -0.114238  0  3.962475  0  0  -0.121378  0  3.982778  0  0  -0.073745  -0.109684  0  3.948805  0
C  C41  1  0.47857472  0.77532662  0.88157335  1  0  -0.100474  0  3.707707  0  0  -0.11511  0  3.966516  0  0  -0.122257  0  3.986874  0  0  -0.073817  -0.110563  0  3.952801  0
C  C42  1  0.09543661  0.89318990  0.11696052  1  0  -0.100295  0  3.703522  0  0  -0.114613  0  3.962633  0  0  -0.121751  0  3.982927  0  0  -0.073803  -0.110061  0  3.948973  0
C  C43  1  0.52142051  0.22465829  0.11841925  1  0  -0.100551  0  3.707666  0  0  -0.11516  0  3.966475  0  0  -0.122307  0  3.986831  0  0  -0.073798  -0.110615  0  3.952766  0
C  C44  1  0.91417843  0.12948580  0.77457230  1  0  0.189327  0  3.63052  0  0  0.148482  0  3.893826  0  0  0.159097  0  3.907513  0  0  0.079963  0.141512  0  3.884598  0
C  C45  1  0.36082185  0.64528468  0.77348695  1  0  0.18941  0  3.628914  0  0  0.14875  0  3.892254  0  0  0.159355  0  3.905774  0  0  0.079911  0.141793  0  3.883133  0
C  C46  1  0.08582369  0.87051013  0.22543818  1  0  0.189537  0  3.630492  0  0  0.148618  0  3.893725  0  0  0.159234  0  3.90741  0  0  0.080015  0.141645  0  3.884499  0
C  C47  1  0.63917571  0.35470395  0.22650694  1  0  0.189491  0  3.62867  0  0  0.148714  0  3.892111  0  0  0.159322  0  3.905621  0  0  0.079821  0.141755  0  3.882998  0
C  C48  1  0.25021254  0.49226877  0.11736809  1  0  -0.092096  0  3.703648  0  0  -0.116472  0  3.961067  0  0  -0.119731  0  3.984064  0  0  -0.081116  -0.114172  0  3.945553  0
C  C49  1  0.36569489  0.62390499  0.11716264  1  0  -0.091542  0  3.705206  0  0  -0.116338  0  3.962226  0  0  -0.11975  0  3.985454  0  0  -0.080588  -0.113949  0  3.946554  0
C  C50  1  0.74979401  0.50773350  0.88263225  1  0  -0.092133  0  3.703672  0  0  -0.116519  0  3.961083  0  0  -0.119783  0  3.984092  0  0  -0.081167  -0.114214  0  3.945543  0
C  C51  1  0.63431566  0.37609230  0.88283147  1  0  -0.091725  0  3.705345  0  0  -0.116524  0  3.96235  0  0  -0.119938  0  3.985578  0  0  -0.080568  -0.114127  0  3.946678  0
N  N52  1  0.02589304  0.26137321  0.77879042  1  0  -0.363395  0  3.312444  0  0  -0.291012  0  3.564825  0  0  -0.310603  0  3.584366  0  0  -0.277532  -0.277922  0  3.55153  0
N  N53  1  0.25305698  0.51847442  0.77849957  1  0  -0.359124  0  3.313407  0  0  -0.286386  0  3.564498  0  0  -0.305699  0  3.583699  0  0  -0.276589  -0.273489  0  3.551437  0
N  N54  1  0.97411903  0.73861517  0.22121349  1  0  -0.363516  0  3.312729  0  0  -0.291017  0  3.564942  0  0  -0.310611  0  3.58449  0  0  -0.277501  -0.277927  0  3.551648  0
N  N55  1  0.74694913  0.48150655  0.22149823  1  0  -0.35917  0  3.313385  0  0  -0.286392  0  3.564461  0  0  -0.305706  0  3.583657  0  0  -0.276506  -0.273493  0  3.551401  0
O  O56  1  0.86629998  0.44207881  0.63016645  1  0  -0.904172  0  1.97349  0  0  -0.827722  0  2.249382  0  0  -0.855409  0  2.226343  0  0  -0.340913  -0.808045  0  2.264643  0
O  O57  1  0.26167502  0.18785009  0.63060950  1  0  -0.898142  0  1.974623  0  0  -0.82307  0  2.249536  0  0  -0.850501  0  2.226661  0  0  -0.33517  -0.803643  0  2.264769  0
O  O58  1  0.13373252  0.55785275  0.36984954  1  0  -0.904197  0  1.973304  0  0  -0.827914  0  2.249391  0  0  -0.855582  0  2.226338  0  0  -0.340807  -0.808241  0  2.264665  0
O  O59  1  0.73832921  0.81208458  0.36937972  1  0  -0.897959  0  1.974534  0  0  -0.822853  0  2.24938  0  0  -0.850284  0  2.226509  0  0  -0.335211  -0.803427  0  2.264604  0
O  O60  1  0.98888588  0.75732003  0.71793284  1  0  -0.873075  0  1.930687  0  0  -0.79452  0  2.177444  0  0  -0.820654  0  2.154846  0  0  -0.372152  -0.775957  0  2.1926  0
O  O61  1  0.23098505  0.96361803  0.72079107  1  0  -0.835881  0  1.986364  0  0  -0.756848  0  2.227146  0  0  -0.78096  0  2.201049  0  0  -0.376249  -0.739803  0  2.244874  0
O  O62  1  0.01099496  0.24263983  0.28204646  1  0  -0.87294  0  1.930663  0  0  -0.794214  0  2.17743  0  0  -0.820355  0  2.154848  0  0  -0.372294  -0.775656  0  2.192585  0
O  O63  1  0.76892157  0.03638871  0.27923441  1  0  -0.835706  0  1.98674  0  0  -0.756564  0  2.227653  0  0  -0.780686  0  2.201551  0  0  -0.376028  -0.739488  0  2.245316  0
O  O64  1  0.12022869  0.88420211  0.48375616  1  0  -0.932422  0  2.125373  0  0  -0.842565  0  2.411797  0  0  -0.869806  0  2.385977  0  0  -0.326185  -0.82332  0  2.428909  0
O  O65  1  0.85840065  0.59516534  0.48123726  1  0  -0.935671  0  2.130888  0  0  -0.844845  0  2.417171  0  0  -0.872576  0  2.391796  0  0  -0.33087  -0.825361  0  2.434148  0
O  O66  1  0.87975710  0.11576774  0.51624449  1  0  -0.932345  0  2.125585  0  0  -0.8425  0  2.412084  0  0  -0.869724  0  2.386216  0  0  -0.326063  -0.823257  0  2.429191  0
O  O67  1  0.14155872  0.40482978  0.51877190  1  0  -0.93551  0  2.130735  0  0  -0.844639  0  2.416974  0  0  -0.872319  0  2.39154  0  0  -0.330696  -0.825136  0  2.433906  0
O  O68  1  0.65078882  0.62815621  0.60801387  1  0  -0.768132  0  1.90831  0  0  -0.708335  0  2.130745  0  0  -0.727414  0  2.105761  0  0  -0.402075  -0.694777  0  2.14787  0
O  O69  1  0.45581630  0.98194334  0.60869361  1  0  -0.766111  0  1.913079  0  0  -0.707346  0  2.137584  0  0  -0.726223  0  2.112414  0  0  -0.394814  -0.693982  0  2.154891  0
O  O70  1  0.34901304  0.37140777  0.39187185  1  0  -0.768003  0  1.908367  0  0  -0.707997  0  2.131113  0  0  -0.727127  0  2.106093  0  0  -0.402258  -0.694401  0  2.148278  0
O  O71  1  0.54413925  0.01783356  0.39141339  1  0  -0.766492  0  1.913355  0  0  -0.707689  0  2.137676  0  0  -0.726568  0  2.112482  0  0  -0.39497  -0.694327  0  2.154996  0
