# generated using pymatgen
data_MnH14C15(NO2)2
_symmetry_space_group_name_H-M   'P 1'
_cell_length_a   8.04778231
_cell_length_b   9.55232078
_cell_length_c   10.11851787
_cell_angle_alpha   107.88538978
_cell_angle_beta   95.16719373
_cell_angle_gamma   104.96222730
_symmetry_Int_Tables_number   1
_chemical_formula_structural   MnH14C15(NO2)2
_chemical_formula_sum   'Mn2 H28 C30 N4 O8'
_cell_volume   702.93396978
_cell_formula_units_Z   2
loop_
 _symmetry_equiv_pos_site_id
 _symmetry_equiv_pos_as_xyz
  1  'x, y, z'
loop_
 _atom_site_type_symbol
 _atom_site_label
 _atom_site_symmetry_multiplicity
 _atom_site_fract_x
 _atom_site_fract_y
 _atom_site_fract_z
 _atom_site_occupancy
 _atom_site_pbe_cm5_charge
 _atom_site_pbe_ddec_charge
 _atom_site_pbe_ddec_spin_density
 _atom_site_pbe_ddec_sum_bond_order
 _atom_site_pbe_magmom
Mn  Mn0  1  0.65613711  0.97566057  0.64577036  1  0.601272  0.859423  4.667522  2.400696  4.437
Mn  Mn1  1  0.34386550  0.02434184  0.35422961  1  0.601258  0.85944  4.667513  2.400662  4.437
H  H2  1  0.85142748  0.92347025  0.38887027  1  0.121077  0.095531  0.00021  1.021177  0.0
H  H3  1  0.14857771  0.07652872  0.61112885  1  0.1211  0.095542  0.00021  1.021146  0.0
H  H4  1  0.86142909  0.72490341  0.17652008  1  0.108384  0.117007  0.000131  1.032695  0.0
H  H5  1  0.13857459  0.27509096  0.82348059  1  0.108367  0.116977  0.000131  1.032725  0.0
H  H6  1  0.84221331  0.55550406  0.98963502  1  0.108251  0.114824  0.000485  1.013971  0.0
H  H7  1  0.15777807  0.44449485  0.01036029  1  0.10828  0.114888  0.000485  1.013994  0.0
H  H8  1  0.82864024  0.33482204  0.77625039  1  0.118769  0.090447  0.000173  1.00446  0.0
H  H9  1  0.17135534  0.66517804  0.22374848  1  0.11876  0.090462  0.000173  1.004516  0.0
H  H10  1  0.45351377  0.03356534  0.89247407  1  0.118673  0.085167  0.000388  1.036847  0.0
H  H11  1  0.54648436  0.96643477  0.10752793  1  0.118667  0.085129  0.000388  1.036824  0.0
H  H12  1  0.44790403  0.23712929  0.11145123  1  0.111902  0.133355  -0.000155  1.056257  0.0
H  H13  1  0.55209442  0.76287195  0.88854716  1  0.111892  0.13337  -0.000155  1.056233  0.0
H  H14  1  0.43705838  0.40761841  0.27480814  1  0.109623  0.128991  -5.6e-05  1.058519  0.0
H  H15  1  0.56294053  0.59238400  0.72519457  1  0.109617  0.128994  -5.6e-05  1.058493  0.0
H  H16  1  0.44931004  0.62463221  0.48829089  1  0.117761  0.083965  0.000403  1.012769  0.0
H  H17  1  0.55069551  0.37537137  0.51171256  1  0.117735  0.08397  0.000403  1.012703  0.0
H  H18  1  0.92384380  0.39473770  0.50015662  1  0.099436  0.112846  0.000713  1.003043  0.001
H  H19  1  0.07616177  0.60526242  0.49984286  1  0.099405  0.112845  0.000712  1.003036  0.001
H  H20  1  0.01578178  0.24331629  0.46656686  1  0.097575  0.11382  -0.000105  1.017318  0.0
H  H21  1  0.98421999  0.75668380  0.53342942  1  0.097575  0.113853  -0.000105  1.017329  0.0
H  H22  1  0.81897216  0.32176122  0.23703852  1  0.084469  0.076875  7.3e-05  1.04419  0.0
H  H23  1  0.18103051  0.67823773  0.76295946  1  0.084454  0.076842  7.3e-05  1.044192  0.0
H  H24  1  0.04932277  0.38792594  0.29086139  1  0.086671  0.077218  0.000283  0.992458  0.0
H  H25  1  0.95067863  0.61207300  0.70913552  1  0.086667  0.077191  0.000283  0.992441  0.0
H  H26  1  0.96064025  0.16395141  0.06912181  1  0.097452  0.116075  0.000397  0.979949  0.001
H  H27  1  0.03936055  0.83604179  0.93087834  1  0.09747  0.116085  0.000397  0.97995  0.001
H  H28  1  0.82604266  0.04913929  0.15108520  1  0.094398  0.108759  0.000437  1.007524  0.001
H  H29  1  0.17395510  0.95085967  0.84891743  1  0.094409  0.108786  0.000436  1.007522  0.001
C  C30  1  0.76031255  0.80827408  0.36109309  1  0.052878  0.10095  0.007462  3.935867  0.006
C  C31  1  0.23969265  0.19172489  0.63890702  1  0.052851  0.100993  0.007461  3.935912  0.006
C  C32  1  0.76519760  0.69293868  0.23933014  1  -0.079313  -0.16591  0.001133  3.92385  0.001
C  C33  1  0.23480437  0.30705798  0.76067108  1  -0.079336  -0.16592  0.001135  3.923849  0.001
C  C34  1  0.64870736  0.54387795  0.20249275  1  0.010762  0.099695  0.007685  3.970355  0.006
C  C35  1  0.35129448  0.45612216  0.79750750  1  0.010807  0.099696  0.007685  3.970353  0.006
C  C36  1  0.64651376  0.41783764  0.07278270  1  0.010613  0.09816  0.008444  3.971205  0.006
C  C37  1  0.35348089  0.58216357  0.92721248  1  0.010542  0.098187  0.008446  3.97114  0.006
C  C38  1  0.75451455  0.44182273  0.97497063  1  -0.083304  -0.178811  0.000916  3.94875  0.0
C  C39  1  0.24547891  0.55817850  0.02502746  1  -0.083301  -0.178874  0.000916  3.948747  0.0
C  C40  1  0.74815714  0.31941773  0.85492616  1  0.049814  0.092106  0.007558  3.955523  0.006
C  C41  1  0.25183467  0.68058234  0.14507149  1  0.049822  0.092105  0.007558  3.955679  0.006
C  C42  1  0.53831586  0.15143758  0.91970797  1  0.051128  0.091955  0.007929  3.940043  0.006
C  C43  1  0.46168056  0.84856135  0.08028963  1  0.051118  0.091942  0.007931  3.939969  0.006
C  C44  1  0.53622857  0.26694728  0.04212342  1  -0.077188  -0.164686  0.001277  3.900091  0.001
C  C45  1  0.46376949  0.73305281  0.95787461  1  -0.077136  -0.164676  0.001277  3.900031  0.001
C  C46  1  0.53304302  0.51949163  0.29536218  1  -0.082376  -0.179731  0.000783  3.919689  0.0
C  C47  1  0.46695334  0.48051076  0.70463741  1  -0.082384  -0.179728  0.000783  3.919715  0.0
C  C48  1  0.53755949  0.64128143  0.41504311  1  0.04778  0.097136  0.006676  3.950126  0.006
C  C49  1  0.46244617  0.35871871  0.58496133  1  0.047867  0.097194  0.006676  3.950112  0.006
C  C50  1  0.73711936  0.17628040  0.43371902  1  0.222778  0.636066  0.02021  4.138932  0.018
C  C51  1  0.26288653  0.82372433  0.56628182  1  0.222798  0.636061  0.02021  4.139088  0.018
C  C52  1  0.91092312  0.28008584  0.42358480  1  -0.167922  -0.303478  0.003148  3.917533  0.003
C  C53  1  0.08908072  0.71991658  0.57641425  1  -0.167943  -0.303593  0.003148  3.917548  0.003
C  C54  1  0.93096515  0.29271928  0.27877729  1  -0.16682  -0.101053  0.001546  3.948911  0.002
C  C55  1  0.06903668  0.70728083  0.72122196  1  -0.166796  -0.100929  0.001546  3.948797  0.002
C  C56  1  0.94519767  0.14514064  0.16986490  1  -0.167705  -0.291783  -0.000301  3.908278  -0.001
C  C57  1  0.05480168  0.85485946  0.83013519  1  -0.167723  -0.291837  -0.000301  3.908303  -0.001
C  C58  1  0.10084549  0.10192353  0.22157126  1  0.200696  0.612551  0.010668  4.16505  0.007
C  C59  1  0.89914860  0.89807196  0.77843013  1  0.2007  0.61246  0.010668  4.16494  0.007
N  N60  1  0.64753613  0.78497637  0.44822412  1  -0.317608  -0.251717  0.033145  3.519211  0.015
N  N61  1  0.35246659  0.21502260  0.55177683  1  -0.317632  -0.251827  0.033147  3.519387  0.015
N  N62  1  0.64113246  0.17546713  0.82603893  1  -0.317124  -0.23552  0.034683  3.492744  0.018
N  N63  1  0.35886525  0.82453182  0.17396072  1  -0.317118  -0.235499  0.034682  3.492764  0.018
O  O64  1  0.73456421  0.13694812  0.54295069  1  -0.317901  -0.58742  0.056176  2.393232  0.037
O  O65  1  0.26544054  0.86304968  0.45704609  1  -0.317873  -0.587387  0.056174  2.39327  0.037
O  O66  1  0.60416785  0.14098360  0.33806829  1  -0.305824  -0.548209  0.048775  2.316372  0.033
O  O67  1  0.39583430  0.85902112  0.66193331  1  -0.305819  -0.548208  0.048776  2.316514  0.033
O  O68  1  0.07314157  0.98509013  0.26320618  1  -0.321197  -0.565238  0.040391  2.234751  0.03
O  O69  1  0.92685504  0.01490537  0.73679636  1  -0.321251  -0.5652  0.040393  2.234654  0.03
O  O70  1  0.25561576  0.18496744  0.23044672  1  -0.317875  -0.569374  0.030799  2.193478  0.024
O  O71  1  0.74438217  0.81502808  0.76955986  1  -0.317854  -0.569329  0.030795  2.193379  0.024
