# generated using pymatgen
data_AgHC2(N2O)2
_symmetry_space_group_name_H-M   'P 1'
_cell_length_a   3.64719242
_cell_length_b   11.28070885
_cell_length_c   11.45972983
_cell_angle_alpha   90.00026628
_cell_angle_beta   91.63798437
_cell_angle_gamma   90.00057371
_symmetry_Int_Tables_number   1
_chemical_formula_structural   AgHC2(N2O)2
_chemical_formula_sum   'Ag4 H4 C8 N16 O8'
_cell_volume   471.29404268
_cell_formula_units_Z   4
loop_
 _symmetry_equiv_pos_site_id
 _symmetry_equiv_pos_as_xyz
  1  'x, y, z'
loop_
 _atom_site_type_symbol
 _atom_site_label
 _atom_site_symmetry_multiplicity
 _atom_site_fract_x
 _atom_site_fract_y
 _atom_site_fract_z
 _atom_site_occupancy
 _atom_site_hle17_bader_spin_density
 _atom_site_hle17_ddec_charge
 _atom_site_hle17_ddec_spin_density
 _atom_site_hle17_ddec_sum_bond_order
 _atom_site_hle17_magmom
 _atom_site_hse06_10hf_bader_spin_density
 _atom_site_hse06_10hf_ddec_charge
 _atom_site_hse06_10hf_ddec_spin_density
 _atom_site_hse06_10hf_ddec_sum_bond_order
 _atom_site_hse06_10hf_magmom
 _atom_site_hse06_bader_spin_density
 _atom_site_hse06_ddec_charge
 _atom_site_hse06_ddec_spin_density
 _atom_site_hse06_ddec_sum_bond_order
 _atom_site_hse06_magmom
 _atom_site_pbe_bader_spin_density
 _atom_site_pbe_cm5_charge
 _atom_site_pbe_ddec_charge
 _atom_site_pbe_ddec_spin_density
 _atom_site_pbe_ddec_sum_bond_order
 _atom_site_pbe_magmom
Ag  Ag0  1  0.34653800  0.87983447  0.37663697  1  0  0.520998  0  1.446648  0  0  0.361679  0  1.920211  0  0  0.388201  0  1.872393  0  0  0.474499  0.34445  0  1.953323  0
Ag  Ag1  1  0.65345412  0.37983656  0.12336418  1  0  0.520999  0  1.446641  0  0  0.361686  0  1.9202  0  0  0.388207  0  1.872381  0  0  0.474497  0.344444  0  1.953309  0
Ag  Ag2  1  0.65344903  0.12016610  0.62336292  1  0  0.521006  0  1.446591  0  0  0.3617  0  1.920161  0  0  0.38822  0  1.872338  0  0  0.474503  0.344477  0  1.953283  0
Ag  Ag3  1  0.34654392  0.62016491  0.87663499  1  0  0.520987  0  1.446656  0  0  0.361695  0  1.920206  0  0  0.388217  0  1.872381  0  0  0.474498  0.344464  0  1.953314  0
H  H4  1  0.59337585  0.91300763  0.83345756  1  0  0.109306  0  0.954857  0  0  0.115638  0  1.019713  0  0  0.118  0  1.01674  0  0  0.132986  0.113988  0  1.021851  0
H  H5  1  0.40662330  0.41300555  0.66654087  1  0  0.109289  0  0.954867  0  0  0.115583  0  1.019763  0  0  0.117945  0  1.016795  0  0  0.132976  0.113932  0  1.021902  0
H  H6  1  0.40664146  0.08699206  0.16654013  1  0  0.10932  0  0.954851  0  0  0.115685  0  1.01968  0  0  0.11805  0  1.016699  0  0  0.132991  0.114032  0  1.021819  0
H  H7  1  0.59336926  0.58699680  0.33345822  1  0  0.10935  0  0.954877  0  0  0.115652  0  1.019775  0  0  0.118013  0  1.016804  0  0  0.133009  0.113999  0  1.021916  0
C  C8  1  0.46927083  0.87606364  0.75455148  1  0  0.229298  0  3.633791  0  0  0.172671  0  3.905358  0  0  0.182063  0  3.922979  0  0  0.14319  0.166536  0  3.893011  0
C  C9  1  0.53073260  0.37606322  0.74544859  1  0  0.229334  0  3.633835  0  0  0.172727  0  3.905406  0  0  0.182122  0  3.923015  0  0  0.143196  0.16659  0  3.89306  0
C  C10  1  0.53072717  0.12393694  0.24544856  1  0  0.229256  0  3.633948  0  0  0.172592  0  3.905486  0  0  0.181983  0  3.923116  0  0  0.143161  0.166453  0  3.893135  0
C  C11  1  0.46927919  0.62393912  0.25454989  1  0  0.229179  0  3.634004  0  0  0.172555  0  3.905561  0  0  0.181948  0  3.923184  0  0  0.143093  0.166412  0  3.893213  0
C  C12  1  0.20291875  0.76372156  0.63374053  1  0  0.289582  0  3.783054  0  0  0.235611  0  4.057919  0  0  0.240057  0  4.081204  0  0  0.286446  0.232576  0  4.042363  0
C  C13  1  0.79707853  0.26372616  0.86625895  1  0  0.289513  0  3.783036  0  0  0.235525  0  4.057991  0  0  0.239968  0  4.081276  0  0  0.286454  0.232489  0  4.042432  0
C  C14  1  0.79708752  0.23627369  0.36625874  1  0  0.289561  0  3.783109  0  0  0.235584  0  4.058001  0  0  0.240027  0  4.081288  0  0  0.286467  0.232551  0  4.042437  0
C  C15  1  0.20291959  0.73627353  0.13373847  1  0  0.289527  0  3.783313  0  0  0.235482  0  4.058275  0  0  0.239927  0  4.081559  0  0  0.286461  0.232444  0  4.042709  0
N  N16  1  0.44482145  0.93527329  0.65223455  1  0  -0.217789  0  3.165297  0  0  -0.155189  0  3.477382  0  0  -0.170422  0  3.491535  0  0  -0.2442  -0.14474  0  3.46765  0
N  N17  1  0.55517285  0.43527521  0.84776479  1  0  -0.217846  0  3.165479  0  0  -0.155226  0  3.477524  0  0  -0.17046  0  3.491681  0  0  -0.244204  -0.144776  0  3.46778  0
N  N18  1  0.55516828  0.06472551  0.34776625  1  0  -0.217827  0  3.165416  0  0  -0.155201  0  3.477502  0  0  -0.170435  0  3.49165  0  0  -0.244204  -0.144753  0  3.467769  0
N  N19  1  0.44483350  0.56472625  0.15223274  1  0  -0.217806  0  3.165438  0  0  -0.155168  0  3.477482  0  0  -0.1704  0  3.491631  0  0  -0.244179  -0.144716  0  3.467735  0
N  N20  1  0.32272307  0.76685747  0.74644810  1  0  -0.409665  0  3.233912  0  0  -0.333149  0  3.539147  0  0  -0.352723  0  3.553598  0  0  -0.35412  -0.319432  0  3.528899  0
N  N21  1  0.67727978  0.26686025  0.75355147  1  0  -0.409677  0  3.233911  0  0  -0.333155  0  3.539173  0  0  -0.352726  0  3.553625  0  0  -0.354176  -0.319449  0  3.528933  0
N  N22  1  0.67728602  0.23314133  0.25354947  1  0  -0.409628  0  3.23386  0  0  -0.333098  0  3.53912  0  0  -0.352672  0  3.55357  0  0  -0.354097  -0.319379  0  3.528864  0
N  N23  1  0.32271830  0.73314299  0.24644682  1  0  -0.409664  0  3.234044  0  0  -0.333092  0  3.539262  0  0  -0.352667  0  3.553713  0  0  -0.35409  -0.319377  0  3.529014  0
N  N24  1  0.27242869  0.86283145  0.57375815  1  0  -0.267879  0  3.166724  0  0  -0.21812  0  3.478692  0  0  -0.227236  0  3.491419  0  0  -0.240698  -0.212231  0  3.470408  0
N  N25  1  0.72756341  0.36283520  0.92624083  1  0  -0.267824  0  3.166846  0  0  -0.218077  0  3.478848  0  0  -0.22719  0  3.491577  0  0  -0.240687  -0.212184  0  3.470548  0
N  N26  1  0.72756931  0.13716736  0.42624188  1  0  -0.267838  0  3.166806  0  0  -0.218104  0  3.478804  0  0  -0.227217  0  3.491534  0  0  -0.240692  -0.212222  0  3.470524  0
N  N27  1  0.27243467  0.63716626  0.07375746  1  0  -0.267787  0  3.166854  0  0  -0.218042  0  3.478865  0  0  -0.227155  0  3.491595  0  0  -0.240701  -0.212154  0  3.470569  0
N  N28  1  0.00622025  0.66557392  0.58386079  1  0  0.437827  0  3.967902  0  0  0.499351  0  4.217349  0  0  0.521216  0  4.222866  0  0  0.051854  0.484453  0  4.213889  0
N  N29  1  0.99377671  0.16558029  0.91614000  1  0  0.438154  0  3.967398  0  0  0.499556  0  4.217028  0  0  0.521418  0  4.222543  0  0  0.051991  0.484661  0  4.21357  0
N  N30  1  0.99377474  0.33442045  0.41614532  1  0  0.438079  0  3.967567  0  0  0.499548  0  4.217082  0  0  0.521414  0  4.222602  0  0  0.051967  0.484651  0  4.213625  0
N  N31  1  0.00622697  0.83441940  0.08385575  1  0  0.438122  0  3.967736  0  0  0.499653  0  4.21721  0  0  0.521517  0  4.222726  0  0  0.051956  0.484758  0  4.213753  0
O  O32  1  0.96282308  0.57640042  0.64600794  1  0  -0.343582  0  1.810335  0  0  -0.336791  0  2.033163  0  0  -0.346842  0  2.025707  0  0  -0.123851  -0.330504  0  2.038767  0
O  O33  1  0.03717924  0.07640507  0.85399602  1  0  -0.343734  0  1.810303  0  0  -0.336854  0  2.033116  0  0  -0.346902  0  2.02566  0  0  -0.123881  -0.330575  0  2.038728  0
O  O34  1  0.03719651  0.42359750  0.35400025  1  0  -0.343708  0  1.81014  0  0  -0.336867  0  2.032972  0  0  -0.346915  0  2.025517  0  0  -0.123922  -0.330582  0  2.038578  0
O  O35  1  0.96281065  0.92359462  0.14600129  1  0  -0.343725  0  1.810375  0  0  -0.336863  0  2.033154  0  0  -0.346911  0  2.025699  0  0  -0.123866  -0.330582  0  2.038758  0
O  O36  1  0.88344592  0.67616313  0.48186440  1  0  -0.348049  0  1.822739  0  0  -0.34168  0  2.046754  0  0  -0.352296  0  2.039557  0  0  -0.126087  -0.335057  0  2.052167  0
O  O37  1  0.11654541  0.17617534  0.01813756  1  0  -0.348236  0  1.822474  0  0  -0.341784  0  2.046491  0  0  -0.352407  0  2.039318  0  0  -0.126176  -0.335162  0  2.051903  0
O  O38  1  0.11651588  0.32382947  0.51814736  1  0  -0.348211  0  1.822613  0  0  -0.341825  0  2.046641  0  0  -0.352435  0  2.039426  0  0  -0.126165  -0.335208  0  2.052061  0
O  O39  1  0.88347206  0.82382613  0.98185663  1  0  -0.34821  0  1.822555  0  0  -0.34189  0  2.046591  0  0  -0.352503  0  2.039387  0  0  -0.126201  -0.335275  0  2.052011  0
