# generated using pymatgen
data_HgH7C8N3Cl2O
_symmetry_space_group_name_H-M   'P 1'
_cell_length_a   6.14596265
_cell_length_b   7.94983593
_cell_length_c   23.18989027
_cell_angle_alpha   89.99963119
_cell_angle_beta   90.00015344
_cell_angle_gamma   109.04281535
_symmetry_Int_Tables_number   1
_chemical_formula_structural   HgH7C8N3Cl2O
_chemical_formula_sum   'Hg4 H28 C32 N12 Cl8 O4'
_cell_volume   1071.03819642
_cell_formula_units_Z   4
loop_
 _symmetry_equiv_pos_site_id
 _symmetry_equiv_pos_as_xyz
  1  'x, y, z'
loop_
 _atom_site_type_symbol
 _atom_site_label
 _atom_site_symmetry_multiplicity
 _atom_site_fract_x
 _atom_site_fract_y
 _atom_site_fract_z
 _atom_site_occupancy
 _atom_site_hle17_bader_spin_density
 _atom_site_hle17_ddec_charge
 _atom_site_hle17_ddec_spin_density
 _atom_site_hle17_ddec_sum_bond_order
 _atom_site_hle17_magmom
 _atom_site_hse06_10hf_bader_spin_density
 _atom_site_hse06_10hf_ddec_charge
 _atom_site_hse06_10hf_ddec_spin_density
 _atom_site_hse06_10hf_ddec_sum_bond_order
 _atom_site_hse06_10hf_magmom
 _atom_site_hse06_bader_spin_density
 _atom_site_hse06_ddec_charge
 _atom_site_hse06_ddec_spin_density
 _atom_site_hse06_ddec_sum_bond_order
 _atom_site_hse06_magmom
 _atom_site_pbe_bader_spin_density
 _atom_site_pbe_cm5_charge
 _atom_site_pbe_ddec_charge
 _atom_site_pbe_ddec_spin_density
 _atom_site_pbe_ddec_sum_bond_order
 _atom_site_pbe_magmom
Hg  Hg0  1  0.66825426  0.98954917  0.71427119  1  0  0.784322  0  2.075964  0  0  0.621659  0  2.585071  0  0  0.672255  0  2.549606  0  0  0.524145  0.586963  0  2.608648  0
Hg  Hg1  1  0.33173947  0.51045208  0.21426923  1  0  0.784242  0  2.076026  0  0  0.621556  0  2.585145  0  0  0.672151  0  2.54968  0  0  0.524119  0.586859  0  2.608725  0
Hg  Hg2  1  0.33175846  0.01045667  0.28573195  1  0  0.784294  0  2.075994  0  0  0.621637  0  2.585076  0  0  0.67223  0  2.549611  0  0  0.52415  0.586942  0  2.608655  0
Hg  Hg3  1  0.66825584  0.48954693  0.78573349  1  0  0.784274  0  2.076033  0  0  0.621614  0  2.58509  0  0  0.672209  0  2.549624  0  0  0.524157  0.58692  0  2.608669  0
H  H4  1  0.07512924  0.11349567  0.53749964  1  0  0.137997  0  0.965023  0  0  0.146174  0  1.028056  0  0  0.150335  0  1.025378  0  0  0.109378  0.143165  0  1.030124  0
H  H5  1  0.92486125  0.38649898  0.03749342  1  0  0.13808  0  0.965086  0  0  0.146214  0  1.028141  0  0  0.150375  0  1.025465  0  0  0.1094  0.143206  0  1.030209  0
H  H6  1  0.92486282  0.88649933  0.46250566  1  0  0.13802  0  0.965143  0  0  0.1462  0  1.028168  0  0  0.150362  0  1.025491  0  0  0.10937  0.143184  0  1.03024  0
H  H7  1  0.07514765  0.61350549  0.96250930  1  0  0.138071  0  0.964994  0  0  0.146181  0  1.028081  0  0  0.150341  0  1.025406  0  0  0.109414  0.143177  0  1.030145  0
H  H8  1  0.56667025  0.35266034  0.48787579  1  0  0.10691  0  0.962469  0  0  0.118409  0  1.022924  0  0  0.121348  0  1.022101  0  0  0.097221  0.116334  0  1.023607  0
H  H9  1  0.43330841  0.14734310  0.98786798  1  0  0.106803  0  0.962297  0  0  0.118378  0  1.022696  0  0  0.121317  0  1.021874  0  0  0.097167  0.116304  0  1.02338  0
H  H10  1  0.43335762  0.64736686  0.51212046  1  0  0.106904  0  0.962565  0  0  0.118421  0  1.02301  0  0  0.121361  0  1.022187  0  0  0.097184  0.116347  0  1.023697  0
H  H11  1  0.56666246  0.85263974  0.01212180  1  0  0.106945  0  0.962656  0  0  0.11846  0  1.023093  0  0  0.1214  0  1.022271  0  0  0.097189  0.116385  0  1.023779  0
H  H12  1  0.66388377  0.54709849  0.57516753  1  0  0.08442  0  0.973592  0  0  0.093789  0  1.038053  0  0  0.096513  0  1.036087  0  0  0.088232  0.091806  0  1.039542  0
H  H13  1  0.33613909  0.95291758  0.07516675  1  0  0.084336  0  0.973363  0  0  0.093738  0  1.037828  0  0  0.096462  0  1.035859  0  0  0.08821  0.091756  0  1.039318  0
H  H14  1  0.33615008  0.45293143  0.42482872  1  0  0.084362  0  0.973509  0  0  0.093761  0  1.037975  0  0  0.096482  0  1.036003  0  0  0.08821  0.091784  0  1.039448  0
H  H15  1  0.66385192  0.04707079  0.92482605  1  0  0.084226  0  0.97348  0  0  0.093615  0  1.037987  0  0  0.096336  0  1.036016  0  0  0.088157  0.091637  0  1.039465  0
H  H16  1  0.94889379  0.51715637  0.64563242  1  0  0.106221  0  0.989336  0  0  0.111454  0  1.063816  0  0  0.114994  0  1.061773  0  0  0.087886  0.10886  0  1.065457  0
H  H17  1  0.05112482  0.98285967  0.14563223  1  0  0.10616  0  0.989229  0  0  0.111381  0  1.063736  0  0  0.114921  0  1.061692  0  0  0.087851  0.108768  0  1.065396  0
H  H18  1  0.05111619  0.48285076  0.35436555  1  0  0.106233  0  0.989098  0  0  0.111468  0  1.0636  0  0  0.115008  0  1.061556  0  0  0.087917  0.108861  0  1.065252  0
H  H19  1  0.94887651  0.01713412  0.85436186  1  0  0.106257  0  0.989113  0  0  0.111512  0  1.06356  0  0  0.115052  0  1.061517  0  0  0.087936  0.108889  0  1.065225  0
H  H20  1  0.32836106  0.55478690  0.67460081  1  0  0.11191  0  0.945169  0  0  0.117725  0  1.014896  0  0  0.120564  0  1.010901  0  0  0.132166  0.115591  0  1.017854  0
H  H21  1  0.67165333  0.94521002  0.17460073  1  0  0.112049  0  0.945119  0  0  0.117845  0  1.014843  0  0  0.120685  0  1.010848  0  0  0.132174  0.115712  0  1.017802  0
H  H22  1  0.67163754  0.44520818  0.32540061  1  0  0.111954  0  0.944994  0  0  0.117707  0  1.014778  0  0  0.120544  0  1.010793  0  0  0.132181  0.115573  0  1.017736  0
H  H23  1  0.32836644  0.05480119  0.82540457  1  0  0.111882  0  0.945133  0  0  0.11781  0  1.014758  0  0  0.12065  0  1.010764  0  0  0.132191  0.115674  0  1.017716  0
H  H24  1  0.16432330  0.01439999  0.62602069  1  0  0.1228  0  0.938104  0  0  0.128802  0  1.003224  0  0  0.132003  0  0.999388  0  0  0.14182  0.126456  0  1.005995  0
H  H25  1  0.83567227  0.48558912  0.12601461  1  0  0.122851  0  0.938108  0  0  0.128832  0  1.003237  0  0  0.132035  0  0.999396  0  0  0.141807  0.126484  0  1.006009  0
H  H26  1  0.83566387  0.98559099  0.37398203  1  0  0.122793  0  0.938199  0  0  0.128787  0  1.003313  0  0  0.131986  0  0.99948  0  0  0.141787  0.12644  0  1.006084  0
H  H27  1  0.16433287  0.51440603  0.87398336  1  0  0.122832  0  0.938192  0  0  0.128813  0  1.003318  0  0  0.132014  0  0.999483  0  0  0.141781  0.126467  0  1.006089  0
H  H28  1  0.64409969  0.12716529  0.43729842  1  0  0.361365  0  0.923648  0  0  0.335813  0  1.005394  0  0  0.346031  0  0.993582  0  0  0.273602  0.328577  0  1.013679  0
H  H29  1  0.35588115  0.37282057  0.93729135  1  0  0.361414  0  0.923497  0  0  0.3358  0  1.005317  0  0  0.346008  0  0.993514  0  0  0.273596  0.328585  0  1.013601  0
H  H30  1  0.35589400  0.87282973  0.56270429  1  0  0.361284  0  0.923691  0  0  0.335704  0  1.005484  0  0  0.345937  0  0.993666  0  0  0.273561  0.328471  0  1.01377  0
H  H31  1  0.64411201  0.62717312  0.06270533  1  0  0.361258  0  0.923722  0  0  0.335675  0  1.005522  0  0  0.345907  0  0.993706  0  0  0.273553  0.328441  0  1.013807  0
C  C32  1  0.02936588  0.31399853  0.59518532  1  0  0.188582  0  3.813436  0  0  0.182087  0  4.06536  0  0  0.18866  0  4.088649  0  0  0.083639  0.177783  0  4.049529  0
C  C33  1  0.97062687  0.18600038  0.09518388  1  0  0.188458  0  3.813432  0  0  0.181944  0  4.065386  0  0  0.188516  0  4.088679  0  0  0.083644  0.177643  0  4.049549  0
C  C34  1  0.97064847  0.68600732  0.40481567  1  0  0.188324  0  3.813386  0  0  0.181793  0  4.065388  0  0  0.188365  0  4.088678  0  0  0.083422  0.177491  0  4.049545  0
C  C35  1  0.02935975  0.81399323  0.90481754  1  0  0.188398  0  3.812959  0  0  0.18187  0  4.064942  0  0  0.188442  0  4.088232  0  0  0.083476  0.177569  0  4.049101  0
C  C36  1  0.98362513  0.20737075  0.54607905  1  0  -0.26754  0  3.685223  0  0  -0.296527  0  3.936939  0  0  -0.30413  0  3.955032  0  0  -0.109306  -0.29143  0  3.924871  0
C  C37  1  0.01636644  0.29263038  0.04607364  1  0  -0.267611  0  3.685156  0  0  -0.296574  0  3.936891  0  0  -0.304179  0  3.954984  0  0  -0.109323  -0.291475  0  3.92482  0
C  C38  1  0.01637775  0.79263895  0.45392582  1  0  -0.267382  0  3.684802  0  0  -0.296419  0  3.936542  0  0  -0.304021  0  3.95463  0  0  -0.109193  -0.291324  0  3.924484  0
C  C39  1  0.98362784  0.70735803  0.95392821  1  0  -0.267428  0  3.684539  0  0  -0.296376  0  3.93634  0  0  -0.303979  0  3.954431  0  0  -0.109223  -0.291296  0  3.9243  0
C  C40  1  0.81379226  0.22024086  0.50779289  1  0  0.358049  0  3.824897  0  0  0.354108  0  4.080591  0  0  0.366493  0  4.09587  0  0  0.083081  0.345537  0  4.070177  0
C  C41  1  0.18619164  0.27975426  0.00778505  1  0  0.358059  0  3.824667  0  0  0.354122  0  4.080361  0  0  0.366509  0  4.095633  0  0  0.083058  0.345554  0  4.069944  0
C  C42  1  0.18623293  0.77977571  0.49220853  1  0  0.357835  0  3.824822  0  0  0.353962  0  4.080464  0  0  0.366348  0  4.095741  0  0  0.082962  0.345392  0  4.070045  0
C  C43  1  0.81377163  0.72022187  0.99221033  1  0  0.358027  0  3.824098  0  0  0.354096  0  4.079817  0  0  0.366483  0  4.095089  0  0  0.083036  0.345526  0  4.0694  0
C  C44  1  0.69781887  0.34277541  0.51812049  1  0  -0.212719  0  3.737748  0  0  -0.234324  0  3.98721  0  0  -0.241566  0  4.008604  0  0  -0.110994  -0.229484  0  3.972793  0
C  C45  1  0.30216828  0.15722750  0.01811991  1  0  -0.212735  0  3.737938  0  0  -0.234418  0  3.987436  0  0  -0.241663  0  4.008833  0  0  -0.111004  -0.229574  0  3.973015  0
C  C46  1  0.30220353  0.65725437  0.48187705  1  0  -0.212726  0  3.73811  0  0  -0.234384  0  3.987584  0  0  -0.241627  0  4.008975  0  0  -0.110926  -0.229547  0  3.973169  0
C  C47  1  0.69779387  0.84275391  0.98187806  1  0  -0.212853  0  3.737656  0  0  -0.23451  0  3.987178  0  0  -0.241753  0  4.008567  0  0  -0.11097  -0.229669  0  3.972763  0
C  C48  1  0.75150610  0.45037322  0.56698436  1  0  -0.015195  0  3.788865  0  0  -0.028733  0  4.043509  0  0  -0.027103  0  4.064549  0  0  -0.094022  -0.029584  0  4.029057  0
C  C49  1  0.24849631  0.04964619  0.06698052  1  0  -0.015006  0  3.78904  0  0  -0.028579  0  4.04369  0  0  -0.02695  0  4.064737  0  0  -0.093948  -0.029425  0  4.029217  0
C  C50  1  0.24851252  0.54965123  0.43301361  1  0  -0.015046  0  3.788831  0  0  -0.028606  0  4.043453  0  0  -0.026975  0  4.064504  0  0  -0.09395  -0.029455  0  4.028999  0
C  C51  1  0.75149469  0.95034218  0.93301055  1  0  -0.014797  0  3.78876  0  0  -0.028348  0  4.043396  0  0  -0.026712  0  4.064434  0  0  -0.093826  -0.029199  0  4.028938  0
C  C52  1  0.91575315  0.43663971  0.60659997  1  0  -0.180242  0  3.742649  0  0  -0.208056  0  4.004377  0  0  -0.214045  0  4.02569  0  0  -0.113682  -0.204087  0  3.990065  0
C  C53  1  0.08425976  0.06336453  0.10659728  1  0  -0.180024  0  3.742461  0  0  -0.207812  0  4.004185  0  0  -0.213798  0  4.025495  0  0  -0.11357  -0.203825  0  3.989886  0
C  C54  1  0.08426329  0.56338339  0.39340145  1  0  -0.180148  0  3.742835  0  0  -0.20795  0  4.004569  0  0  -0.213939  0  4.025881  0  0  -0.113662  -0.203971  0  3.990262  0
C  C55  1  0.91573075  0.93661457  0.89339940  1  0  -0.180304  0  3.742822  0  0  -0.208127  0  4.004584  0  0  -0.214117  0  4.025897  0  0  -0.113776  -0.20413  0  3.990286  0
C  C56  1  0.32385042  0.41740964  0.67321156  1  0  0.185922  0  3.619991  0  0  0.119533  0  3.893435  0  0  0.134848  0  3.903342  0  0  0.163201  0.109537  0  3.886602  0
C  C57  1  0.67615393  0.08258400  0.17320840  1  0  0.185699  0  3.620078  0  0  0.119339  0  3.893544  0  0  0.134656  0  3.903447  0  0  0.163196  0.109341  0  3.886715  0
C  C58  1  0.67614755  0.58260397  0.32678814  1  0  0.185699  0  3.620495  0  0  0.119359  0  3.894022  0  0  0.134669  0  3.903935  0  0  0.163167  0.109365  0  3.887186  0
C  C59  1  0.32384415  0.91740577  0.82679129  1  0  0.185902  0  3.620257  0  0  0.119381  0  3.89378  0  0  0.134694  0  3.903689  0  0  0.163187  0.109388  0  3.886946  0
C  C60  1  0.24328149  0.14007966  0.64795169  1  0  0.167282  0  3.612425  0  0  0.104702  0  3.889858  0  0  0.118104  0  3.900505  0  0  0.158278  0.095919  0  3.88261  0
C  C61  1  0.75671027  0.35991563  0.14794755  1  0  0.167206  0  3.612632  0  0  0.104704  0  3.889944  0  0  0.118105  0  3.90059  0  0  0.158323  0.095921  0  3.882699  0
C  C62  1  0.75672795  0.85992614  0.35205232  1  0  0.167108  0  3.612111  0  0  0.104568  0  3.889493  0  0  0.117973  0  3.900136  0  0  0.158181  0.095784  0  3.882243  0
C  C63  1  0.24327202  0.64007132  0.85205387  1  0  0.167121  0  3.612014  0  0  0.104596  0  3.889369  0  0  0.117995  0  3.90002  0  0  0.158226  0.095813  0  3.882119  0
N  N64  1  0.39593769  0.17066272  0.69000279  1  0  -0.237233  0  3.106347  0  0  -0.191473  0  3.396149  0  0  -0.20587  0  3.415295  0  0  -0.222456  -0.181636  0  3.382949  0
N  N65  1  0.60406448  0.32933721  0.18999818  1  0  -0.237313  0  3.106692  0  0  -0.19156  0  3.396495  0  0  -0.205952  0  3.41564  0  0  -0.22253  -0.181724  0  3.383295  0
N  N66  1  0.60405216  0.82933888  0.30999776  1  0  -0.237213  0  3.106049  0  0  -0.191434  0  3.395856  0  0  -0.205832  0  3.415002  0  0  -0.222419  -0.181593  0  3.382649  0
N  N67  1  0.39595045  0.67066203  0.80999850  1  0  -0.237211  0  3.105841  0  0  -0.191444  0  3.395626  0  0  -0.205841  0  3.414776  0  0  -0.222459  -0.181605  0  3.382418  0
N  N68  1  0.44680928  0.34556894  0.70546928  1  0  -0.226753  0  3.219073  0  0  -0.161561  0  3.508771  0  0  -0.179804  0  3.529283  0  0  -0.224256  -0.149302  0  3.494582  0
N  N69  1  0.55319293  0.15442673  0.20546500  1  0  -0.22671  0  3.218885  0  0  -0.161573  0  3.508645  0  0  -0.179819  0  3.529157  0  0  -0.224266  -0.149313  0  3.494458  0
N  N70  1  0.55319093  0.65443013  0.29453559  1  0  -0.226509  0  3.21943  0  0  -0.161361  0  3.509156  0  0  -0.179603  0  3.529673  0  0  -0.224236  -0.149104  0  3.494964  0
N  N71  1  0.44681707  0.84557643  0.79453642  1  0  -0.226699  0  3.218966  0  0  -0.161538  0  3.50876  0  0  -0.179781  0  3.529276  0  0  -0.224246  -0.149278  0  3.494569  0
N  N72  1  0.19366791  0.29253422  0.63583674  1  0  -0.116234  0  3.571493  0  0  -0.024251  0  3.78367  0  0  -0.041161  0  3.806119  0  0  -0.211791  -0.013143  0  3.768302  0
N  N73  1  0.80632770  0.20745074  0.13583082  1  0  -0.116055  0  3.571774  0  0  -0.024089  0  3.783935  0  0  -0.040998  0  3.806387  0  0  -0.211754  -0.01298  0  3.768566  0
N  N74  1  0.80632143  0.70745810  0.36416597  1  0  -0.116069  0  3.571362  0  0  -0.024059  0  3.783504  0  0  -0.040968  0  3.805954  0  0  -0.21167  -0.01295  0  3.76813  0
N  N75  1  0.19368779  0.79254586  0.86416629  1  0  -0.116128  0  3.571606  0  0  -0.024124  0  3.78381  0  0  -0.041034  0  3.806265  0  0  -0.2117  -0.013015  0  3.768437  0
Cl  Cl76  1  0.59879546  0.84326127  0.62040327  1  0  -0.471207  0  1.035233  0  0  -0.408419  0  1.309187  0  0  -0.42699  0  1.290535  0  0  -0.234526  -0.3957  0  1.321937  0
Cl  Cl77  1  0.40119105  0.65673633  0.12040146  1  0  -0.471165  0  1.035249  0  0  -0.408349  0  1.30918  0  0  -0.426918  0  1.290529  0  0  -0.234506  -0.39563  0  1.32193  0
Cl  Cl78  1  0.40120639  0.15673782  0.37960031  1  0  -0.471208  0  1.035284  0  0  -0.408422  0  1.309219  0  0  -0.426978  0  1.290538  0  0  -0.234539  -0.395715  0  1.321975  0
Cl  Cl79  1  0.59880482  0.34326004  0.87960168  1  0  -0.471187  0  1.035293  0  0  -0.408403  0  1.309247  0  0  -0.42696  0  1.290561  0  0  -0.234529  -0.395696  0  1.322022  0
Cl  Cl80  1  0.93375232  0.23844676  0.76777906  1  0  -0.465451  0  1.065331  0  0  -0.407669  0  1.373226  0  0  -0.429511  0  1.356084  0  0  -0.265114  -0.392407  0  1.384596  0
Cl  Cl81  1  0.06625324  0.26155575  0.26777893  1  0  -0.465415  0  1.06535  0  0  -0.407635  0  1.373271  0  0  -0.429476  0  1.356127  0  0  -0.2651  -0.392378  0  1.384657  0
Cl  Cl82  1  0.06624680  0.76155362  0.23222624  1  0  -0.465478  0  1.065327  0  0  -0.40768  0  1.373202  0  0  -0.429519  0  1.35606  0  0  -0.265122  -0.392447  0  1.384628  0
Cl  Cl83  1  0.93374750  0.73844863  0.73222465  1  0  -0.465447  0  1.065349  0  0  -0.407656  0  1.373242  0  0  -0.429496  0  1.356098  0  0  -0.265117  -0.392428  0  1.384678  0
O  O84  1  0.76876116  0.10963263  0.46132835  1  0  -0.523206  0  2.149868  0  0  -0.473237  0  2.359978  0  0  -0.49197  0  2.350241  0  0  -0.356497  -0.459727  0  2.366331  0
O  O85  1  0.23121097  0.39035931  0.96131684  1  0  -0.523335  0  2.149442  0  0  -0.473272  0  2.359578  0  0  -0.491996  0  2.349856  0  0  -0.35652  -0.459795  0  2.365891  0
O  O86  1  0.23123847  0.89037306  0.53867565  1  0  -0.523032  0  2.149545  0  0  -0.473036  0  2.359625  0  0  -0.491788  0  2.349853  0  0  -0.356405  -0.459532  0  2.36598  0
O  O87  1  0.76876803  0.60963157  0.03867811  1  0  -0.523129  0  2.149507  0  0  -0.473109  0  2.359615  0  0  -0.49186  0  2.349841  0  0  -0.356456  -0.459605  0  2.365971  0
