# generated using pymatgen
data_SmH13C26S(N2O3)2
_symmetry_space_group_name_H-M   'P 1'
_cell_length_a   9.97356635
_cell_length_b   13.17262199
_cell_length_c   19.24238171
_cell_angle_alpha   89.99986052
_cell_angle_beta   90.00006635
_cell_angle_gamma   91.40027235
_symmetry_Int_Tables_number   1
_chemical_formula_structural   SmH13C26S(N2O3)2
_chemical_formula_sum   'Sm4 H52 C104 S4 N16 O24'
_cell_volume   2527.27106213
_cell_formula_units_Z   4
loop_
 _symmetry_equiv_pos_site_id
 _symmetry_equiv_pos_as_xyz
  1  'x, y, z'
loop_
 _atom_site_type_symbol
 _atom_site_label
 _atom_site_symmetry_multiplicity
 _atom_site_fract_x
 _atom_site_fract_y
 _atom_site_fract_z
 _atom_site_occupancy
 _atom_site_pbe_bader_charge
 _atom_site_pbe_bader_spin_density
 _atom_site_pbe_cm5_charge
 _atom_site_pbe_ddec_charge
 _atom_site_pbe_ddec_spin_density
 _atom_site_pbe_ddec_sum_bond_order
 _atom_site_pbe_magmom
Sm  Sm0  1  0.05340306  0.12913386  0.54604146  1  2.186566  0  1.506025  1.971817  0  2.223701  0
Sm  Sm1  1  0.44659691  0.37086727  0.04604194  1  2.186537  0  1.506005  1.971746  0  2.223794  0
Sm  Sm2  1  0.94659765  0.87086720  0.45395843  1  2.186495  0  1.506009  1.971764  0  2.223748  0
Sm  Sm3  1  0.55340276  0.62913227  0.95395795  1  2.186549  0  1.506009  1.971782  0  2.223692  0
H  H4  1  0.10294481  0.27874244  0.40119857  1  0.132417  0  0.108924  0.069952  0  1.077622  0
H  H5  1  0.39705191  0.22125743  0.90119763  1  0.132608  0  0.108924  0.069944  0  1.077588  0
H  H6  1  0.89705793  0.72125939  0.59880184  1  0.132292  0  0.108937  0.069943  0  1.077676  0
H  H7  1  0.60294570  0.77873983  0.09880175  1  0.132246  0  0.108937  0.069975  0  1.077614  0
H  H8  1  0.85326308  0.13214995  0.68583780  1  0.135153  0  0.119198  0.086482  0  1.048106  0
H  H9  1  0.64673571  0.36784864  0.18583655  1  0.135184  0  0.119189  0.086444  0  1.04814  0
H  H10  1  0.14673355  0.86784807  0.31416157  1  0.135156  0  0.11919  0.086424  0  1.048186  0
H  H11  1  0.35326397  0.63215090  0.81416231  1  0.135174  0  0.119196  0.086451  0  1.048116  0
H  H12  1  0.04131805  0.43811648  0.33933914  1  0.0914  0  0.112976  0.120404  0  0.980374  0
H  H13  1  0.45867858  0.06188513  0.83933901  1  0.09138  0  0.112978  0.120395  0  0.980359  0
H  H14  1  0.95867964  0.56188382  0.66065972  1  0.091413  0  0.112987  0.120417  0  0.980355  0
H  H15  1  0.54132404  0.93811214  0.16066036  1  0.091398  0  0.112974  0.120404  0  0.980417  0
H  H16  1  0.67685559  0.22397386  0.75160916  1  0.070654  0  0.108075  0.111533  0  0.999929  0
H  H17  1  0.82314638  0.27602602  0.25160868  1  0.070649  0  0.108068  0.11154  0  0.999911  0
H  H18  1  0.32314308  0.77602568  0.24839022  1  0.070644  0  0.108067  0.11153  0  0.999918  0
H  H19  1  0.17685433  0.72397505  0.74839121  1  0.070638  0  0.108068  0.111537  0  0.999924  0
H  H20  1  0.36286051  0.42211965  0.63756117  1  0.124172  0  0.108526  0.118361  0  1.034315  0
H  H21  1  0.13713864  0.07788039  0.13756091  1  0.124152  0  0.108506  0.118316  0  1.034367  0
H  H22  1  0.63714121  0.57788141  0.36243873  1  0.124186  0  0.108529  0.118368  0  1.034349  0
H  H23  1  0.86285800  0.92211838  0.86243951  1  0.124173  0  0.108517  0.118354  0  1.034329  0
H  H24  1  0.86954714  0.54996949  0.39329727  1  0.124266  0  0.108596  0.112841  0  1.022494  0
H  H25  1  0.63045213  0.95002944  0.89329682  1  0.124266  0  0.108597  0.11285  0  1.022474  0
H  H26  1  0.13044844  0.45002700  0.60670211  1  0.124241  0  0.108603  0.11283  0  1.022494  0
H  H27  1  0.36955056  0.04997011  0.10670360  1  0.124272  0  0.1086  0.112855  0  1.022476  0
H  H28  1  0.59305720  0.38800948  0.70254282  1  0.098245  0  0.108516  0.113826  0  1.028004  0
H  H29  1  0.90694262  0.11198905  0.20254059  1  0.098249  0  0.108499  0.113795  0  1.028007  0
H  H30  1  0.40694349  0.61199082  0.29745863  1  0.09826  0  0.108485  0.113781  0  1.02801  0
H  H31  1  0.09305910  0.88801202  0.79745826  1  0.098236  0  0.108498  0.113806  0  1.027967  0
H  H32  1  0.44551015  0.51253438  0.75171123  1  0.120423  0  0.119318  0.139064  0  0.990239  0
H  H33  1  0.05449026  0.98746558  0.25171128  1  0.120411  0  0.119308  0.13905  0  0.990266  0
H  H34  1  0.55449155  0.48746593  0.24828919  1  0.120468  0  0.119327  0.139081  0  0.990236  0
H  H35  1  0.94551042  0.01253396  0.74828966  1  0.120417  0  0.119309  0.139047  0  0.990263  0
H  H36  1  0.71235825  0.64479704  0.46288260  1  0.555664  0  0.311175  0.294755  0  0.999595  0
H  H37  1  0.78764026  0.85520544  0.96288137  1  0.555659  0  0.311175  0.294745  0  0.999607  0
H  H38  1  0.28764044  0.35520326  0.53711781  1  0.555662  0  0.311181  0.29477  0  0.99955  0
H  H39  1  0.21235843  0.14479486  0.03711853  1  0.555668  0  0.31119  0.294788  0  0.99957  0
H  H40  1  0.59383048  0.77421608  0.46201199  1  0.084752  0  0.109666  0.111998  0  1.031477  0
H  H41  1  0.90616692  0.72578260  0.96201156  1  0.084711  0  0.109665  0.112008  0  1.03144  0
H  H42  1  0.40616819  0.22578345  0.53798843  1  0.084735  0  0.109668  0.112005  0  1.031451  0
H  H43  1  0.09383070  0.27421542  0.03798834  1  0.084748  0  0.10967  0.112007  0  1.031463  0
H  H44  1  0.39018856  0.65222306  0.64277239  1  0.094302  0  0.102491  0.10662  0  1.012404  0
H  H45  1  0.10980961  0.84777727  0.14277115  1  0.094324  0  0.102494  0.106616  0  1.012329  0
H  H46  1  0.60980915  0.34777799  0.35722750  1  0.094293  0  0.102509  0.106641  0  1.012375  0
H  H47  1  0.89019010  0.15222379  0.85722770  1  0.09431  0  0.10248  0.106585  0  1.012348  0
H  H48  1  0.44879013  0.92064721  0.46269469  1  0.102339  0  0.109794  0.115282  0  0.994281  0
H  H49  1  0.05120869  0.57935124  0.96269585  1  0.102342  0  0.1098  0.115299  0  0.994285  0
H  H50  1  0.55120952  0.07935157  0.53730469  1  0.102339  0  0.109807  0.115316  0  0.994268  0
H  H51  1  0.94879198  0.42064830  0.03730457  1  0.102347  0  0.109792  0.115311  0  0.994269  0
H  H52  1  0.23824058  0.79975978  0.64144651  1  0.067395  0  0.100564  0.099128  0  1.01173  0
H  H53  1  0.26175759  0.70024056  0.14144768  1  0.067381  0  0.100576  0.09914  0  1.011699  0
H  H54  1  0.76175811  0.20024051  0.35855287  1  0.067371  0  0.100573  0.099136  0  1.011718  0
H  H55  1  0.73824311  0.29975975  0.85855325  1  0.067425  0  0.100582  0.099129  0  1.01173  0
C  C56  1  0.18780046  0.24478601  0.65212703  1  1.561166  0  0.188162  0.582427  0  4.26381  0
C  C57  1  0.31219669  0.25521321  0.15212606  1  1.561286  0  0.18813  0.582352  0  4.263841  0
C  C58  1  0.81220024  0.75521429  0.34787339  1  1.561167  0  0.188164  0.58242  0  4.263808  0
C  C59  1  0.68780198  0.74478633  0.84787280  1  1.561075  0  0.188114  0.582315  0  4.263912  0
C  C60  1  0.87726977  0.35590780  0.51206807  1  0.551691  0  0.122669  0.132919  0  3.979108  0
C  C61  1  0.62272867  0.14409215  0.01206770  1  0.551702  0  0.122642  0.132896  0  3.979055  0
C  C62  1  0.12273295  0.64409327  0.48793286  1  0.551691  0  0.122678  0.132959  0  3.979074  0
C  C63  1  0.37727000  0.85590739  0.98793272  1  0.551708  0  0.122665  0.132922  0  3.979059  0
C  C64  1  0.02668234  0.32786236  0.42228166  1  0.484528  0  0.047904  0.102636  0  3.982105  0
C  C65  1  0.47331645  0.17213820  0.92228084  1  0.48433  0  0.047891  0.102616  0  3.982069  0
C  C66  1  0.97331934  0.67213719  0.57771824  1  0.484069  0  0.04789  0.102634  0  3.982199  0
C  C67  1  0.52668323  0.82786134  0.07771854  1  0.484634  0  0.047832  0.102481  0  3.982206  0
C  C68  1  0.81884736  0.32202782  0.57755218  1  0.458936  0  0.121119  0.130007  0  3.975197  0
C  C69  1  0.68114924  0.17797266  0.07755179  1  0.458944  0  0.121138  0.130004  0  3.975257  0
C  C70  1  0.18115338  0.67797400  0.42244927  1  0.458988  0  0.121105  0.129969  0  3.975247  0
C  C71  1  0.31884945  0.82202764  0.92244811  1  0.458833  0  0.121121  0.13005  0  3.975186  0
C  C72  1  0.81314421  0.20249430  0.66606056  1  0.525411  0  0.055247  0.118146  0  3.95745  0
C  C73  1  0.68685555  0.29750511  0.16605996  1  0.52542  0  0.055209  0.118061  0  3.957544  0
C  C74  1  0.18685548  0.79750600  0.33393934  1  0.52542  0  0.055215  0.118088  0  3.95747  0
C  C75  1  0.31314314  0.70249518  0.83393941  1  0.525415  0  0.055216  0.118111  0  3.957487  0
C  C76  1  0.25360982  0.31204868  0.70328542  1  -0.167253  0  -0.024283  -0.124617  0  3.977539  0
C  C77  1  0.24638949  0.18795189  0.20328556  1  -0.167549  0  -0.024261  -0.124557  0  3.977478  0
C  C78  1  0.74639188  0.68795163  0.29671396  1  -0.167249  0  -0.02428  -0.124555  0  3.977437  0
C  C79  1  0.75361018  0.81204765  0.79671381  1  -0.167303  0  -0.024287  -0.124587  0  3.97751  0
C  C80  1  0.83665273  0.44868136  0.48085667  1  0.003651  0  0.001282  -0.014328  0  4.007874  0
C  C81  1  0.66334676  0.05131922  0.98085587  1  0.003615  0  0.001287  -0.014291  0  4.00791  0
C  C82  1  0.16334895  0.55131818  0.51914374  1  0.003617  0  0.001273  -0.014286  0  4.007895  0
C  C83  1  0.33665293  0.94868108  0.01914403  1  0.003635  0  0.001277  -0.014326  0  4.007957  0
C  C84  1  0.99162080  0.41740263  0.38791451  1  -0.013831  0  -0.085989  -0.133278  0  3.994748  0
C  C85  1  0.50837750  0.08259828  0.88791408  1  -0.013991  0  -0.085975  -0.133195  0  3.994667  0
C  C86  1  0.00837787  0.58259691  0.61208435  1  -0.013858  0  -0.086005  -0.133255  0  3.994745  0
C  C87  1  0.49162416  0.91740051  0.11208478  1  -0.013995  0  -0.085959  -0.133162  0  3.994798  0
C  C88  1  0.71838147  0.37948193  0.61132079  1  -0.021676  0  0.004079  -0.004741  0  3.985962  0
C  C89  1  0.78161615  0.12051691  0.11132107  1  -0.021963  0  0.004068  -0.00479  0  3.985953  0
C  C90  1  0.28161923  0.62051837  0.38867962  1  -0.021665  0  0.004081  -0.004751  0  3.985908  0
C  C91  1  0.21838352  0.87948263  0.88867882  1  -0.021652  0  0.00407  -0.004807  0  3.986012  0
C  C92  1  0.71455078  0.25463976  0.70257155  1  -0.068149  0  -0.083729  -0.128469  0  3.984957  0
C  C93  1  0.78545208  0.24535953  0.20257163  1  -0.068155  0  -0.083652  -0.128436  0  3.984787  0
C  C94  1  0.28544990  0.74535978  0.29742834  1  -0.068143  0  -0.083677  -0.128399  0  3.984888  0
C  C95  1  0.21454858  0.75463925  0.79742827  1  -0.068159  0  -0.083692  -0.128471  0  3.984805  0
C  C96  1  0.33378926  0.39719252  0.68941702  1  -0.032983  0  -0.096547  -0.115999  0  4.024264  0
C  C97  1  0.16620897  0.10280658  0.18941623  1  -0.032674  0  -0.096515  -0.115968  0  4.024242  0
C  C98  1  0.66621242  0.60280703  0.31058287  1  -0.032898  0  -0.096534  -0.116027  0  4.024362  0
C  C99  1  0.83378867  0.89719220  0.81058367  1  -0.0329  0  -0.096525  -0.116003  0  4.024272  0
C  C100  1  0.73728424  0.50410466  0.51661880  1  0.404617  0  0.091881  0.087764  0  4.041717  0
C  C101  1  0.76271226  0.99589711  0.01661740  1  0.40458  0  0.091909  0.087809  0  4.041699  0
C  C102  1  0.26271349  0.49589716  0.48338265  1  0.404566  0  0.091868  0.087729  0  4.041707  0
C  C103  1  0.23728643  0.00410319  0.98338301  1  0.404621  0  0.091873  0.087754  0  4.041755  0
C  C104  1  0.89691965  0.47874769  0.41758903  1  -0.096495  0  -0.067791  -0.064334  0  3.924936  0
C  C105  1  0.60307870  0.02125312  0.91758876  1  -0.096333  0  -0.067812  -0.064423  0  3.924929  0
C  C106  1  0.10307697  0.52125033  0.58241087  1  -0.096492  0  -0.067782  -0.064351  0  3.924881  0
C  C107  1  0.39692300  0.97874719  0.08241166  1  -0.096321  0  -0.067791  -0.064401  0  3.924902  0
C  C108  1  0.67658770  0.47089196  0.57853526  1  0.441286  0  0.084402  0.087485  0  4.104119  0
C  C109  1  0.82341090  0.02910852  0.07853520  1  0.441518  0  0.084396  0.0874  0  4.104246  0
C  C110  1  0.32341302  0.52910910  0.42146515  1  0.441301  0  0.084421  0.087449  0  4.104151  0
C  C111  1  0.17658777  0.97089102  0.92146470  1  0.441233  0  0.084412  0.087454  0  4.104239  0
C  C112  1  0.66777526  0.34416734  0.67543345  1  0.037297  0  -0.062203  -0.053462  0  3.915215  0
C  C113  1  0.83222553  0.15583205  0.17543267  1  0.037374  0  -0.062182  -0.053361  0  3.915044  0
C  C114  1  0.33222545  0.65583373  0.32456696  1  0.037286  0  -0.062203  -0.053413  0  3.915156  0
C  C115  1  0.16777419  0.84416901  0.82456723  1  0.037323  0  -0.06218  -0.053369  0  3.91499  0
C  C116  1  0.33213319  0.39768381  0.81009595  1  -0.262754  0  -0.020602  -0.131362  0  3.957545  0
C  C117  1  0.16786634  0.10231639  0.31009567  1  -0.262755  0  -0.020599  -0.131378  0  3.957526  0
C  C118  1  0.66786749  0.60231574  0.18990394  1  -0.262762  0  -0.020593  -0.131329  0  3.957548  0
C  C119  1  0.83213634  0.89768316  0.68990474  1  -0.26276  0  -0.020611  -0.131358  0  3.957453  0
C  C120  1  0.37836488  0.44614983  0.75032110  1  0.0021  0  -0.094158  -0.115894  0  4.00139  0
C  C121  1  0.12163350  0.05384981  0.25032140  1  0.002089  0  -0.094182  -0.115916  0  4.001451  0
C  C122  1  0.62163780  0.55384972  0.24967880  1  0.001993  0  -0.094176  -0.115931  0  4.00149  0
C  C123  1  0.87836519  0.94615049  0.74967902  1  0.002055  0  -0.094142  -0.11588  0  4.001393  0
C  C124  1  0.36809794  0.43028725  0.88148679  1  1.602726  0  0.228714  0.648941  0  4.196599  0
C  C125  1  0.13190171  0.06971118  0.38148654  1  1.602695  0  0.228702  0.648943  0  4.196602  0
C  C126  1  0.63190276  0.56971306  0.11851311  1  1.602692  0  0.228695  0.648885  0  4.196535  0
C  C127  1  0.86810198  0.93028837  0.61851439  1  1.602582  0  0.228743  0.649022  0  4.196368  0
C  C128  1  0.58546211  0.61254872  0.55218235  1  0.946651  0  0.221037  0.301568  0  4.009644  0
C  C129  1  0.91453647  0.88745292  0.05218122  1  0.946334  0  0.221031  0.301603  0  4.00958  0
C  C130  1  0.41453660  0.38745233  0.44781755  1  0.946658  0  0.221039  0.301601  0  4.009589  0
C  C131  1  0.08546222  0.11254738  0.94781867  1  0.946451  0  0.221001  0.30155  0  4.009613  0
C  C132  1  0.50095933  0.70139617  0.55212820  1  -0.005427  0  -0.010385  -0.000989  0  4.040448  0
C  C133  1  0.99903819  0.79860319  0.05212728  1  -0.005291  0  -0.010408  -0.001141  0  4.04033  0
C  C134  1  0.49903834  0.29860336  0.44787169  1  -0.005415  0  -0.01039  -0.001065  0  4.040387  0
C  C135  1  0.00096149  0.20139635  0.94787210  1  -0.005406  0  -0.010411  -0.001054  0  4.040407  0
C  C136  1  0.51624434  0.77803538  0.50166557  1  -0.009172  0  -0.081703  -0.101692  0  3.947008  0
C  C137  1  0.98375406  0.72196340  0.00166581  1  -0.009183  0  -0.081689  -0.101633  0  3.947  0
C  C138  1  0.48375534  0.22196416  0.49833328  1  -0.009168  0  -0.081666  -0.10161  0  3.946982  0
C  C139  1  0.01624459  0.27803538  0.99833409  1  -0.009162  0  -0.081693  -0.101674  0  3.946984  0
C  C140  1  0.40100247  0.71101085  0.60316499  1  -0.047157  0  -0.087094  -0.113033  0  3.993886  0
C  C141  1  0.09899558  0.78898810  0.10316487  1  -0.047232  0  -0.087107  -0.112981  0  3.993766  0
C  C142  1  0.59899520  0.28898868  0.39683387  1  -0.047054  0  -0.087127  -0.113046  0  3.993878  0
C  C143  1  0.90100508  0.21101068  0.89683502  1  -0.047158  0  -0.087078  -0.112949  0  3.993772  0
C  C144  1  0.43383249  0.86175709  0.50190869  1  -0.017877  0  -0.080867  -0.095605  0  3.959846  0
C  C145  1  0.06616436  0.63824298  0.00190933  1  -0.017881  0  -0.080847  -0.095583  0  3.959859  0
C  C146  1  0.56616419  0.13824320  0.49809068  1  -0.017877  0  -0.08086  -0.095633  0  3.95988  0
C  C147  1  0.93383433  0.36175732  0.99809056  1  -0.017883  0  -0.080839  -0.095608  0  3.959855  0
C  C148  1  0.31679698  0.79358202  0.60239524  1  -0.021015  0  -0.089325  -0.110078  0  3.997269  0
C  C149  1  0.18320213  0.70641922  0.10239531  1  -0.021  0  -0.089369  -0.110105  0  3.997311  0
C  C150  1  0.68320173  0.20641904  0.39760414  1  -0.021102  0  -0.089324  -0.110042  0  3.997226  0
C  C151  1  0.81679756  0.29358108  0.89760458  1  -0.02102  0  -0.089368  -0.110085  0  3.997252  0
C  C152  1  0.33234249  0.86954397  0.55172629  1  -0.077716  0  -0.006409  -0.013087  0  3.942245  0
C  C153  1  0.16765647  0.63045593  0.05172701  1  -0.077681  0  -0.006433  -0.013203  0  3.942207  0
C  C154  1  0.66765718  0.13045558  0.44827360  1  -0.077691  0  -0.006456  -0.013205  0  3.942275  0
C  C155  1  0.83234321  0.36954361  0.94827393  1  -0.077697  0  -0.006452  -0.013212  0  3.942233  0
C  C156  1  0.23867829  0.95656143  0.54923326  1  1.566905  0  0.226634  0.641699  0  4.142968  0
C  C157  1  0.26132269  0.54343924  0.04923417  1  1.566897  0  0.226678  0.641808  0  4.14277  0
C  C158  1  0.76132244  0.04344039  0.45076664  1  1.566879  0  0.226648  0.641751  0  4.142862  0
C  C159  1  0.73867701  0.45656106  0.95076624  1  1.566913  0  0.226686  0.641808  0  4.142788  0
S  S160  1  0.23335462  0.29224808  0.79126986  1  0.288717  0  0.123257  0.197389  0  2.84287  0
S  S161  1  0.26664485  0.20775142  0.29126946  1  0.288745  0  0.123265  0.197394  0  2.842868  0
S  S162  1  0.76664706  0.70775146  0.20873004  1  0.288697  0  0.123249  0.197365  0  2.842836  0
S  S163  1  0.73335781  0.79224737  0.70872991  1  0.288725  0  0.123282  0.197412  0  2.842881  0
N  N164  1  0.97224633  0.29756817  0.48242057  1  -1.253776  0  -0.360949  -0.365066  0  3.486942  0
N  N165  1  0.52775218  0.20243317  0.98241996  1  -1.253828  0  -0.360933  -0.365078  0  3.486859  0
N  N166  1  0.02775641  0.70243366  0.51757984  1  -1.253193  0  -0.360938  -0.365098  0  3.486897  0
N  N167  1  0.47224649  0.79756637  0.01757942  1  -1.253807  0  -0.360928  -0.365023  0  3.486834  0
N  N168  1  0.86429372  0.23467462  0.60561792  1  -1.230687  0  -0.371359  -0.368307  0  3.492414  0
N  N169  1  0.63570490  0.26532425  0.10561839  1  -1.230726  0  -0.371375  -0.36821  0  3.492571  0
N  N170  1  0.13570800  0.76532645  0.39438353  1  -1.230766  0  -0.371339  -0.368229  0  3.492341  0
N  N171  1  0.36429375  0.73467453  0.89438150  1  -1.230571  0  -0.371356  -0.368301  0  3.492415  0
N  N172  1  0.67871711  0.59440085  0.50102448  1  -1.274215  0  -0.374988  -0.302585  0  3.575489  0
N  N173  1  0.82128235  0.90560022  0.00102327  1  -1.273916  0  -0.375002  -0.302597  0  3.575415  0
N  N174  1  0.32128361  0.40560022  0.49897593  1  -1.274192  0  -0.375005  -0.302613  0  3.575401  0
N  N175  1  0.17871530  0.09439856  0.99897662  1  -1.274059  0  -0.374967  -0.302568  0  3.575342  0
N  N176  1  0.58174613  0.53815769  0.59976436  1  -1.141708  0  -0.337816  -0.402023  0  3.185085  0
N  N177  1  0.91825253  0.96184303  0.09976311  1  -1.141676  0  -0.337784  -0.401934  0  3.185031  0
N  N178  1  0.41825359  0.46184337  0.40023606  1  -1.141708  0  -0.337806  -0.401976  0  3.185075  0
N  N179  1  0.08174614  0.03815651  0.90023679  1  -1.141698  0  -0.337785  -0.401953  0  3.185097  0
O  O180  1  0.92892865  0.01593658  0.61537627  1  -1.185021  0  -0.399421  -0.639672  0  2.385574  0
O  O181  1  0.57107901  0.48406227  0.11537478  1  -1.185053  0  -0.399323  -0.63952  0  2.385522  0
O  O182  1  0.07107804  0.98406298  0.38462518  1  -1.185119  0  -0.399314  -0.639492  0  2.385565  0
O  O183  1  0.42892062  0.51593575  0.88462564  1  -1.185107  0  -0.39935  -0.639572  0  2.385654  0
O  O184  1  0.11838661  0.93813479  0.52712943  1  -1.215779  0  -0.439176  -0.748249  0  2.432952  0
O  O185  1  0.38161535  0.56186673  0.02713194  1  -1.215892  0  -0.439195  -0.748301  0  2.432889  0
O  O186  1  0.88161513  0.06186704  0.47287047  1  -1.21589  0  -0.439202  -0.748303  0  2.432903  0
O  O187  1  0.61838434  0.43813357  0.97286951  1  -1.215927  0  -0.43923  -0.748338  0  2.43295  0
O  O188  1  0.27523130  0.04465593  0.56789648  1  -1.159318  0  -0.346069  -0.583383  0  2.146655  0
O  O189  1  0.22476968  0.45534360  0.06789565  1  -1.159302  0  -0.34606  -0.583372  0  2.146636  0
O  O190  1  0.72477140  0.95534438  0.43210393  1  -1.159254  0  -0.346049  -0.58335  0  2.146616  0
O  O191  1  0.77522899  0.54465594  0.93210425  1  -1.159293  0  -0.346044  -0.583347  0  2.146649  0
O  O192  1  0.19811812  0.26990537  0.58698330  1  -1.202527  0  -0.388954  -0.651078  0  2.287584  0
O  O193  1  0.30187993  0.23009561  0.08698289  1  -1.202538  0  -0.388953  -0.651037  0  2.287545  0
O  O194  1  0.80188159  0.73009570  0.41301659  1  -1.20254  0  -0.388951  -0.651063  0  2.287577  0
O  O195  1  0.69811876  0.76990469  0.91301648  1  -1.202475  0  -0.388933  -0.651028  0  2.287604  0
O  O196  1  0.12096132  0.16675383  0.67070014  1  -1.164958  0  -0.35735  -0.587208  0  2.181663  0
O  O197  1  0.37903691  0.33324685  0.17069960  1  -1.165048  0  -0.357325  -0.587179  0  2.181655  0
O  O198  1  0.87903837  0.83324647  0.32929976  1  -1.164968  0  -0.357363  -0.587234  0  2.181662  0
O  O199  1  0.62096075  0.66675268  0.82929978  1  -1.16489  0  -0.35731  -0.587146  0  2.181634  0
O  O200  1  0.16013539  0.12747411  0.43288814  1  -1.193693  0  -0.383149  -0.634607  0  2.251436  0
O  O201  1  0.33986535  0.37252338  0.93288899  1  -1.193708  0  -0.383144  -0.634583  0  2.251404  0
O  O202  1  0.83986731  0.87252620  0.56711123  1  -1.193647  0  -0.383121  -0.634613  0  2.251334  0
O  O203  1  0.66013629  0.62747465  0.06711143  1  -1.193733  0  -0.383142  -0.63457  0  2.251408  0
