# generated using pymatgen
data_CdH8C9O5
_symmetry_space_group_name_H-M   'P 1'
_cell_length_a   7.54740755
_cell_length_b   10.74753542
_cell_length_c   11.85078619
_cell_angle_alpha   89.99986223
_cell_angle_beta   89.99981065
_cell_angle_gamma   108.46260403
_symmetry_Int_Tables_number   1
_chemical_formula_structural   CdH8C9O5
_chemical_formula_sum   'Cd4 H32 C36 O20'
_cell_volume   911.81172816
_cell_formula_units_Z   4
loop_
 _symmetry_equiv_pos_site_id
 _symmetry_equiv_pos_as_xyz
  1  'x, y, z'
loop_
 _atom_site_type_symbol
 _atom_site_label
 _atom_site_symmetry_multiplicity
 _atom_site_fract_x
 _atom_site_fract_y
 _atom_site_fract_z
 _atom_site_occupancy
 _atom_site_hle17_bader_spin_density
 _atom_site_hle17_ddec_charge
 _atom_site_hle17_ddec_spin_density
 _atom_site_hle17_ddec_sum_bond_order
 _atom_site_hle17_magmom
 _atom_site_hse06_10hf_bader_spin_density
 _atom_site_hse06_10hf_ddec_charge
 _atom_site_hse06_10hf_ddec_spin_density
 _atom_site_hse06_10hf_ddec_sum_bond_order
 _atom_site_hse06_10hf_magmom
 _atom_site_hse06_bader_spin_density
 _atom_site_hse06_ddec_charge
 _atom_site_hse06_ddec_spin_density
 _atom_site_hse06_ddec_sum_bond_order
 _atom_site_hse06_magmom
 _atom_site_pbe_bader_spin_density
 _atom_site_pbe_cm5_charge
 _atom_site_pbe_ddec_charge
 _atom_site_pbe_ddec_spin_density
 _atom_site_pbe_ddec_sum_bond_order
 _atom_site_pbe_magmom
Cd  Cd0  1  0.14955996  0.46902348  0.29953305  1  0  1.28192  0  1.536059  0  0  1.106418  0  1.975542  0  0  1.167039  0  1.914218  0  0  0.787393  1.063076  0  2.01793  0
Cd  Cd1  1  0.35044245  0.53097787  0.79953251  1  0  1.281901  0  1.536073  0  0  1.106411  0  1.975556  0  0  1.167032  0  1.91423  0  0  0.7874  1.063066  0  2.017945  0
Cd  Cd2  1  0.85044184  0.53097744  0.70046683  1  0  1.281929  0  1.536062  0  0  1.106441  0  1.975545  0  0  1.167061  0  1.914221  0  0  0.787411  1.063099  0  2.017931  0
Cd  Cd3  1  0.64955889  0.46902206  0.20046652  1  0  1.28191  0  1.536066  0  0  1.106417  0  1.975543  0  0  1.167037  0  1.91422  0  0  0.78738  1.063074  0  2.017931  0
H  H4  1  0.98040122  0.63751510  0.39049558  1  0  0.433574  0  0.868676  0  0  0.402632  0  0.932314  0  0  0.413795  0  0.916108  0  0  0.292281  0.394713  0  0.943836  0
H  H5  1  0.51959994  0.36248456  0.89049526  1  0  0.433523  0  0.868744  0  0  0.402585  0  0.932376  0  0  0.413749  0  0.91617  0  0  0.292259  0.394667  0  0.943897  0
H  H6  1  0.01960013  0.36248483  0.60950430  1  0  0.433597  0  0.868649  0  0  0.402668  0  0.932261  0  0  0.413831  0  0.916056  0  0  0.292312  0.39475  0  0.943782  0
H  H7  1  0.48039876  0.63751538  0.10950799  1  0  0.433514  0  0.868758  0  0  0.402578  0  0.93239  0  0  0.413742  0  0.916183  0  0  0.292245  0.39466  0  0.94391  0
H  H8  1  0.12693138  0.63990427  0.48940046  1  0  0.428415  0  0.880027  0  0  0.396333  0  0.946382  0  0  0.407826  0  0.929614  0  0  0.287276  0.388065  0  0.958411  0
H  H9  1  0.37306923  0.36009530  0.98939940  1  0  0.428404  0  0.880051  0  0  0.396318  0  0.946399  0  0  0.407818  0  0.929628  0  0  0.28727  0.388049  0  0.95843  0
H  H10  1  0.87306819  0.36009469  0.51060026  1  0  0.428402  0  0.880055  0  0  0.396314  0  0.946409  0  0  0.407816  0  0.929634  0  0  0.287277  0.388046  0  0.958438  0
H  H11  1  0.62692638  0.63990368  0.01060216  1  0  0.428443  0  0.879996  0  0  0.396364  0  0.946326  0  0  0.407867  0  0.929554  0  0  0.287297  0.388096  0  0.958356  0
H  H12  1  0.93203336  0.67538494  0.99564278  1  0  0.121181  0  0.947862  0  0  0.135696  0  1.005882  0  0  0.137406  0  1.005912  0  0  0.102523  0.134349  0  1.006073  0
H  H13  1  0.56796488  0.32461822  0.49563874  1  0  0.121177  0  0.947841  0  0  0.135736  0  1.005823  0  0  0.137448  0  1.005855  0  0  0.102564  0.134393  0  1.00601  0
H  H14  1  0.06796534  0.32461501  0.00435794  1  0  0.121155  0  0.947873  0  0  0.135694  0  1.005887  0  0  0.137406  0  1.005916  0  0  0.102518  0.134348  0  1.006077  0
H  H15  1  0.43203824  0.67538269  0.50435776  1  0  0.121193  0  0.947838  0  0  0.135689  0  1.005898  0  0  0.137399  0  1.005932  0  0  0.102526  0.134346  0  1.006085  0
H  H16  1  0.16794746  0.71103127  0.95311894  1  0  0.126578  0  0.940162  0  0  0.137735  0  1.00426  0  0  0.140861  0  1.002038  0  0  0.10447  0.135416  0  1.006071  0
H  H17  1  0.33205214  0.28897435  0.45311611  1  0  0.126582  0  0.94021  0  0  0.137789  0  1.00425  0  0  0.14092  0  1.002026  0  0  0.104502  0.13547  0  1.006066  0
H  H18  1  0.83205391  0.28897162  0.04688347  1  0  0.126605  0  0.940177  0  0  0.137789  0  1.004265  0  0  0.140919  0  1.002042  0  0  0.10449  0.135469  0  1.00608  0
H  H19  1  0.66794834  0.71102657  0.54688376  1  0  0.126584  0  0.940179  0  0  0.137787  0  1.004215  0  0  0.140916  0  1.001993  0  0  0.1045  0.135468  0  1.006029  0
H  H20  1  0.92595303  0.79914873  0.20905265  1  0  0.107592  0  0.964508  0  0  0.116327  0  1.027122  0  0  0.119579  0  1.026127  0  0  0.098843  0.114053  0  1.028074  0
H  H21  1  0.57404722  0.20085271  0.70904665  1  0  0.107554  0  0.964561  0  0  0.116322  0  1.027137  0  0  0.119558  0  1.026158  0  0  0.098827  0.114047  0  1.028087  0
H  H22  1  0.07404877  0.20085219  0.79094892  1  0  0.107603  0  0.964539  0  0  0.116342  0  1.027149  0  0  0.119594  0  1.026152  0  0  0.098867  0.114067  0  1.028099  0
H  H23  1  0.42595545  0.79914723  0.29095153  1  0  0.107602  0  0.964523  0  0  0.11635  0  1.027121  0  0  0.119588  0  1.026142  0  0  0.09885  0.114075  0  1.028073  0
H  H24  1  0.99433162  0.02792565  0.27431828  1  0  0.091373  0  0.983074  0  0  0.099266  0  1.050438  0  0  0.101464  0  1.050331  0  0  0.099577  0.097623  0  1.050616  0
H  H25  1  0.50566817  0.97207551  0.77430991  1  0  0.091434  0  0.983079  0  0  0.099344  0  1.050394  0  0  0.10154  0  1.050295  0  0  0.099632  0.0977  0  1.050572  0
H  H26  1  0.00566531  0.97207333  0.72568666  1  0  0.091403  0  0.983108  0  0  0.099311  0  1.050427  0  0  0.10151  0  1.050323  0  0  0.099611  0.097668  0  1.050604  0
H  H27  1  0.49433273  0.02792345  0.22568659  1  0  0.091422  0  0.983093  0  0  0.099315  0  1.050428  0  0  0.101513  0  1.050326  0  0  0.099623  0.097671  0  1.050607  0
H  H28  1  0.39428207  0.16063693  0.00562942  1  0  0.094021  0  0.959288  0  0  0.106675  0  1.017906  0  0  0.109635  0  1.015734  0  0  0.104574  0.104587  0  1.019514  0
H  H29  1  0.10571714  0.83936570  0.50562450  1  0  0.093987  0  0.9593  0  0  0.106681  0  1.01788  0  0  0.109641  0  1.015708  0  0  0.104565  0.104594  0  1.019489  0
H  H30  1  0.60571579  0.83936696  0.99437383  1  0  0.093981  0  0.959293  0  0  0.106677  0  1.017877  0  0  0.109638  0  1.015703  0  0  0.104578  0.10459  0  1.019486  0
H  H31  1  0.89428376  0.16063326  0.49437199  1  0  0.093988  0  0.959302  0  0  0.106681  0  1.017882  0  0  0.109642  0  1.015706  0  0  0.104569  0.104593  0  1.019494  0
H  H32  1  0.32349975  0.93231597  0.93887391  1  0  0.096548  0  0.969415  0  0  0.105821  0  1.034193  0  0  0.108394  0  1.034022  0  0  0.100183  0.104031  0  1.034445  0
H  H33  1  0.17649817  0.06768874  0.43886936  1  0  0.096618  0  0.969303  0  0  0.105893  0  1.034054  0  0  0.108465  0  1.033882  0  0  0.100231  0.104104  0  1.034306  0
H  H34  1  0.67649546  0.06768793  0.06112934  1  0  0.096654  0  0.969257  0  0  0.105912  0  1.03404  0  0  0.108484  0  1.033869  0  0  0.10023  0.104122  0  1.034292  0
H  H35  1  0.82350450  0.93231119  0.56112714  1  0  0.096539  0  0.969342  0  0  0.105801  0  1.034131  0  0  0.108372  0  1.033962  0  0  0.100176  0.104012  0  1.034381  0
C  C36  1  0.10586638  0.61865511  0.11376804  1  0  0.739011  0  3.792027  0  0  0.691194  0  4.081959  0  0  0.726285  0  4.074831  0  0  0.219458  0.666905  0  4.086695  0
C  C37  1  0.39413428  0.38134901  0.61376605  1  0  0.739036  0  3.791847  0  0  0.691252  0  4.081758  0  0  0.726341  0  4.074632  0  0  0.219488  0.666964  0  4.086494  0
C  C38  1  0.89413058  0.38134681  0.88623099  1  0  0.739037  0  3.791975  0  0  0.691262  0  4.081859  0  0  0.726351  0  4.074734  0  0  0.219498  0.666977  0  4.08659  0
C  C39  1  0.60586926  0.61864994  0.38623383  1  0  0.73908  0  3.791777  0  0  0.691277  0  4.081706  0  0  0.726366  0  4.07458  0  0  0.219499  0.666988  0  4.086445  0
C  C40  1  0.07684465  0.71156952  0.02527680  1  0  -0.318427  0  3.674124  0  0  -0.358767  0  3.910043  0  0  -0.365364  0  3.916781  0  0  -0.161943  -0.354417  0  3.905816  0
C  C41  1  0.42315177  0.28843303  0.52527241  1  0  -0.318381  0  3.673912  0  0  -0.358771  0  3.909921  0  0  -0.365376  0  3.916664  0  0  -0.16196  -0.354424  0  3.905697  0
C  C42  1  0.92315141  0.28843044  0.97472477  1  0  -0.318467  0  3.674134  0  0  -0.358849  0  3.910151  0  0  -0.365453  0  3.916897  0  0  -0.161961  -0.354502  0  3.905922  0
C  C43  1  0.57685090  0.71156690  0.47472493  1  0  -0.318467  0  3.674069  0  0  -0.358794  0  3.910094  0  0  -0.365398  0  3.916843  0  0  -0.161972  -0.354446  0  3.905868  0
C  C44  1  0.12186746  0.85003568  0.06961712  1  0  0.147362  0  3.710697  0  0  0.163383  0  3.947176  0  0  0.165801  0  3.971642  0  0  0.002112  0.162194  0  3.930392  0
C  C45  1  0.37812955  0.14996865  0.56961228  1  0  0.147596  0  3.710257  0  0  0.163447  0  3.947005  0  0  0.16587  0  3.971463  0  0  0.002192  0.162258  0  3.930224  0
C  C46  1  0.87812730  0.14996724  0.93038529  1  0  0.147593  0  3.710409  0  0  0.163463  0  3.94712  0  0  0.165886  0  3.971582  0  0  0.002194  0.162274  0  3.930335  0
C  C47  1  0.62187312  0.85003128  0.43038337  1  0  0.147551  0  3.710294  0  0  0.163392  0  3.947047  0  0  0.165814  0  3.971507  0  0  0.002202  0.162204  0  3.930265  0
C  C48  1  0.03041242  0.87786009  0.16486065  1  0  -0.121975  0  3.695134  0  0  -0.137723  0  3.938581  0  0  -0.143028  0  3.959846  0  0  -0.091434  -0.134182  0  3.924061  0
C  C49  1  0.46958521  0.12214088  0.66485484  1  0  -0.12205  0  3.695154  0  0  -0.137784  0  3.938622  0  0  -0.143078  0  3.959889  0  0  -0.091453  -0.134244  0  3.924102  0
C  C50  1  0.96958541  0.12214084  0.83514091  1  0  -0.122037  0  3.695034  0  0  -0.137751  0  3.938517  0  0  -0.143057  0  3.959779  0  0  -0.091493  -0.134211  0  3.923996  0
C  C51  1  0.53041833  0.87785807  0.33514166  1  0  -0.121993  0  3.695033  0  0  -0.137707  0  3.93852  0  0  -0.143001  0  3.959788  0  0  -0.091473  -0.134167  0  3.924002  0
C  C52  1  0.06865002  0.00636788  0.20197386  1  0  -0.049165  0  3.723777  0  0  -0.072557  0  3.969503  0  0  -0.070515  0  3.98973  0  0  -0.079833  -0.073644  0  3.955697  0
C  C53  1  0.43134692  0.99363490  0.70196962  1  0  -0.049258  0  3.723972  0  0  -0.072617  0  3.969683  0  0  -0.070575  0  3.989892  0  0  -0.079916  -0.073703  0  3.955875  0
C  C54  1  0.93134781  0.99363306  0.79802854  1  0  -0.04924  0  3.723904  0  0  -0.072599  0  3.969604  0  0  -0.070558  0  3.989819  0  0  -0.079879  -0.073686  0  3.955797  0
C  C55  1  0.56865310  0.00636504  0.29802772  1  0  -0.049295  0  3.723929  0  0  -0.072647  0  3.969629  0  0  -0.070605  0  3.989838  0  0  -0.079919  -0.073733  0  3.955822  0
C  C56  1  0.19986909  0.11001926  0.14515713  1  0  -0.090248  0  3.76701  0  0  -0.068768  0  4.004728  0  0  -0.079159  0  4.028037  0  0  -0.024359  -0.062036  0  3.988791  0
C  C57  1  0.30013045  0.88998277  0.64515085  1  0  -0.090362  0  3.767054  0  0  -0.068936  0  4.004847  0  0  -0.079329  0  4.028156  0  0  -0.024476  -0.062202  0  3.988908  0
C  C58  1  0.80012696  0.88998070  0.85484612  1  0  -0.090381  0  3.766932  0  0  -0.068942  0  4.004733  0  0  -0.079334  0  4.02804  0  0  -0.024458  -0.062208  0  3.988795  0
C  C59  1  0.69987574  0.11001617  0.35484565  1  0  -0.090392  0  3.767085  0  0  -0.068935  0  4.004834  0  0  -0.079328  0  4.028146  0  0  -0.024488  -0.062201  0  3.988897  0
C  C60  1  0.29202825  0.08186663  0.05058190  1  0  -0.045844  0  3.733534  0  0  -0.071104  0  3.983223  0  0  -0.068864  0  4.002303  0  0  -0.079706  -0.072098  0  3.969889  0
C  C61  1  0.20796976  0.91813679  0.55057660  1  0  -0.045692  0  3.733404  0  0  -0.070972  0  3.983094  0  0  -0.068733  0  4.002178  0  0  -0.079631  -0.071967  0  3.969761  0
C  C62  1  0.70796738  0.91813529  0.94942219  1  0  -0.045663  0  3.733255  0  0  -0.070956  0  3.982961  0  0  -0.068716  0  4.002042  0  0  -0.079625  -0.071949  0  3.969622  0
C  C63  1  0.79203378  0.08186216  0.44941821  1  0  -0.045691  0  3.733402  0  0  -0.070976  0  3.98307  0  0  -0.068737  0  4.002155  0  0  -0.079576  -0.07197  0  3.969738  0
C  C64  1  0.25291506  0.95320326  0.01332946  1  0  -0.130828  0  3.723461  0  0  -0.147579  0  3.970171  0  0  -0.153  0  3.992821  0  0  -0.089693  -0.144137  0  3.954739  0
C  C65  1  0.24707881  0.04679936  0.51332513  1  0  -0.131069  0  3.723326  0  0  -0.147744  0  3.970098  0  0  -0.153167  0  3.992749  0  0  -0.089777  -0.144302  0  3.954666  0
C  C66  1  0.74707529  0.04679869  0.98667210  1  0  -0.13107  0  3.723352  0  0  -0.147731  0  3.970098  0  0  -0.153154  0  3.992747  0  0  -0.08976  -0.144288  0  3.954665  0
C  C67  1  0.75292519  0.95320057  0.48667137  1  0  -0.130908  0  3.723236  0  0  -0.147573  0  3.970001  0  0  -0.152995  0  3.992653  0  0  -0.089728  -0.14413  0  3.954568  0
C  C68  1  0.23689389  0.24733428  0.18421680  1  0  0.672214  0  3.863303  0  0  0.618038  0  4.156414  0  0  0.654671  0  4.148176  0  0  0.213849  0.593426  0  4.160537  0
C  C69  1  0.26310715  0.75266856  0.68421258  1  0  0.672236  0  3.86335  0  0  0.618102  0  4.156421  0  0  0.654737  0  4.148178  0  0  0.213855  0.593489  0  4.160546  0
C  C70  1  0.76310704  0.75266762  0.81578814  1  0  0.672336  0  3.863242  0  0  0.618171  0  4.156359  0  0  0.654804  0  4.148117  0  0  0.21389  0.593557  0  4.160484  0
C  C71  1  0.73689507  0.24733039  0.31578476  1  0  0.672299  0  3.863266  0  0  0.618136  0  4.156372  0  0  0.65477  0  4.14813  0  0  0.213887  0.593522  0  4.160499  0
O  O72  1  0.96687726  0.52474155  0.15199424  1  0  -0.708278  0  2.055869  0  0  -0.628129  0  2.325938  0  0  -0.662589  0  2.312768  0  0  -0.331282  -0.604317  0  2.334478  0
O  O73  1  0.53312424  0.47525619  0.65199449  1  0  -0.708274  0  2.055797  0  0  -0.628154  0  2.325888  0  0  -0.66261  0  2.312717  0  0  -0.33131  -0.60434  0  2.334429  0
O  O74  1  0.03312274  0.47525545  0.84800310  1  0  -0.708229  0  2.055717  0  0  -0.628149  0  2.325874  0  0  -0.662606  0  2.312701  0  0  -0.331314  -0.604338  0  2.334417  0
O  O75  1  0.46687798  0.52474276  0.34800454  1  0  -0.708267  0  2.055713  0  0  -0.628177  0  2.325871  0  0  -0.662633  0  2.312699  0  0  -0.331327  -0.604365  0  2.334415  0
O  O76  1  0.26855787  0.63444817  0.15237373  1  0  -0.656827  0  2.007931  0  0  -0.587168  0  2.240995  0  0  -0.616808  0  2.230374  0  0  -0.310879  -0.566723  0  2.248357  0
O  O77  1  0.23143988  0.36555581  0.65237211  1  0  -0.656897  0  2.00787  0  0  -0.587235  0  2.240905  0  0  -0.616876  0  2.230287  0  0  -0.310901  -0.5668  0  2.248288  0
O  O78  1  0.73143954  0.36555474  0.84762783  1  0  -0.656866  0  2.007964  0  0  -0.587198  0  2.240995  0  0  -0.616836  0  2.230373  0  0  -0.310901  -0.566763  0  2.248374  0
O  O79  1  0.76856367  0.63444314  0.34762776  1  0  -0.65689  0  2.007743  0  0  -0.5872  0  2.240777  0  0  -0.616841  0  2.230157  0  0  -0.310883  -0.566769  0  2.248172  0
O  O80  1  0.15635657  0.26524346  0.27504375  1  0  -0.639278  0  2.014889  0  0  -0.567552  0  2.269641  0  0  -0.599291  0  2.259351  0  0  -0.316814  -0.545287  0  2.275669  0
O  O81  1  0.34365001  0.73476094  0.77503772  1  0  -0.639248  0  2.014799  0  0  -0.567558  0  2.269552  0  0  -0.599296  0  2.259258  0  0  -0.316803  -0.545295  0  2.275584  0
O  O82  1  0.84364700  0.73475844  0.72496288  1  0  -0.639337  0  2.014841  0  0  -0.567637  0  2.269616  0  0  -0.599375  0  2.259323  0  0  -0.316846  -0.545372  0  2.275647  0
O  O83  1  0.65635266  0.26523900  0.22496047  1  0  -0.639306  0  2.014811  0  0  -0.567614  0  2.269581  0  0  -0.599352  0  2.259288  0  0  -0.316834  -0.54535  0  2.275613  0
O  O84  1  0.34299635  0.34387601  0.12664825  1  0  -0.719539  0  2.088518  0  0  -0.646421  0  2.338755  0  0  -0.675627  0  2.324342  0  0  -0.334614  -0.625376  0  2.347689  0
O  O85  1  0.15700287  0.65612511  0.62664700  1  0  -0.719543  0  2.088509  0  0  -0.646447  0  2.338766  0  0  -0.67565  0  2.324347  0  0  -0.334621  -0.625401  0  2.3477  0
O  O86  1  0.65700193  0.65612590  0.87335416  1  0  -0.71957  0  2.088479  0  0  -0.64646  0  2.33873  0  0  -0.675666  0  2.324317  0  0  -0.334641  -0.625415  0  2.347664  0
O  O87  1  0.84299848  0.34387482  0.37335119  1  0  -0.71952  0  2.08845  0  0  -0.646421  0  2.338729  0  0  -0.675627  0  2.324312  0  0  -0.334609  -0.625375  0  2.347663  0
O  O88  1  0.10651038  0.63040981  0.40580519  1  0  -0.859395  0  1.871557  0  0  -0.793754  0  2.07527  0  0  -0.818513  0  2.040214  0  0  -0.59197  -0.776218  0  2.099857  0
O  O89  1  0.39348992  0.36958816  0.90580323  1  0  -0.859326  0  1.871609  0  0  -0.793679  0  2.075344  0  0  -0.818448  0  2.040266  0  0  -0.591938  -0.776142  0  2.099934  0
O  O90  1  0.89348874  0.36958817  0.59419553  1  0  -0.859396  0  1.871556  0  0  -0.793755  0  2.075301  0  0  -0.818526  0  2.04022  0  0  -0.592002  -0.77622  0  2.099891  0
O  O91  1  0.60650788  0.63040983  0.09419834  1  0  -0.859371  0  1.871596  0  0  -0.793738  0  2.075353  0  0  -0.818511  0  2.040265  0  0  -0.591953  -0.776204  0  2.099942  0
