# generated using pymatgen
data_ZnH10(C7O2)2
_symmetry_space_group_name_H-M   'P 1'
_cell_length_a   9.91141721
_cell_length_b   18.31311389
_cell_length_c   18.34642933
_cell_angle_alpha   90.59132209
_cell_angle_beta   90.01227614
_cell_angle_gamma   90.01409551
_symmetry_Int_Tables_number   1
_chemical_formula_structural   ZnH10(C7O2)2
_chemical_formula_sum   'Zn4 H40 C56 O16'
_cell_volume   3329.86290537
_cell_formula_units_Z   4
loop_
 _symmetry_equiv_pos_site_id
 _symmetry_equiv_pos_as_xyz
  1  'x, y, z'
loop_
 _atom_site_type_symbol
 _atom_site_label
 _atom_site_symmetry_multiplicity
 _atom_site_fract_x
 _atom_site_fract_y
 _atom_site_fract_z
 _atom_site_occupancy
 _atom_site_pbe_bader_charge
 _atom_site_pbe_bader_spin_density
 _atom_site_pbe_cm5_charge
 _atom_site_pbe_ddec_charge
 _atom_site_pbe_ddec_spin_density
 _atom_site_pbe_ddec_sum_bond_order
 _atom_site_pbe_magmom
Zn  Zn0  1  0.39850823  0.00223123  0.49789913  1  1.31485  0  0.719373  0.953737  0  2.172318  0
Zn  Zn1  1  0.66628616  0.99304724  0.50710371  1  1.31096  0  0.718432  0.953442  0  2.155962  0
Zn  Zn2  1  0.60140746  0.49725605  0.00287889  1  1.308338  0  0.719133  0.953592  0  2.173026  0
Zn  Zn3  1  0.33360354  0.50650965  0.99360671  1  1.311794  0  0.718283  0.952718  0  2.157535  0
H  H4  1  0.63788810  0.65621501  0.15501525  1  0.109008  0  0.103784  0.111298  0  1.032373  0
H  H5  1  0.20790579  0.67013382  0.16249495  1  0.08849  0  0.104521  0.116857  0  0.996097  0
H  H6  1  0.36180584  0.84374743  0.34541077  1  0.103326  0  0.103628  0.111022  0  1.031857  0
H  H7  1  0.79172555  0.82920118  0.33844833  1  0.0927  0  0.104423  0.117924  0  0.994863  0
H  H8  1  0.63784202  0.34469646  0.84439020  1  0.110066  0  0.103653  0.11103  0  1.032604  0
H  H9  1  0.20790712  0.33780896  0.82968226  1  0.084034  0  0.104368  0.118049  0  0.994377  0
H  H10  1  0.36167920  0.15396002  0.65710346  1  0.097171  0  0.103901  0.110997  0  1.031777  0
H  H11  1  0.79167971  0.16193768  0.67068978  1  0.091982  0  0.104518  0.118331  0  0.993884  0
H  H12  1  0.68497448  0.33141094  0.16914618  1  0.109326  0  0.103679  0.10932  0  1.029792  0
H  H13  1  0.25796842  0.35253231  0.14700296  1  0.10718  0  0.104247  0.117932  0  0.999672  0
H  H14  1  0.31496762  0.16864900  0.33185010  1  0.106772  0  0.103717  0.109386  0  1.029336  0
H  H15  1  0.74199754  0.14659838  0.35325126  1  0.091673  0  0.104161  0.117846  0  0.998127  0
H  H16  1  0.33652842  0.66224422  0.83774268  1  0.088513  0  0.103326  0.109968  0  1.032571  0
H  H17  1  0.76697823  0.65521151  0.84469163  1  0.106887  0  0.104372  0.116116  0  0.997307  0
H  H18  1  0.66424317  0.83737311  0.66330284  1  0.10509  0  0.103371  0.110472  0  1.031059  0
H  H19  1  0.23372449  0.84374538  0.65577535  1  0.040023  0  0.104428  0.116661  0  0.99743  0
H  H20  1  0.87756460  0.77384256  0.20536851  1  0.057498  0  0.09526  0.129721  0  0.996433  0
H  H21  1  0.81002279  0.68519964  0.19272824  1  0.02862  0  0.093942  0.12987  0  1.01715  0
H  H22  1  0.88520574  0.71008352  0.27688260  1  0.018247  0  0.094573  0.128652  0  1.003095  0
H  H23  1  0.11793588  0.79399898  0.22465183  1  0.033324  0  0.095249  0.129664  0  0.998828  0
H  H24  1  0.18960947  0.81086051  0.31156630  1  0.020816  0  0.093981  0.12978  0  1.018037  0
H  H25  1  0.11821248  0.72460836  0.29083957  1  0.042918  0  0.094998  0.129083  0  1.001163  0
H  H26  1  0.88252831  0.22371275  0.79362201  1  0.038537  0  0.095097  0.129576  0  0.999049  0
H  H27  1  0.81002826  0.31021580  0.81227871  1  0.026407  0  0.093904  0.129979  0  1.017441  0
H  H28  1  0.88047721  0.29127646  0.72557250  1  0.0437  0  0.094913  0.128962  0  1.000005  0
H  H29  1  0.12270022  0.20367273  0.77416652  1  0.047334  0  0.095318  0.129843  0  0.995812  0
H  H30  1  0.18946588  0.19246311  0.68534826  1  0.031216  0  0.093943  0.129847  0  1.016744  0
H  H31  1  0.11372497  0.27619266  0.71157031  1  0.028496  0  0.094561  0.128315  0  1.00325  0
H  H32  1  0.87689627  0.26742293  0.30395454  1  0.04793  0  0.095936  0.131336  0  0.98999  0
H  H33  1  0.83517649  0.28361236  0.21182944  1  0.031093  0  0.092405  0.125373  0  1.022924  0
H  H34  1  0.88066680  0.19483984  0.23975042  1  0.04285  0  0.096055  0.131603  0  0.991228  0
H  H35  1  0.12284766  0.30332300  0.26713923  1  0.056771  0  0.09598  0.131753  0  0.990326  0
H  H36  1  0.16454946  0.21112394  0.28384824  1  0.024417  0  0.092617  0.126003  0  1.023331  0
H  H37  1  0.11975161  0.23866379  0.19498146  1  0.047357  0  0.095929  0.131656  0  0.991009  0
H  H38  1  0.11904132  0.79087923  0.77783313  1  0.043647  0  0.095512  0.130713  0  0.996624  0
H  H39  1  0.17446974  0.70125336  0.79681688  1  0.045084  0  0.093677  0.128979  0  1.018252  0
H  H40  1  0.11805989  0.72349155  0.70828824  1  0.030066  0  0.095649  0.130581  0  0.99621  0
H  H41  1  0.87935169  0.78050003  0.79157264  1  0.042543  0  0.095688  0.130623  0  0.994476  0
H  H42  1  0.82659587  0.79442047  0.70064037  1  0.025811  0  0.093498  0.128328  0  1.018666  0
H  H43  1  0.88494641  0.70759057  0.72790135  1  0.058941  0  0.095389  0.130335  0  0.998292  0
C  C44  1  0.46140131  0.90227871  0.59781708  1  1.51974  0  0.220077  0.606029  0  4.12245  0
C  C45  1  0.58068364  0.89795332  0.40547411  1  1.546066  0  0.2206  0.606902  0  4.125086  0
C  C46  1  0.50736961  0.09636422  0.40394058  1  1.517982  0  0.220359  0.607375  0  4.12213  0
C  C47  1  0.58066396  0.09462680  0.60222040  1  1.492495  0  0.220039  0.606462  0  4.12333  0
C  C48  1  0.49247652  0.40334003  0.09687855  1  1.528521  0  0.219659  0.60491  0  4.129138  0
C  C49  1  0.41902338  0.60171290  0.09515069  1  1.497562  0  0.220139  0.60691  0  4.121854  0
C  C50  1  0.53916132  0.59706223  0.90295365  1  1.507077  0  0.219866  0.60514  0  4.124433  0
C  C51  1  0.41906513  0.40462915  0.89872151  1  1.545233  0  0.220131  0.606479  0  4.125256  0
C  C52  1  0.54901218  0.68120450  0.17932826  1  -0.096925  0  -0.082702  -0.138482  0  3.948272  0
C  C53  1  0.30493465  0.68897242  0.18360850  1  -0.084914  0  -0.091855  -0.173713  0  3.961296  0
C  C54  1  0.30981434  0.74101619  0.23870607  1  0.047832  0  -0.001999  0.133363  0  3.93602  0
C  C55  1  0.43866341  0.76523073  0.26551705  1  -0.036564  0  -0.0025  0.023276  0  3.95821  0
C  C56  1  0.45063937  0.81866258  0.32114514  1  -0.02903  0  -0.08225  -0.136573  0  3.946944  0
C  C57  1  0.69470578  0.81058455  0.31713881  1  -0.089447  0  -0.091595  -0.17343  0  3.962276  0
C  C58  1  0.68979482  0.75857617  0.26201748  1  0.023181  0  -0.00254  0.131771  0  3.938098  0
C  C59  1  0.56094980  0.73456568  0.23503223  1  0.009778  0  -0.00234  0.025077  0  3.957531  0
C  C60  1  0.42396846  0.65868026  0.15380601  1  0.047115  0  -0.020257  -0.026477  0  4.018611  0
C  C61  1  0.57568510  0.84107684  0.34674630  1  -0.004788  0  -0.020065  -0.027274  0  4.020127  0
C  C62  1  0.54898151  0.32042471  0.81930746  1  -0.026842  0  -0.082529  -0.137613  0  3.947619  0
C  C63  1  0.30491804  0.31643908  0.81114122  1  -0.085059  0  -0.091668  -0.174155  0  3.961008  0
C  C64  1  0.30977954  0.26123553  0.75920542  1  0.02748  0  -0.002454  0.131572  0  3.937149  0
C  C65  1  0.43862513  0.23419223  0.73528448  1  0.009444  0  -0.001724  0.025189  0  3.956434  0
C  C66  1  0.45054275  0.17844008  0.68198580  1  -0.023425  0  -0.083314  -0.137359  0  3.94514  0
C  C67  1  0.69466374  0.18295256  0.68960856  1  -0.081854  0  -0.091871  -0.174532  0  3.960567  0
C  C68  1  0.68976693  0.23798975  0.74172103  1  0.013463  0  -0.00207  0.132996  0  3.936832  0
C  C69  1  0.56092334  0.26476057  0.76590194  1  -0.055689  0  -0.002229  0.023971  0  3.95813  0
C  C70  1  0.42396925  0.34602570  0.84170834  1  -0.00453  0  -0.020237  -0.026594  0  4.018771  0
C  C71  1  0.57561858  0.15310346  0.65934235  1  0.013549  0  -0.020244  -0.027495  0  4.019316  0
C  C72  1  0.58497808  0.31411388  0.18619458  1  -0.054316  0  -0.081861  -0.140128  0  3.954669  0
C  C73  1  0.34248932  0.32589438  0.17387260  1  -0.086227  0  -0.091472  -0.167553  0  3.955196  0
C  C74  1  0.31916805  0.27363900  0.22609258  1  -0.057255  0  -0.003073  0.128274  0  3.947895  0
C  C75  1  0.43217204  0.23943459  0.26063808  1  0.01678  0  -0.00224  0.02708  0  3.952736  0
C  C76  1  0.41501437  0.18566466  0.31463101  1  -0.052905  0  -0.082074  -0.140497  0  3.955712  0
C  C77  1  0.65749085  0.17345549  0.32656119  1  -0.038361  0  -0.091782  -0.167849  0  3.952105  0
C  C78  1  0.68085550  0.22570920  0.27433303  1  -0.037495  0  -0.003185  0.129245  0  3.946727  0
C  C79  1  0.56786977  0.26015588  0.24000486  1  -0.040855  0  -0.002331  0.024699  0  3.954163  0
C  C80  1  0.47468004  0.34650354  0.15364185  1  0.076867  0  -0.021396  -0.026567  0  4.023695  0
C  C81  1  0.52524982  0.15315401  0.34711051  1  0.017994  0  -0.020924  -0.02767  0  4.022858  0
C  C82  1  0.43182626  0.68288693  0.81711369  1  0.00021  0  -0.082022  -0.135922  0  3.947016  0
C  C83  1  0.67615648  0.67889056  0.82109578  1  -0.062678  0  -0.091733  -0.171803  0  3.963585  0
C  C84  1  0.68632528  0.73187356  0.76824009  1  -0.070144  0  -0.002473  0.131751  0  3.939796  0
C  C85  1  0.56547979  0.76229929  0.73786266  1  -0.039441  0  -0.002436  0.024696  0  3.955774  0
C  C86  1  0.56893921  0.81657193  0.68377442  1  -0.014951  0  -0.081983  -0.136986  0  3.943671  0
C  C87  1  0.32456952  0.82024824  0.67952003  1  -0.035526  0  -0.091675  -0.172388  0  3.960918  0
C  C88  1  0.31442293  0.76731296  0.73242560  1  0.000528  0  -0.002554  0.130975  0  3.941567  0
C  C89  1  0.43531792  0.73704061  0.76291626  1  0.029819  0  -0.002732  0.023651  0  3.957812  0
C  C90  1  0.54948460  0.65417749  0.84585695  1  0.0016  0  -0.020639  -0.026865  0  4.019588  0
C  C91  1  0.45123946  0.84516906  0.65494654  1  0.023789  0  -0.020959  -0.025892  0  4.015493  0
C  C92  1  0.82141044  0.72986102  0.23226569  1  -0.061954  0  -0.234264  -0.407232  0  3.975539  0
C  C93  1  0.17814019  0.76965600  0.26846229  1  -0.04766  0  -0.234677  -0.407394  0  3.97626  0
C  C94  1  0.82145577  0.26781368  0.77034826  1  -0.066642  0  -0.234434  -0.407472  0  3.974877  0
C  C95  1  0.17815425  0.23141676  0.73050464  1  -0.041323  0  -0.234158  -0.406596  0  3.974342  0
C  C96  1  0.82504038  0.24431266  0.25598758  1  -0.067869  0  -0.234212  -0.407312  0  3.979867  0
C  C97  1  0.17493074  0.25518847  0.24444822  1  -0.072709  0  -0.23413  -0.408174  0  3.98239  0
C  C98  1  0.17527755  0.74395968  0.75558965  1  -0.070914  0  -0.234665  -0.408861  0  3.980904  0
C  C99  1  0.82553934  0.75532987  0.74529252  1  -0.058698  0  -0.23448  -0.408318  0  3.979664  0
O  O100  1  0.35131295  0.92872911  0.57129745  1  -1.135118  0  -0.320942  -0.536245  0  2.227101  0
O  O101  1  0.57958685  0.92142380  0.57869832  1  -1.176238  0  -0.317003  -0.57482  0  2.353057  0
O  O102  1  0.69637486  0.91676235  0.43197714  1  -1.130999  0  -0.321175  -0.537079  0  2.223093  0
O  O103  1  0.46823153  0.92476774  0.42587728  1  -1.184066  0  -0.317452  -0.575633  0  2.362048  0
O  O104  1  0.61464702  0.06945704  0.43070200  1  -1.179965  0  -0.314807  -0.571836  0  2.349541  0
O  O105  1  0.38663151  0.07782264  0.42260829  1  -1.135932  0  -0.322798  -0.539166  0  2.228764  0
O  O106  1  0.46823320  0.07433249  0.57528334  1  -1.182457  0  -0.317119  -0.575276  0  2.362128  0
O  O107  1  0.69638139  0.06825733  0.58330164  1  -1.131036  0  -0.320827  -0.536539  0  2.221194  0
O  O108  1  0.61322578  0.42200566  0.07836640  1  -1.125241  0  -0.322745  -0.538615  0  2.23387  0
O  O109  1  0.38518696  0.43011402  0.07000240  1  -1.183737  0  -0.314246  -0.570338  0  2.351544  0
O  O110  1  0.30335334  0.58291349  0.06859757  1  -1.130817  0  -0.320661  -0.536816  0  2.22036  0
O  O111  1  0.53146440  0.57482034  0.07486587  1  -1.181706  0  -0.317275  -0.575453  0  2.36021  0
O  O112  1  0.42094651  0.57793604  0.92202075  1  -1.183487  0  -0.316796  -0.573869  0  2.354594  0
O  O113  1  0.64918813  0.57055791  0.92950566  1  -1.134399  0  -0.321101  -0.536009  0  2.227341  0
O  O114  1  0.53150697  0.42477371  0.92576068  1  -1.182785  0  -0.317208  -0.575363  0  2.361766  0
O  O115  1  0.30343752  0.43127185  0.91742882  1  -1.130938  0  -0.321102  -0.536837  0  2.221674  0
