# generated using pymatgen
data_ZnH11C16N2O5
_symmetry_space_group_name_H-M   'P 1'
_cell_length_a   8.27695104
_cell_length_b   9.76964055
_cell_length_c   20.35000000
_cell_angle_alpha   94.59958424
_cell_angle_beta   93.16172379
_cell_angle_gamma   114.32677183
_symmetry_Int_Tables_number   1
_chemical_formula_structural   ZnH11C16N2O5
_chemical_formula_sum   'Zn4 H44 C64 N8 O20'
_cell_volume   1487.56015013
_cell_formula_units_Z   4
loop_
 _symmetry_equiv_pos_site_id
 _symmetry_equiv_pos_as_xyz
  1  'x, y, z'
loop_
 _atom_site_type_symbol
 _atom_site_label
 _atom_site_symmetry_multiplicity
 _atom_site_fract_x
 _atom_site_fract_y
 _atom_site_fract_z
 _atom_site_occupancy
 _atom_site_hle17_bader_spin_density
 _atom_site_hle17_ddec_charge
 _atom_site_hle17_ddec_spin_density
 _atom_site_hle17_ddec_sum_bond_order
 _atom_site_hle17_magmom
 _atom_site_hse06_10hf_bader_spin_density
 _atom_site_hse06_10hf_ddec_charge
 _atom_site_hse06_10hf_ddec_spin_density
 _atom_site_hse06_10hf_ddec_sum_bond_order
 _atom_site_hse06_10hf_magmom
 _atom_site_hse06_bader_spin_density
 _atom_site_hse06_ddec_charge
 _atom_site_hse06_ddec_spin_density
 _atom_site_hse06_ddec_sum_bond_order
 _atom_site_hse06_magmom
 _atom_site_pbe_bader_charge
 _atom_site_pbe_bader_spin_density
 _atom_site_pbe_cm5_charge
 _atom_site_pbe_ddec_charge
 _atom_site_pbe_ddec_spin_density
 _atom_site_pbe_ddec_sum_bond_order
 _atom_site_pbe_magmom
Zn  Zn0  1  0.19187346  0.17850620  0.32897209  1  0  1.011061  0  1.8568  0  0  0.820873  0  2.316115  0  0  0.8706  0  2.262221  0  1.304766  0  0.673537  0.785829  0  2.352978  0
Zn  Zn1  1  0.80812724  0.82149598  0.67102777  1  0  1.011066  0  1.856843  0  0  0.820851  0  2.316178  0  0  0.870579  0  2.262282  0  1.304787  0  0.673517  0.785807  0  2.35304  0
Zn  Zn2  1  0.14414536  0.32742870  0.14618310  1  0  1.055009  0  1.76135  0  0  0.869754  0  2.210012  0  0  0.920617  0  2.154516  0  1.299342  0  0.683957  0.833965  0  2.247684  0
Zn  Zn3  1  0.85585553  0.67256896  0.85381659  1  0  1.055017  0  1.761332  0  0  0.869762  0  2.209994  0  0  0.920626  0  2.154497  0  1.299344  0  0.683958  0.833975  0  2.247666  0
H  H4  1  0.07525290  0.53158309  0.19766729  1  0  0.411328  0  0.908875  0  0  0.377965  0  0.976841  0  0  0.39063  0  0.958575  0  0.646377  0  0.280372  0.369139  0  0.989491  0
H  H5  1  0.92474613  0.46841570  0.80233190  1  0  0.411297  0  0.908913  0  0  0.37794  0  0.976873  0  0  0.390605  0  0.958607  0  0.646377  0  0.280361  0.369113  0  0.989524  0
H  H6  1  0.56001766  0.15500385  0.18100890  1  0  0.09026  0  0.911594  0  0  0.10084  0  0.968331  0  0  0.10336  0  0.967724  0  0.045899  0  0.105421  0.099017  0  0.968962  0
H  H7  1  0.43998445  0.84499381  0.81899131  1  0  0.090277  0  0.911573  0  0  0.100819  0  0.968347  0  0  0.103336  0  0.967739  0  0.045912  0  0.105407  0.098998  0  0.968977  0
H  H8  1  0.66203333  0.41830644  0.28550001  1  0  0.089134  0  0.919525  0  0  0.095274  0  0.980832  0  0  0.098689  0  0.97771  0  0.138328  0  0.118798  0.092823  0  0.983196  0
H  H9  1  0.33796561  0.58169462  0.71449976  1  0  0.08909  0  0.919576  0  0  0.095275  0  0.980857  0  0  0.098689  0  0.977735  0  0.138317  0  0.118804  0.092824  0  0.98322  0
H  H10  1  0.52600365  0.06200403  0.36445814  1  0  0.074445  0  0.91033  0  0  0.08255  0  0.971803  0  0  0.085011  0  0.970007  0  0.059215  0  0.113288  0.08075  0  0.973544  0
H  H11  1  0.47399659  0.93799476  0.63554256  1  0  0.074348  0  0.910189  0  0  0.082475  0  0.971701  0  0  0.084935  0  0.969904  0  0.059089  0  0.113259  0.080676  0  0.973442  0
H  H12  1  0.63009464  0.99627016  0.24402246  1  0  0.100707  0  0.929287  0  0  0.107934  0  0.990739  0  0  0.112066  0  0.987183  0  0.094292  0  0.105566  0.10493  0  0.993428  0
H  H13  1  0.36990681  0.00372863  0.75597827  1  0  0.100702  0  0.929263  0  0  0.107937  0  0.990702  0  0  0.11207  0  0.987145  0  0.094304  0  0.105572  0.104926  0  0.993401  0
H  H14  1  0.38667137  0.14771730  0.87367852  1  0  0.11106  0  0.926084  0  0  0.127512  0  0.974808  0  0  0.130054  0  0.974326  0  0.101323  0  0.114127  0.12556  0  0.975405  0
H  H15  1  0.61332069  0.85227470  0.12632074  1  0  0.111069  0  0.925965  0  0  0.1275  0  0.974716  0  0  0.130041  0  0.974235  0  0.10128  0  0.114118  0.125548  0  0.975313  0
H  H16  1  0.36343752  0.40069663  0.87105880  1  0  0.125861  0  0.938578  0  0  0.137784  0  0.992674  0  0  0.141271  0  0.989737  0  0.155751  0  0.117495  0.135154  0  0.994963  0
H  H17  1  0.63655882  0.59929425  0.12894052  1  0  0.125893  0  0.938555  0  0  0.137808  0  0.992655  0  0  0.141295  0  0.989719  0  0.155746  0  0.117501  0.135178  0  0.994945  0
H  H18  1  0.27027152  0.74438862  0.49434244  1  0  0.098445  0  0.957587  0  0  0.112449  0  1.014701  0  0  0.114998  0  1.012783  0  0.08572  0  0.109711  0.110472  0  1.01625  0
H  H19  1  0.72972118  0.25561695  0.50565540  1  0  0.098518  0  0.957551  0  0  0.112472  0  1.014715  0  0  0.115021  0  1.012797  0  0.085766  0  0.109731  0.110497  0  1.016261  0
H  H20  1  0.18667947  0.91897626  0.41806082  1  0  0.076525  0  0.947806  0  0  0.086655  0  1.010268  0  0  0.088541  0  1.00913  0  0.114412  0  0.116793  0.084427  0  1.01243  0
H  H21  1  0.81332467  0.08103044  0.58193830  1  0  0.076472  0  0.947835  0  0  0.086614  0  1.010291  0  0  0.088494  0  1.009159  0  0.114467  0  0.116774  0.084385  0  1.012452  0
H  H22  1  0.05230242  0.98813343  0.18741493  1  0  0.107633  0  0.932614  0  0  0.11452  0  0.994604  0  0  0.117871  0  0.99104  0  0.185063  0  0.126475  0.111982  0  0.99734  0
H  H23  1  0.94769354  0.01186650  0.81258522  1  0  0.107583  0  0.932649  0  0  0.114458  0  0.994656  0  0  0.117807  0  0.991094  0  0.185131  0  0.126447  0.111924  0  0.997385  0
H  H24  1  0.25432026  0.51528814  0.30174444  1  0  0.08379  0  0.948088  0  0  0.091132  0  1.013011  0  0  0.093601  0  1.010497  0  0.100433  0  0.119082  0.089344  0  1.014733  0
H  H25  1  0.74568519  0.48471631  0.69825511  1  0  0.083784  0  0.948148  0  0  0.091118  0  1.0131  0  0  0.093591  0  1.010582  0  0.100362  0  0.119061  0.089329  0  1.014821  0
H  H26  1  0.34177112  0.92413394  0.93177098  1  0  0.106259  0  0.948851  0  0  0.116829  0  1.009557  0  0  0.119896  0  1.008014  0  0.121129  0  0.105736  0.113931  0  1.012062  0
H  H27  1  0.65822336  0.07585807  0.06822982  1  0  0.106201  0  0.948889  0  0  0.116828  0  1.009544  0  0  0.119895  0  1.008002  0  0.121236  0  0.105729  0.113931  0  1.012053  0
H  H28  1  0.25298885  0.78705759  0.03351340  1  0  0.090137  0  0.95788  0  0  0.103034  0  1.018504  0  0  0.105208  0  1.017488  0  0.053176  0  0.106429  0.102168  0  1.018308  0
H  H29  1  0.74700963  0.21294007  0.96648819  1  0  0.090147  0  0.957924  0  0  0.103058  0  1.018529  0  0  0.105232  0  1.017518  0  0.053224  0  0.106441  0.102192  0  1.018333  0
H  H30  1  0.28208267  0.59394664  0.92720038  1  0  0.116255  0  0.937942  0  0  0.126857  0  0.994656  0  0  0.13016  0  0.993722  0  0.110332  0  0.111685  0.123706  0  0.996878  0
H  H31  1  0.71791776  0.40604763  0.07279916  1  0  0.116191  0  0.937977  0  0  0.126788  0  0.994701  0  0  0.130093  0  0.993769  0  0.110307  0  0.111649  0.123644  0  0.996927  0
H  H32  1  0.18111867  0.56176826  0.04308730  1  0  0.075272  0  0.958004  0  0  0.084179  0  1.023391  0  0  0.086495  0  1.02107  0  0.100416  0  0.115017  0.082835  0  1.024523  0
H  H33  1  0.81888828  0.43822940  0.95691350  1  0  0.075237  0  0.95802  0  0  0.084147  0  1.023402  0  0  0.086459  0  1.021079  0  0.099921  0  0.115013  0.082803  0  1.024534  0
H  H34  1  0.25098503  0.60338919  0.59278177  1  0  0.124446  0  0.970879  0  0  0.129365  0  1.038173  0  0  0.133573  0  1.034958  0  0.164199  0  0.107082  0.126449  0  1.040368  0
H  H35  1  0.74901790  0.39661752  0.40721831  1  0  0.124458  0  0.970929  0  0  0.129383  0  1.038193  0  0  0.133589  0  1.034983  0  0.164263  0  0.107091  0.126468  0  1.040384  0
H  H36  1  0.24011952  0.37159115  0.63945199  1  0  0.106064  0  0.934177  0  0  0.120419  0  0.987275  0  0  0.123456  0  0.98591  0  0.066185  0  0.110419  0.118151  0  0.988555  0
H  H37  1  0.75989486  0.62841668  0.36054839  1  0  0.106111  0  0.934011  0  0  0.120426  0  0.98716  0  0  0.123463  0  0.985794  0  0.066192  0  0.11044  0.118159  0  0.98844  0
H  H38  1  0.12328045  0.77432394  0.14288690  1  0  0.121727  0  0.959085  0  0  0.130118  0  1.018734  0  0  0.133865  0  1.017078  0  0.135108  0  0.111536  0.127495  0  1.01989  0
H  H39  1  0.87671430  0.22567598  0.85711372  1  0  0.121752  0  0.959019  0  0  0.130141  0  1.018671  0  0  0.133889  0  1.017014  0  0.135141  0  0.111519  0.127523  0  1.019823  0
H  H40  1  0.26967017  0.74344120  0.36916717  1  0  0.107163  0  0.975047  0  0  0.116535  0  1.035614  0  0  0.119222  0  1.035246  0  0.138847  0  0.105894  0.11386  0  1.037284  0
H  H41  1  0.73032625  0.25656211  0.63083116  1  0  0.107181  0  0.975076  0  0  0.116583  0  1.035603  0  0  0.119271  0  1.035234  0  0.138935  0  0.105932  0.113907  0  1.037276  0
H  H42  1  0.22652568  0.10847737  0.62080970  1  0  0.111939  0  0.921914  0  0  0.126636  0  0.97349  0  0  0.129329  0  0.971792  0  0.08443  0  0.117531  0.124633  0  0.974858  0
H  H43  1  0.77347967  0.89152934  0.37918994  1  0  0.111891  0  0.922004  0  0  0.126655  0  0.973505  0  0  0.129348  0  0.971806  0  0.084446  0  0.117538  0.124651  0  0.974872  0
H  H44  1  0.19520818  0.89198609  0.54170102  1  0  0.115594  0  0.997476  0  0  0.12132  0  1.063872  0  0  0.125155  0  1.061819  0  0.147631  0  0.105322  0.118528  0  1.065445  0
H  H45  1  0.80479233  0.10802062  0.45829851  1  0  0.115603  0  0.997485  0  0  0.121316  0  1.063891  0  0  0.125152  0  1.061835  0  0.147525  0  0.105326  0.118521  0  1.065473  0
H  H46  1  0.27642051  0.64649455  0.19882807  1  0  0.441896  0  0.833802  0  0  0.417358  0  0.888706  0  0  0.427514  0  0.873703  0  0.625084  0  0.302611  0.410079  0  0.899423  0
H  H47  1  0.72357917  0.35350311  0.80117158  1  0  0.441869  0  0.833829  0  0  0.417333  0  0.888738  0  0  0.427489  0  0.873735  0  0.625071  0  0.302599  0.410054  0  0.899456  0
C  C48  1  0.82854764  0.15498576  0.31726996  1  0  0.661212  0  3.873796  0  0  0.611113  0  4.182368  0  0  0.643432  0  4.176939  0  1.587063  0  0.199182  0.589205  0  4.185115  0
C  C49  1  0.17145316  0.84501416  0.68272980  1  0  0.661214  0  3.87376  0  0  0.611106  0  4.182337  0  0  0.643424  0  4.17691  0  1.58716  0  0.199197  0.589199  0  4.185081  0
C  C50  1  0.82678549  0.32003249  0.20479185  1  0  0.687097  0  3.824678  0  0  0.633223  0  4.132118  0  0  0.666741  0  4.125919  0  1.606807  0  0.21624  0.610457  0  4.135617  0
C  C51  1  0.17321540  0.67996517  0.79520832  1  0  0.687254  0  3.824504  0  0  0.633305  0  4.132049  0  0  0.666823  0  4.125849  0  1.606668  0  0.216294  0.610539  0  4.135549  0
C  C52  1  0.42241573  0.33303860  0.22017713  1  0  0.618746  0  3.880536  0  0  0.565012  0  4.182113  0  0  0.597573  0  4.176735  0  1.562609  0  0.199163  0.543006  0  4.185067  0
C  C53  1  0.57758405  0.66695680  0.77982294  1  0  0.618804  0  3.880469  0  0  0.565052  0  4.182108  0  0  0.597611  0  4.176733  0  1.562555  0  0.199164  0.543047  0  4.185063  0
C  C54  1  0.64584937  0.21871730  0.22616217  1  0  -0.146946  0  3.580393  0  0  -0.15805  0  3.821859  0  0  -0.163038  0  3.83219  0  1.5e-05  0  -0.079554  -0.154632  0  3.814725  0
C  C55  1  0.35415209  0.78128149  0.77383806  1  0  -0.146996  0  3.580491  0  0  -0.158039  0  3.821978  0  0  -0.163026  0  3.83231  0  -0.000281  0  -0.079552  -0.154623  0  3.814845  0
C  C56  1  0.55827908  0.30715752  0.26477205  1  0  0.058679  0  3.566754  0  0  0.03403  0  3.812756  0  0  0.035751  0  3.818884  0  0.375449  0  0.002963  0.032702  0  3.808755  0
C  C57  1  0.44172237  0.69284127  0.73522769  1  0  0.058696  0  3.566812  0  0  0.033961  0  3.81292  0  0  0.035684  0  3.819049  0  0.375699  0  0.00293  0.032634  0  3.808915  0
C  C58  1  0.49658026  0.08116611  0.31344292  1  0  0.051606  0  3.591551  0  0  0.02611  0  3.84137  0  0  0.028887  0  3.847367  0  0.397918  0  -0.005332  0.024006  0  3.837373  0
C  C59  1  0.50341821  0.91883155  0.68655769  1  0  0.051875  0  3.591207  0  0  0.026249  0  3.841219  0  0  0.029032  0  3.84721  0  0.398105  0  -0.0053  0.024142  0  3.837219  0
C  C60  1  0.20644511  0.11777973  0.04878861  1  0  0.129595  0  3.765923  0  0  0.121439  0  4.003273  0  0  0.125508  0  4.025326  0  0.465366  0  0.115782  0.118419  0  3.988353  0
C  C61  1  0.79355458  0.88221794  0.95121252  1  0  0.129499  0  3.765959  0  0  0.12132  0  4.003342  0  0  0.125386  0  4.025397  0  0.465023  0  0.115728  0.1183  0  3.988421  0
C  C62  1  0.65279618  0.10287086  0.27308217  1  0  -0.161257  0  3.614286  0  0  -0.176668  0  3.856439  0  0  -0.181558  0  3.866701  0  -0.001381  0  -0.089587  -0.173114  0  3.849186  0
C  C63  1  0.34720471  0.89712680  0.72691899  1  0  -0.161287  0  3.614392  0  0  -0.176661  0  3.856524  0  0  -0.18155  0  3.866779  0  -0.001457  0  -0.089589  -0.173103  0  3.84927  0
C  C64  1  0.25094559  0.39528344  0.44790132  1  0  0.13679  0  3.756632  0  0  0.127935  0  3.994501  0  0  0.132546  0  4.01559  0  0.497852  0  0.120881  0.124333  0  3.980595  0
C  C65  1  0.74905315  0.60472213  0.55209764  1  0  0.136731  0  3.756689  0  0  0.127966  0  3.994399  0  0  0.132497  0  4.015594  0  0.497847  0  0.120818  0.12436  0  3.980517  0
C  C66  1  0.32095330  0.94765777  0.28453147  1  0  0.613276  0  3.922509  0  0  0.562156  0  4.237161  0  0  0.593932  0  4.230949  0  1.594237  0  0.18898  0.540669  0  4.240403  0
C  C67  1  0.67904452  0.05234102  0.71546868  1  0  0.613232  0  3.922616  0  0  0.562142  0  4.237277  0  0  0.593919  0  4.231063  0  1.594158  0  0.188989  0.540657  0  4.240516  0
C  C68  1  0.23430985  0.24874307  0.01527574  1  0  0.13359  0  3.760487  0  0  0.126195  0  3.995733  0  0  0.130592  0  4.018355  0  0.483681  0  0.118224  0.123101  0  3.980389  0
C  C69  1  0.76568807  0.75125346  0.98472384  1  0  0.13369  0  3.76051  0  0  0.126364  0  3.995744  0  0  0.130764  0  4.018365  0  0.483929  0  0.11829  0.123269  0  3.980402  0
C  C70  1  0.23893204  0.25996061  0.47468352  1  0  0.133922  0  3.747159  0  0  0.127477  0  3.982999  0  0  0.1316  0  4.004517  0  0.472366  0  0.12043  0.125343  0  3.968033  0
C  C71  1  0.76106726  0.74004609  0.52531647  1  0  0.134048  0  3.747243  0  0  0.127526  0  3.983087  0  0  0.131683  0  4.004601  0  0.472532  0  0.120459  0.125372  0  3.968151  0
C  C72  1  0.24032278  0.25432810  0.54429984  1  0  0.023532  0  3.807322  0  0  0.039601  0  4.039828  0  0  0.037346  0  4.065242  0  -0.031814  0  -0.001058  0.041311  0  4.022388  0
C  C73  1  0.75967959  0.74567748  0.45569969  1  0  0.023443  0  3.807561  0  0  0.039566  0  4.040011  0  0  0.037311  0  4.06542  0  -0.031725  0  -0.001072  0.041283  0  4.022575  0
C  C74  1  0.24802622  0.00184736  0.01872845  1  0  0.024058  0  3.793528  0  0  0.038904  0  4.030068  0  0  0.036492  0  4.05388  0  0.020766  0  -0.003997  0.039519  0  4.014223  0
C  C75  1  0.75197291  0.99814917  0.98127262  1  0  0.024166  0  3.793476  0  0  0.039001  0  4.03007  0  0  0.036591  0  4.053883  0  0.020764  0  -0.003938  0.039615  0  4.014226  0
C  C76  1  0.33922798  0.13945281  0.92280613  1  0  -0.09992  0  3.727114  0  0  -0.123499  0  3.982358  0  0  -0.127299  0  4.005367  0  -0.051295  0  -0.080362  -0.120562  0  3.96601  0
C  C77  1  0.66076640  0.86054145  0.07719328  1  0  -0.099942  0  3.726957  0  0  -0.123458  0  3.982251  0  0  -0.127257  0  4.005257  0  -0.051257  0  -0.080371  -0.12052  0  3.965905  0
C  C78  1  0.31473778  0.38620155  0.91983089  1  0  -0.023497  0  3.63738  0  0  -0.050633  0  3.884752  0  0  -0.047305  0  3.901196  0  -0.017698  0  -0.052666  -0.05268  0  3.873313  0
C  C79  1  0.68525902  0.61379272  0.08016858  1  0  -0.023576  0  3.637274  0  0  -0.050648  0  3.884657  0  0  -0.047323  0  3.901104  0  -0.017616  0  -0.052638  -0.052696  0  3.873222  0
C  C80  1  0.29801610  0.25850783  0.95168128  1  0  0.018323  0  3.807023  0  0  0.034749  0  4.040977  0  0  0.031632  0  4.066885  0  -0.023439  0  -0.000117  0.037031  0  4.023016  0
C  C81  1  0.70198313  0.74148644  0.04831824  1  0  0.018367  0  3.807112  0  0  0.034665  0  4.041204  0  0  0.031548  0  4.06711  0  -0.023406  0  -0.000173  0.036949  0  4.023242  0
C  C82  1  0.26500111  0.64769635  0.46222308  1  0  -0.041601  0  3.681137  0  0  -0.067875  0  3.926028  0  0  -0.065283  0  3.944761  0  -0.07148  0  -0.061239  -0.069405  0  3.913111  0
C  C83  1  0.73499466  0.35230809  0.53777478  1  0  -0.041664  0  3.680972  0  0  -0.06793  0  3.925891  0  0  -0.065337  0  3.94462  0  -0.07144  0  -0.06126  -0.06946  0  3.912972  0
C  C84  1  0.25740197  0.51886414  0.49127213  1  0  0.033729  0  3.772436  0  0  0.052091  0  4.001148  0  0  0.049404  0  4.025168  0  0.003204  0  0.002425  0.052522  0  3.985464  0
C  C85  1  0.74259501  0.48114030  0.50872724  1  0  0.033679  0  3.772455  0  0  0.052063  0  4.001067  0  0  0.049397  0  4.025103  0  0.003019  0  0.00243  0.052497  0  3.985384  0
C  C86  1  0.20695324  0.01308186  0.45512311  1  0  0.135906  0  3.712696  0  0  0.104925  0  3.967884  0  0  0.112592  0  3.985844  0  0.502778  0  0.052121  0.099822  0  3.956684  0
C  C87  1  0.79304969  0.98692484  0.54487697  1  0  0.136015  0  3.712629  0  0  0.105006  0  3.9678  0  0  0.112678  0  3.985763  0  0.502768  0  0.052165  0.099905  0  3.956597  0
C  C88  1  0.10718702  0.98946524  0.13983993  1  0  0.163164  0  3.63441  0  0  0.128571  0  3.890883  0  0  0.137169  0  3.906526  0  0.49405  0  0.065939  0.122673  0  3.880017  0
C  C89  1  0.89280903  0.01053242  0.86016161  1  0  0.163239  0  3.634457  0  0  0.12865  0  3.890934  0  0  0.137253  0  3.906574  0  0.493944  0  0.065973  0.122751  0  3.88007  0
C  C90  1  0.25738185  0.51951309  0.35542541  1  0  0.173495  0  3.652765  0  0  0.1399  0  3.907384  0  0  0.149138  0  3.922546  0  0.540242  0  0.066385  0.133483  0  3.896098  0
C  C91  1  0.74261996  0.48049135  0.64457358  1  0  0.173653  0  3.652864  0  0  0.140027  0  3.907509  0  0  0.149262  0  3.922671  0  0.540272  0  0.066472  0.13361  0  3.896222  0
C  C92  1  0.31567155  0.01624747  0.95515511  1  0  -0.082857  0  3.729029  0  0  -0.109118  0  3.991411  0  0  -0.111024  0  4.012841  0  -0.028601  0  -0.079808  -0.106777  0  3.976373  0
C  C93  1  0.68432702  0.98374793  0.04484542  1  0  -0.08284  0  3.72897  0  0  -0.109154  0  3.991363  0  0  -0.11106  0  4.012792  0  -0.028513  0  -0.079808  -0.106817  0  3.976328  0
C  C94  1  0.21795903  0.87642149  0.05425247  1  0  -0.051619  0  3.697588  0  0  -0.078174  0  3.951226  0  0  -0.076206  0  3.970749  0  -0.055183  0  -0.066087  -0.079648  0  3.937213  0
C  C95  1  0.78204121  0.12357731  0.94575068  1  0  -0.051633  0  3.697608  0  0  -0.078191  0  3.951241  0  0  -0.076224  0  3.970763  0  -0.054847  0  -0.06608  -0.079666  0  3.93723  0
C  C96  1  0.27071951  0.49528264  0.95138391  1  0  -0.109527  0  3.707335  0  0  -0.124441  0  3.966272  0  0  -0.131395  0  3.98722  0  -0.001272  0  -0.079552  -0.119442  0  3.952738  0
C  C97  1  0.72928324  0.50471389  0.04861675  1  0  -0.109378  0  3.70724  0  0  -0.124289  0  3.966156  0  0  -0.131244  0  3.987104  0  -0.001492  0  -0.079476  -0.119304  0  3.952634  0
C  C98  1  0.21318074  0.47782999  0.01511756  1  0  0.138047  0  3.708145  0  0  0.104447  0  3.965127  0  0  0.112378  0  3.983123  0  0.454198  0  0.055573  0.098393  0  3.953036  0
C  C99  1  0.78682137  0.52216768  0.98488264  1  0  0.138075  0  3.708073  0  0  0.104481  0  3.965068  0  0  0.11242  0  3.983058  0  0.454692  0  0.055543  0.098428  0  3.952979  0
C  C100  1  0.25261909  0.50841538  0.56105741  1  0  -0.079171  0  3.689544  0  0  -0.105249  0  3.947526  0  0  -0.107182  0  3.968672  0  -0.045192  0  -0.078247  -0.102963  0  3.932822  0
C  C101  1  0.74738208  0.49159019  0.43894209  1  0  -0.07925  0  3.689717  0  0  -0.105337  0  3.947678  0  0  -0.107269  0  3.968819  0  -0.045188  0  -0.078296  -0.10305  0  3.932973  0
C  C102  1  0.24610511  0.38108005  0.58648229  1  0  -0.106051  0  3.735644  0  0  -0.129664  0  3.991412  0  0  -0.134374  0  4.015425  0  -0.015692  0  -0.084942  -0.127164  0  3.975703  0
C  C103  1  0.75390155  0.61892439  0.41351779  1  0  -0.105955  0  3.735555  0  0  -0.129551  0  3.991298  0  0  -0.13426  0  4.015312  0  -0.015736  0  -0.084901  -0.127052  0  3.975588  0
C  C104  1  0.14674269  0.86938480  0.11442476  1  0  -0.111028  0  3.703146  0  0  -0.126247  0  3.96058  0  0  -0.133467  0  3.982167  0  -0.008478  0  -0.079838  -0.120849  0  3.945658  0
C  C105  1  0.85325392  0.13061399  0.88557634  1  0  -0.111141  0  3.703094  0  0  -0.126355  0  3.960535  0  0  -0.133578  0  3.98212  0  -0.008751  0  -0.079882  -0.120962  0  3.945611  0
C  C106  1  0.26492824  0.64796090  0.39436480  1  0  -0.11732  0  3.72433  0  0  -0.131177  0  3.978238  0  0  -0.138417  0  3.999721  0  -0.007397  0  -0.081271  -0.124906  0  3.963348  0
C  C107  1  0.73506939  0.35204241  0.60563503  1  0  -0.117316  0  3.72422  0  0  -0.13119  0  3.978149  0  0  -0.138431  0  3.999629  0  -0.007336  0  -0.081309  -0.12492  0  3.963261  0
C  C108  1  0.22827998  0.11875202  0.56780628  1  0  -0.037266  0  3.672406  0  0  -0.061852  0  3.920532  0  0  -0.059433  0  3.938493  0  -0.015069  0  -0.058853  -0.063987  0  3.908854  0
C  C109  1  0.77172417  0.88125469  0.43219431  1  0  -0.037294  0  3.672656  0  0  -0.06196  0  3.920767  0  0  -0.059543  0  3.938733  0  -0.015156  0  -0.058903  -0.064094  0  3.909088  0
C  C110  1  0.21209023  0.99822266  0.52323651  1  0  -0.135958  0  3.744409  0  0  -0.153003  0  4.005494  0  0  -0.160316  0  4.027204  0  -0.075055  0  -0.09101  -0.147864  0  3.991253  0
C  C111  1  0.78791159  0.00178178  0.47676345  1  0  -0.135903  0  3.744333  0  0  -0.152916  0  4.005408  0  0  -0.16023  0  4.02712  0  -0.075209  0  -0.090983  -0.147779  0  3.991164  0
N  N112  1  0.13875676  0.11069555  0.10817532  1  0  -0.350866  0  3.272362  0  0  -0.279487  0  3.536818  0  0  -0.298112  0  3.554252  0  -1.246133  0  -0.313682  -0.265963  0  3.523956  0
N  N113  1  0.86124171  0.88930211  0.89182529  1  0  -0.350811  0  3.272309  0  0  -0.279424  0  3.53677  0  0  -0.298049  0  3.554203  0  -1.246073  0  -0.313652  -0.265899  0  3.523908  0
N  N114  1  0.25117795  0.39707540  0.38137896  1  0  -0.341748  0  3.279854  0  0  -0.274852  0  3.552105  0  0  -0.292854  0  3.567653  0  -1.225987  0  -0.312572  -0.261083  0  3.540499  0
N  N115  1  0.74882266  0.60292904  0.61862049  1  0  -0.341879  0  3.279968  0  0  -0.274975  0  3.552181  0  0  -0.292955  0  3.567754  0  -1.225987  0  -0.312591  -0.261202  0  3.540575  0
N  N116  1  0.19581797  0.35832048  0.04618757  1  0  -0.351298  0  3.296313  0  0  -0.276862  0  3.56393  0  0  -0.29614  0  3.580383  0  -1.236761  0  -0.317306  -0.263995  0  3.553134  0
N  N117  1  0.80418348  0.64167831  0.95381217  1  0  -0.351378  0  3.296206  0  0  -0.276975  0  3.563855  0  0  -0.296256  0  3.580304  0  -1.236871  0  -0.317309  -0.264107  0  3.553057  0
N  N118  1  0.22075410  0.14025552  0.43148546  1  0  -0.340471  0  3.269989  0  0  -0.272919  0  3.541108  0  0  -0.290334  0  3.556655  0  -1.23507  0  -0.313049  -0.261535  0  3.530909  0
N  N119  1  0.77924585  0.85975005  0.56851402  1  0  -0.340562  0  3.270064  0  0  -0.272988  0  3.541212  0  0  -0.290404  0  3.556743  0  -1.235136  0  -0.31306  -0.261598  0  3.531025  0
O  O120  1  0.48034870  0.22396881  0.31907231  1  0  -0.331421  0  2.286113  0  0  -0.260984  0  2.532609  0  0  -0.276684  0  2.531688  0  -1.022487  0  -0.208187  -0.249898  0  2.533221  0
O  O121  1  0.51965154  0.77602998  0.68092839  1  0  -0.331483  0  2.286095  0  0  -0.260989  0  2.532638  0  0  -0.276696  0  2.531721  0  -1.022503  0  -0.208187  -0.249902  0  2.533248  0
O  O122  1  0.88308026  0.25840381  0.15839168  1  0  -0.656124  0  2.019862  0  0  -0.5876  0  2.293639  0  0  -0.616179  0  2.279317  0  -1.188966  0  -0.3341  -0.567919  0  2.303419  0
O  O123  1  0.11692204  0.74158932  0.84161031  1  0  -0.656247  0  2.019782  0  0  -0.587668  0  2.293557  0  0  -0.616246  0  2.279235  0  -1.188952  0  -0.334141  -0.567988  0  2.303337  0
O  O124  1  0.17804835  0.96636537  0.29073387  1  0  -0.629522  0  2.021675  0  0  -0.568808  0  2.280477  0  0  -0.594812  0  2.266474  0  -1.177462  0  -0.331012  -0.550145  0  2.289203  0
O  O125  1  0.82195356  0.03363681  0.70926552  1  0  -0.629535  0  2.021643  0  0  -0.56882  0  2.280432  0  0  -0.594825  0  2.26643  0  -1.177438  0  -0.331031  -0.550158  0  2.28916  0
O  O126  1  0.26351329  0.29534869  0.23767547  1  0  -0.64023  0  2.129935  0  0  -0.555874  0  2.399542  0  0  -0.586639  0  2.387234  0  -1.167292  0  -0.303794  -0.534825  0  2.407724  0
O  O127  1  0.73648751  0.70465124  0.76232479  1  0  -0.640224  0  2.129874  0  0  -0.555859  0  2.399494  0  0  -0.586623  0  2.387188  0  -1.167293  0  -0.303776  -0.534816  0  2.407679  0
O  O128  1  0.94077302  0.11158532  0.29145671  1  0  -0.639558  0  2.052541  0  0  -0.568485  0  2.324083  0  0  -0.596969  0  2.309658  0  -1.17393  0  -0.335913  -0.548558  0  2.333207  0
O  O129  1  0.05922601  0.88841348  0.70854396  1  0  -0.639566  0  2.0525  0  0  -0.568466  0  2.324012  0  0  -0.59695  0  2.309587  0  -1.173909  0  -0.335925  -0.548539  0  2.333136  0
O  O130  1  0.46803617  0.38817553  0.16706081  1  0  -0.603635  0  1.954695  0  0  -0.559039  0  2.193048  0  0  -0.583729  0  2.185744  0  -1.180875  0  -0.312288  -0.541661  0  2.19742  0
O  O131  1  0.53195952  0.61181648  0.83293805  1  0  -0.603685  0  1.954711  0  0  -0.559068  0  2.193065  0  0  -0.583759  0  2.185761  0  -1.180843  0  -0.312289  -0.541691  0  2.197434  0
O  O132  1  0.18460267  0.55876207  0.17119862  1  0  -0.856163  0  1.87013  0  0  -0.794098  0  2.068174  0  0  -0.815766  0  2.031625  0  -1.263484  0  -0.582419  -0.778163  0  2.09323  0
O  O133  1  0.81539757  0.44123672  0.82880109  1  0  -0.856113  0  1.870166  0  0  -0.794058  0  2.068213  0  0  -0.815725  0  2.031664  0  -1.263478  0  -0.582416  -0.778123  0  2.093272  0
O  O134  1  0.90763962  0.45275161  0.23314953  1  0  -0.591935  0  1.944136  0  0  -0.538616  0  2.152605  0  0  -0.562507  0  2.142452  0  -1.172887  0  -0.306327  -0.522187  0  2.159203  0
O  O135  1  0.09235886  0.54724605  0.76684813  1  0  -0.591961  0  1.944074  0  0  -0.538619  0  2.152577  0  0  -0.562512  0  2.142425  0  -1.172775  0  -0.306332  -0.522189  0  2.159176  0
O  O136  1  0.33106268  0.82929693  0.26035241  1  0  -0.635455  0  1.915793  0  0  -0.592743  0  2.140902  0  0  -0.615407  0  2.130335  0  -1.203658  0  -0.338558  -0.576675  0  2.147387  0
O  O137  1  0.66893579  0.17070073  0.73964821  1  0  -0.635458  0  1.915957  0  0  -0.592746  0  2.141058  0  0  -0.615412  0  2.130491  0  -1.203635  0  -0.338559  -0.576678  0  2.147543  0
O  O138  1  0.84967315  0.22822203  0.37282920  1  0  -0.614349  0  1.932522  0  0  -0.569784  0  2.158957  0  0  -0.59149  0  2.151801  0  -1.191992  0  -0.325443  -0.554646  0  2.163473  0
O  O139  1  0.15032932  0.77178128  0.62717024  1  0  -0.614346  0  1.932539  0  0  -0.569773  0  2.158974  0  0  -0.591482  0  2.151823  0  -1.192006  0  -0.325438  -0.554636  0  2.163489  0
