# generated using pymatgen
data_Zn4H36C36O13
_symmetry_space_group_name_H-M   'P 1'
_cell_length_a   18.33091848
_cell_length_b   18.32847368
_cell_length_c   18.33178887
_cell_angle_alpha   60.00001354
_cell_angle_beta   59.99447974
_cell_angle_gamma   60.00339282
_symmetry_Int_Tables_number   1
_chemical_formula_structural   Zn4H36C36O13
_chemical_formula_sum   'Zn8 H72 C72 O26'
_cell_volume   4355.05286941
_cell_formula_units_Z   2
loop_
 _symmetry_equiv_pos_site_id
 _symmetry_equiv_pos_as_xyz
  1  'x, y, z'
loop_
 _atom_site_type_symbol
 _atom_site_label
 _atom_site_symmetry_multiplicity
 _atom_site_fract_x
 _atom_site_fract_y
 _atom_site_fract_z
 _atom_site_occupancy
 _atom_site_pbe_bader_charge
 _atom_site_pbe_bader_spin_density
 _atom_site_pbe_cm5_charge
 _atom_site_pbe_ddec_charge
 _atom_site_pbe_ddec_spin_density
 _atom_site_pbe_ddec_sum_bond_order
 _atom_site_pbe_magmom
Zn  Zn0  1  0.29347854  0.11863130  0.29443143  1  1.299127  0  0.666715  0.953308  0  2.392918  0
Zn  Zn1  1  0.11917556  0.29391251  0.29373475  1  1.288248  0  0.666169  0.9525  0  2.396202  0
Zn  Zn2  1  0.29431987  0.29396013  0.29303100  1  1.316021  0  0.666356  0.952921  0  2.393715  0
Zn  Zn3  1  0.29353039  0.29316170  0.11876841  1  1.295124  0  0.666358  0.952886  0  2.394779  0
Zn  Zn4  1  0.88152347  0.70646075  0.70641633  1  1.308232  0  0.667457  0.954443  0  2.386675  0
Zn  Zn5  1  0.70586158  0.88103760  0.70700509  1  1.290457  0  0.66716  0.95373  0  2.389825  0
Zn  Zn6  1  0.70689779  0.70645043  0.70556403  1  1.309691  0  0.667372  0.95409  0  2.388387  0
Zn  Zn7  1  0.70601864  0.70574040  0.88116479  1  1.295553  0  0.667371  0.954038  0  2.387344  0
H  H8  1  0.62560114  0.99933121  0.09335338  1  0.048243  0  0.093132  0.124392  0  0.996794  0
H  H9  1  0.53083944  0.09695651  0.09984092  1  0.030715  0  0.090011  0.123476  0  1.019592  0
H  H10  1  0.62184119  0.09728051  0.99829727  1  0.032342  0  0.09432  0.128157  0  0.987912  0
H  H11  1  0.09151618  0.62762146  0.28041734  1  0.050037  0  0.09303  0.123722  0  1.000282  0
H  H12  1  0.99988642  0.61785542  0.28077300  1  0.053608  0  0.094338  0.129037  0  0.987636  0
H  H13  1  0.10360669  0.52971625  0.27250725  1  0.053982  0  0.090722  0.124938  0  1.020376  0
H  H14  1  0.00216923  0.27956325  0.60962365  1  0.030586  0  0.095074  0.130561  0  0.985161  0
H  H15  1  0.08453849  0.28020529  0.63327943  1  0.015233  0  0.093446  0.125891  0  0.99963  0
H  H16  1  0.11068902  0.27292771  0.52999691  1  0.01863  0  0.090034  0.123419  0  1.023272  0
H  H17  1  0.27555321  0.05634465  0.12922150  1  0.024889  0  0.09213  0.129274  0  1.008098  0
H  H18  1  0.27771866  0.01844230  0.05638134  1  0.027299  0  0.090705  0.122343  0  1.022508  0
H  H19  1  0.27748695  0.12841980  0.01889244  1  0.043226  0  0.09414  0.131383  0  0.991336  0
H  H20  1  0.27781883  0.05417126  0.64818915  1  0.016815  0  0.091197  0.123883  0  1.021384  0
H  H21  1  0.27699154  0.02121248  0.57267521  1  0.027931  0  0.093782  0.131169  0  0.992794  0
H  H22  1  0.27612105  0.13025501  0.54037099  1  0.032175  0  0.092227  0.130022  0  1.008215  0
H  H23  1  0.10135294  0.52978372  0.09638380  1  0.018935  0  0.090148  0.12357  0  1.02295  0
H  H24  1  0.00028719  0.62097217  0.09855559  1  0.049605  0  0.093565  0.125442  0  0.99487  0
H  H25  1  0.09436914  0.62507482  0.99933086  1  0.054949  0  0.094613  0.129288  0  0.98857  0
H  H26  1  0.00149349  0.28051066  0.08446410  1  0.015811  0  0.093301  0.125959  0  0.998775  0
H  H27  1  0.08566061  0.27293524  0.11119049  1  0.060198  0  0.090831  0.12559  0  1.018937  0
H  H28  1  0.10849266  0.27930262  0.00258946  1  0.061386  0  0.09412  0.127737  0  0.989721  0
H  H29  1  0.61959393  0.09947308  0.28164953  1  0.022664  0  0.093399  0.124523  0  0.994674  0
H  H30  1  0.53122432  0.09345434  0.27242165  1  0.030953  0  0.090276  0.124073  0  1.018007  0
H  H31  1  0.62802558  0.99834093  0.28297557  1  0.050106  0  0.093551  0.126213  0  0.992812  0
H  H32  1  0.09624915  0.10139977  0.27251023  1  0.059368  0  0.089988  0.123077  0  1.023852  0
H  H33  1  0.00025245  0.09324004  0.28059403  1  0.053536  0  0.093663  0.125342  0  0.99668  0
H  H34  1  0.09936908  0.99923426  0.28129136  1  0.057708  0  0.094875  0.129947  0  0.986083  0
H  H35  1  0.27845105  0.58252185  0.12565293  1  0.052902  0  0.094911  0.132317  0  0.986434  0
H  H36  1  0.27481959  0.53593420  0.06339841  1  0.034844  0  0.09133  0.127345  0  1.011784  0
H  H37  1  0.27834995  0.64555043  0.01440537  1  0.023204  0  0.090785  0.121623  0  1.021721  0
H  H38  1  0.53115580  0.27279064  0.08595999  1  0.037423  0  0.090481  0.124852  0  1.018471  0
H  H39  1  0.60954682  0.28133982  0.10850324  1  0.028142  0  0.094597  0.129361  0  0.986474  0
H  H40  1  0.63453899  0.28123124  0.00195232  1  0.047627  0  0.092242  0.122749  0  1.006098  0
H  H41  1  0.11318552  0.00445553  0.60335096  1  0.041701  0  0.09404  0.128469  0  0.990387  0
H  H42  1  0.00369959  0.07921897  0.63706159  1  0.030553  0  0.092604  0.124242  0  1.005606  0
H  H43  1  0.08033226  0.11544077  0.53084661  1  0.032675  0  0.091241  0.12646  0  1.016935  0
H  H44  1  0.86890586  0.44083920  0.96667539  1  0.049701  0  0.093097  0.130145  0  0.997589  0
H  H45  1  0.96961711  0.34825372  0.96236588  1  0.048314  0  0.091087  0.124699  0  1.018367  0
H  H46  1  0.96307603  0.44659410  0.86782613  1  0.029654  0  0.092656  0.129296  0  1.003401  0
H  H47  1  0.34958084  0.95731892  0.72232712  1  0.021131  0  0.091012  0.124234  0  1.023074  0
H  H48  1  0.43958864  0.96831533  0.72376006  1  0.038979  0  0.092557  0.129385  0  1.001213  0
H  H49  1  0.45099221  0.86694689  0.72277222  1  0.035426  0  0.092975  0.130459  0  1.004409  0
H  H50  1  0.71859420  0.89200075  0.39005586  1  0.026415  0  0.093772  0.125964  0  0.991274  0
H  H51  1  0.72732576  0.91541770  0.46769335  1  0.041929  0  0.090144  0.123416  0  1.019832  0
H  H52  1  0.71709096  0.99938782  0.36454728  1  0.037077  0  0.093113  0.125357  0  0.999218  0
H  H53  1  0.95005584  0.71879622  0.98123581  1  0.013111  0  0.091359  0.124474  0  1.016036  0
H  H54  1  0.87115451  0.72448167  0.94810236  1  0.034489  0  0.092002  0.129266  0  1.004865  0
H  H55  1  0.98050252  0.72172284  0.87179189  1  0.039998  0  0.093557  0.129272  0  0.995751  0
H  H56  1  0.94750516  0.72470251  0.45638094  1  0.028174  0  0.091448  0.127599  0  1.008495  0
H  H57  1  0.87107070  0.72130663  0.42686695  1  0.063273  0  0.094175  0.131367  0  0.990457  0
H  H58  1  0.98009647  0.71919003  0.35004749  1  0.038475  0  0.091026  0.123778  0  1.018394  0
H  H59  1  0.34935824  0.96267183  0.96550582  1  0.046962  0  0.090622  0.123585  0  1.025663  0
H  H60  1  0.44782189  0.86795912  0.96011233  1  0.016993  0  0.092217  0.128756  0  1.004417  0
H  H61  1  0.44346811  0.96765606  0.86683269  1  0.070483  0  0.093181  0.130234  0  1.001145  0
H  H62  1  0.72714935  0.88806338  0.91724339  1  0.034539  0  0.090281  0.12389  0  1.020432  0
H  H63  1  0.71746604  0.92107473  0.99828432  1  0.028621  0  0.092569  0.124735  0  1.00214  0
H  H64  1  0.71849773  0.99890106  0.89006056  1  0.044834  0  0.09445  0.128166  0  0.988916  0
H  H65  1  0.86812594  0.43738369  0.72173216  1  0.036367  0  0.094204  0.132716  0  0.993181  0
H  H66  1  0.95675713  0.44962328  0.72416986  1  0.048707  0  0.091731  0.127894  0  1.006956  0
H  H67  1  0.97118844  0.34853304  0.71990899  1  0.059461  0  0.091117  0.124386  0  1.019911  0
H  H68  1  0.86886502  0.95919166  0.72419311  1  0.022062  0  0.092812  0.130674  0  0.999143  0
H  H69  1  0.96271161  0.96827422  0.72039387  1  0.019781  0  0.090935  0.124101  0  1.021116  0
H  H70  1  0.96994715  0.86757762  0.72183852  1  0.053357  0  0.093151  0.130016  0  1.0  0
H  H71  1  0.42784998  0.72130255  0.98080785  1  0.046502  0  0.094148  0.131092  0  0.993744  0
H  H72  1  0.35121400  0.72181420  0.94861863  1  0.025358  0  0.090795  0.122902  0  1.023989  0
H  H73  1  0.45857406  0.72483616  0.87109830  1  0.04806  0  0.091214  0.126969  0  1.011832  0
H  H74  1  0.71852003  0.36000163  0.92638843  1  0.015139  0  0.091893  0.123063  0  1.009295  0
H  H75  1  0.71905675  0.39936903  0.99667517  1  0.038441  0  0.094512  0.129262  0  0.987936  0
H  H76  1  0.72674398  0.46701892  0.88401197  1  0.046543  0  0.09063  0.124588  0  1.018967  0
H  H77  1  0.87385694  0.94095032  0.45995704  1  0.055362  0  0.091589  0.127776  0  1.008781  0
H  H78  1  0.98593281  0.87406338  0.41909772  1  0.040062  0  0.094419  0.130367  0  0.989641  0
H  H79  1  0.94412952  0.98540614  0.35179426  1  0.040857  0  0.091644  0.123862  0  1.014992  0
C  C80  1  0.38883701  0.11014109  0.11127948  1  1.545331  0  0.232363  0.630854  0  4.171665  0
C  C81  1  0.44672350  0.05192472  0.05375548  1  -0.002392  0  -0.019335  -0.147207  0  3.953602  0
C  C82  1  0.11129764  0.38912085  0.38929744  1  1.516173  0  0.230117  0.625539  0  4.185505  0
C  C83  1  0.05368911  0.44699659  0.44712458  1  -0.016024  0  -0.018899  -0.144587  0  3.954555  0
C  C84  1  0.38894450  0.11086664  0.38974880  1  1.512424  0  0.232574  0.631355  0  4.169858  0
C  C85  1  0.44676041  0.05318192  0.44765716  1  -0.014369  0  -0.019424  -0.147472  0  3.953731  0
C  C86  1  0.11065264  0.38923586  0.11086055  1  1.5503  0  0.229737  0.625335  0  4.186539  0
C  C87  1  0.05249103  0.44700152  0.05334990  1  0.001186  0  -0.018974  -0.144284  0  3.953878  0
C  C88  1  0.11051608  0.11096748  0.38935093  1  1.585221  0  0.230508  0.626843  0  4.18376  0
C  C89  1  0.05218954  0.05358344  0.44724758  1  -0.049443  0  -0.019189  -0.14514  0  3.953937  0
C  C90  1  0.38906461  0.38952649  0.10996817  1  1.575808  0  0.231791  0.629558  0  4.174334  0
C  C91  1  0.44690756  0.44743611  0.05153317  1  -0.054962  0  -0.019368  -0.147003  0  3.953697  0
C  C92  1  0.88914901  0.61055519  0.88962621  1  1.609545  0  0.235374  0.639581  0  4.148037  0
C  C93  1  0.94673817  0.55264915  0.94783027  1  -0.017624  0  -0.019365  -0.149973  0  3.952156  0
C  C94  1  0.61021695  0.88946370  0.61119301  1  1.552967  0  0.233851  0.634975  0  4.162583  0
C  C95  1  0.55235331  0.94751099  0.55330124  1  -0.008133  0  -0.019746  -0.148853  0  3.953207  0
C  C96  1  0.89000815  0.61046910  0.61072947  1  1.585077  0  0.235422  0.639069  0  4.149845  0
C  C97  1  0.94815798  0.55261755  0.55278248  1  -0.051816  0  -0.019439  -0.149968  0  3.952961  0
C  C98  1  0.61007358  0.88881005  0.88991053  1  1.595141  0  0.233259  0.634239  0  4.163067  0
C  C99  1  0.55228814  0.94634302  0.94814307  1  -0.023591  0  -0.01957  -0.148581  0  3.953018  0
C  C100  1  0.88892498  0.88977011  0.61084197  1  1.547089  0  0.235299  0.639076  0  4.151178  0
C  C101  1  0.94640313  0.94809730  0.55287270  1  -0.003178  0  -0.019603  -0.15014  0  3.95285  0
C  C102  1  0.61029330  0.61100328  0.88856948  1  1.517364  0  0.232988  0.633223  0  4.165576  0
C  C103  1  0.55244014  0.55307784  0.94591342  1  -0.017939  0  -0.019373  -0.148129  0  3.953089  0
C  C104  1  0.53955305  0.02655726  0.02784234  1  0.087711  0  -0.009944  0.08709  0  3.950575  0
C  C105  1  0.58115664  0.05670539  0.05640863  1  -0.064243  0  -0.234426  -0.392375  0  3.975788  0
C  C106  1  0.02791280  0.54011684  0.40539763  1  0.065899  0  -0.010002  0.086241  0  3.944929  0
C  C107  1  0.05724810  0.58066690  0.30483812  1  -0.095064  0  -0.235396  -0.395534  0  3.981369  0
C  C108  1  0.02804967  0.40517505  0.54031304  1  0.059768  0  -0.00993  0.08591  0  3.943894  0
C  C109  1  0.05786347  0.30452839  0.58025262  1  0.001288  0  -0.235864  -0.397271  0  3.979235  0
C  C110  1  0.40465060  0.02610896  0.02822358  1  0.024453  0  -0.009414  0.086912  0  3.940771  0
C  C111  1  0.30382888  0.05863991  0.05954464  1  -0.007609  0  -0.238374  -0.401209  0  3.976233  0
C  C112  1  0.40470989  0.02776435  0.54108895  1  0.022258  0  -0.009151  0.087895  0  3.939883  0
C  C113  1  0.30386995  0.05968647  0.57799228  1  0.012451  0  -0.238663  -0.403624  0  3.977383  0
C  C114  1  0.02692800  0.54010398  0.02753412  1  0.086021  0  -0.009642  0.086555  0  3.945187  0
C  C115  1  0.05735307  0.58084811  0.05691584  1  -0.085756  0  -0.23527  -0.395432  0  3.981634  0
C  C116  1  0.02654516  0.40519173  0.02790783  1  0.083628  0  -0.009776  0.086134  0  3.943986  0
C  C117  1  0.05702149  0.30452975  0.05807927  1  -0.103965  0  -0.23606  -0.39744  0  3.980365  0
C  C118  1  0.53957625  0.02726151  0.40614715  1  -0.036153  0  -0.009535  0.087625  0  3.952394  0
C  C119  1  0.58129686  0.05617604  0.30584218  1  -0.054787  0  -0.234569  -0.391926  0  3.977461  0
C  C120  1  0.02663069  0.02778671  0.40554875  1  0.110572  0  -0.009844  0.086531  0  3.946155  0
C  C121  1  0.05725098  0.05690727  0.30504443  1  -0.131137  0  -0.235213  -0.395293  0  3.98003  0
C  C122  1  0.40488283  0.54076372  0.02586667  1  0.104769  0  -0.008901  0.087581  0  3.940672  0
C  C123  1  0.30413996  0.57839009  0.05868455  1  -0.061956  0  -0.237427  -0.398465  0  3.974213  0
C  C124  1  0.53984964  0.40577594  0.02606931  1  -0.034766  0  -0.009623  0.087347  0  3.946946  0
C  C125  1  0.58056381  0.30534605  0.05717850  1  -0.068251  0  -0.235234  -0.393684  0  3.976218  0
C  C126  1  0.02622417  0.02816859  0.54048035  1  0.112873  0  -0.00983  0.086055  0  3.942879  0
C  C127  1  0.05731132  0.05833478  0.57990871  1  -0.066075  0  -0.236336  -0.397811  0  3.980627  0
C  C128  1  0.97272736  0.45950041  0.97325014  1  -0.057174  0  -0.010296  0.087727  0  3.945291  0
C  C129  1  0.94225853  0.42127537  0.94123377  1  -0.09001  0  -0.23884  -0.402323  0  3.97134  0
C  C130  1  0.45891411  0.97295416  0.59528440  1  -0.101386  0  -0.009692  0.087397  0  3.940351  0
C  C131  1  0.42225773  0.94011149  0.69610515  1  -0.007209  0  -0.239021  -0.402706  0  3.975313  0
C  C132  1  0.59388831  0.97334162  0.46048907  1  0.088291  0  -0.010056  0.086753  0  3.953197  0
C  C133  1  0.69420017  0.94356186  0.41893721  1  -0.057886  0  -0.23508  -0.393044  0  3.979629  0
C  C134  1  0.97222743  0.59430345  0.97372606  1  -0.025343  0  -0.010221  0.087031  0  3.94819  0
C  C135  1  0.94197561  0.69493776  0.94246252  1  -0.047873  0  -0.238064  -0.40084  0  3.971989  0
C  C136  1  0.97380081  0.59433120  0.45973925  1  -0.029702  0  -0.010021  0.087651  0  3.946408  0
C  C137  1  0.94186447  0.69497733  0.42090313  1  -0.081983  0  -0.238384  -0.401595  0  3.972534  0
C  C138  1  0.45887648  0.97230121  0.97360135  1  -0.059919  0  -0.009629  0.08768  0  3.94036  0
C  C139  1  0.42235926  0.94131479  0.94029602  1  -0.067585  0  -0.238987  -0.402196  0  3.974619  0
C  C140  1  0.59387320  0.97193709  0.97378047  1  -0.056442  0  -0.009909  0.087477  0  3.951103  0
C  C141  1  0.69420928  0.94329190  0.94335576  1  -0.061599  0  -0.235456  -0.395838  0  3.980257  0
C  C142  1  0.97358150  0.45947942  0.59451596  1  -0.01922  0  -0.009924  0.087806  0  3.945357  0
C  C143  1  0.94113212  0.42128364  0.69520880  1  -0.107941  0  -0.238856  -0.402611  0  3.971929  0
C  C144  1  0.97233326  0.97355504  0.59467082  1  -0.083226  0  -0.009859  0.088135  0  3.944172  0
C  C145  1  0.94208411  0.94091229  0.69538871  1  -0.030867  0  -0.23941  -0.403303  0  3.972744  0
C  C146  1  0.45912631  0.59502203  0.97175767  1  -0.064306  0  -0.009695  0.087322  0  3.941029  0
C  C147  1  0.42185417  0.69575994  0.94163747  1  -0.032257  0  -0.237956  -0.399718  0  3.974321  0
C  C148  1  0.59414251  0.46014362  0.97164190  1  0.083995  0  -0.009775  0.087279  0  3.948096  0
C  C149  1  0.69457376  0.41977932  0.94302162  1  -0.075698  0  -0.236341  -0.396688  0  3.978574  0
C  C150  1  0.97198870  0.97385577  0.45987791  1  -0.049194  0  -0.009495  0.087797  0  3.947978  0
C  C151  1  0.94240767  0.94227708  0.42046136  1  -0.095205  0  -0.238393  -0.399614  0  3.971365  0
O  O152  1  0.25037397  0.24982252  0.24992994  1  -1.204402  0  -0.574804  -1.034031  0  2.55651  0
O  O153  1  0.75033625  0.74982968  0.74994946  1  -1.206046  0  -0.574266  -1.032163  0  2.551189  0
O  O154  1  0.36750501  0.07045529  0.19553790  1  -1.164489  0  -0.312473  -0.54597  0  2.318704  0
O  O155  1  0.07097557  0.36674402  0.36789573  1  -1.176544  0  -0.311545  -0.538707  0  2.315599  0
O  O156  1  0.19554477  0.36733840  0.36669824  1  -1.143511  0  -0.313112  -0.54457  0  2.319423  0
O  O157  1  0.36613420  0.19421136  0.07075087  1  -1.179166  0  -0.311108  -0.53934  0  2.312511  0
O  O158  1  0.36582216  0.07056039  0.36908091  1  -1.167173  0  -0.311092  -0.540435  0  2.313866  0
O  O159  1  0.19476300  0.36661228  0.07050882  1  -1.181777  0  -0.312026  -0.540802  0  2.31608  0
O  O160  1  0.07082014  0.36790258  0.19508312  1  -1.172532  0  -0.312043  -0.5422  0  2.320248  0
O  O161  1  0.36810118  0.19509170  0.36628038  1  -1.145875  0  -0.312328  -0.54491  0  2.316472  0
O  O162  1  0.19459613  0.07045544  0.36808720  1  -1.175805  0  -0.312011  -0.539897  0  2.314242  0
O  O163  1  0.36679959  0.36847722  0.19398600  1  -1.178984  0  -0.310256  -0.537202  0  2.31051  0
O  O164  1  0.36735485  0.36643116  0.07046623  1  -1.152512  0  -0.31296  -0.547223  0  2.321648  0
O  O165  1  0.07083951  0.19522910  0.36646990  1  -1.165173  0  -0.31259  -0.544247  0  2.320833  0
O  O166  1  0.92955478  0.63349965  0.80552040  1  -1.18192  0  -0.310643  -0.543526  0  2.310126  0
O  O167  1  0.63140445  0.92940086  0.63429498  1  -1.157666  0  -0.312278  -0.545571  0  2.313658  0
O  O168  1  0.63317305  0.80532413  0.63215659  1  -1.150425  0  -0.31158  -0.543307  0  2.313416  0
O  O169  1  0.80492524  0.63169358  0.92943971  1  -1.175823  0  -0.311335  -0.546524  0  2.311811  0
O  O170  1  0.92981277  0.63215613  0.63349395  1  -1.157063  0  -0.312143  -0.548308  0  2.314551  0
O  O171  1  0.63197356  0.80453132  0.92959639  1  -1.167375  0  -0.312281  -0.546597  0  2.316085  0
O  O172  1  0.63224429  0.92930099  0.80583502  1  -1.178521  0  -0.310556  -0.54086  0  2.312581  0
O  O173  1  0.80591393  0.63279169  0.63210856  1  -1.179072  0  -0.309932  -0.541097  0  2.308935  0
O  O174  1  0.92944531  0.80567458  0.63206315  1  -1.180061  0  -0.310621  -0.542573  0  2.308158  0
O  O175  1  0.63277816  0.63334615  0.80425367  1  -1.145945  0  -0.313013  -0.548716  0  2.320583  0
O  O176  1  0.63192876  0.63273029  0.92924190  1  -1.170565  0  -0.310247  -0.538911  0  2.30928  0
O  O177  1  0.80466497  0.92944983  0.63376056  1  -1.165011  0  -0.31187  -0.547528  0  2.31544  0
