# generated using pymatgen
data_H8PbC15SO8
_symmetry_space_group_name_H-M   'P 1'
_cell_length_a   5.89611308
_cell_length_b   12.82538021
_cell_length_c   20.17678398
_cell_angle_alpha   89.99964923
_cell_angle_beta   90.00051336
_cell_angle_gamma   90.00155581
_symmetry_Int_Tables_number   1
_chemical_formula_structural   H8PbC15SO8
_chemical_formula_sum   'H32 Pb4 C60 S4 O32'
_cell_volume   1525.76622509
_cell_formula_units_Z   4
loop_
 _symmetry_equiv_pos_site_id
 _symmetry_equiv_pos_as_xyz
  1  'x, y, z'
loop_
 _atom_site_type_symbol
 _atom_site_label
 _atom_site_symmetry_multiplicity
 _atom_site_fract_x
 _atom_site_fract_y
 _atom_site_fract_z
 _atom_site_occupancy
 _atom_site_pbe_bader_charge
 _atom_site_pbe_bader_spin_density
 _atom_site_pbe_cm5_charge
 _atom_site_pbe_ddec_charge
 _atom_site_pbe_ddec_spin_density
 _atom_site_pbe_ddec_sum_bond_order
 _atom_site_pbe_magmom
H  H0  1  0.05390715  0.48879038  0.44678928  1  0.070093  0  0.106174  0.109097  0  1.031288  0
H  H1  1  0.44609208  0.51120275  0.94677687  1  0.070233  0  0.10622  0.109207  0  1.031217  0
H  H2  1  0.94609812  0.98879813  0.55321838  1  0.070123  0  0.106237  0.109214  0  1.031301  0
H  H3  1  0.55387579  0.01120161  0.05321697  1  0.070342  0  0.106205  0.109104  0  1.031191  0
H  H4  1  0.94613878  0.51123022  0.55323873  1  0.06987  0  0.106186  0.109137  0  1.031474  0
H  H5  1  0.55387584  0.48877030  0.05322983  1  0.069667  0  0.106181  0.109062  0  1.031536  0
H  H6  1  0.05385792  0.01123183  0.44676898  1  0.069793  0  0.106193  0.109118  0  1.031468  0
H  H7  1  0.44613283  0.98877222  0.94676941  1  0.06988  0  0.106194  0.109075  0  1.031487  0
H  H8  1  0.63595016  0.50002506  0.31920641  1  0.137854  0  0.108757  0.116472  0  1.005819  0
H  H9  1  0.86401833  0.50000120  0.81921609  1  0.137561  0  0.108796  0.116409  0  1.006116  0
H  H10  1  0.36403832  0.99999398  0.68078534  1  0.137605  0  0.108806  0.116473  0  1.006026  0
H  H11  1  0.13591927  0.99997417  0.18080589  1  0.137499  0  0.108744  0.116412  0  1.005929  0
H  H12  1  0.36400419  0.50003921  0.68077699  1  0.137392  0  0.108747  0.116305  0  1.006037  0
H  H13  1  0.13605813  0.49989855  0.18075095  1  0.135741  0  0.108656  0.116284  0  1.006156  0
H  H14  1  0.63602118  0.00010772  0.31924267  1  0.136072  0  0.108671  0.11625  0  1.006153  0
H  H15  1  0.86401345  0.99995129  0.81922048  1  0.137355  0  0.108754  0.116376  0  1.005974  0
H  H16  1  0.21899746  0.63083056  0.51751954  1  0.159056  0  0.111125  0.120677  0  1.013223  0
H  H17  1  0.28101851  0.36916243  0.01751236  1  0.159082  0  0.111116  0.120646  0  1.013277  0
H  H18  1  0.78103489  0.13083610  0.48248766  1  0.159008  0  0.111076  0.1206  0  1.01328  0
H  H19  1  0.71899013  0.86916534  0.98248639  1  0.159053  0  0.111131  0.120703  0  1.013244  0
H  H20  1  0.78110614  0.36918615  0.48249756  1  0.158333  0  0.111058  0.120661  0  1.013398  0
H  H21  1  0.71889683  0.63083089  0.98249632  1  0.158254  0  0.111068  0.120661  0  1.013351  0
H  H22  1  0.21886010  0.86917437  0.51750268  1  0.15824  0  0.11109  0.120666  0  1.013314  0
H  H23  1  0.28111686  0.13081394  0.01750395  1  0.158268  0  0.11106  0.120636  0  1.013514  0
H  H24  1  0.80605561  0.63997490  0.38971267  1  0.101476  0  0.10847  0.118556  0  1.016529  0
H  H25  1  0.69391458  0.36004996  0.88972984  1  0.101596  0  0.108461  0.118501  0  1.016703  0
H  H26  1  0.19393786  0.13994151  0.61027269  1  0.101662  0  0.108523  0.118581  0  1.016749  0
H  H27  1  0.30604474  0.86003897  0.11029968  1  0.101517  0  0.10844  0.118519  0  1.01659  0
H  H28  1  0.19391061  0.36008625  0.61025785  1  0.102085  0  0.1085  0.118615  0  1.016807  0
H  H29  1  0.30612287  0.63986850  0.11024117  1  0.102046  0  0.108543  0.1186  0  1.016833  0
H  H30  1  0.80609281  0.86013992  0.38975631  1  0.102309  0  0.108435  0.118521  0  1.016681  0
H  H31  1  0.69393165  0.13990522  0.88973774  1  0.102298  0  0.108438  0.118412  0  1.016945  0
Pb  Pb32  1  0.24022336  0.24997569  0.18833660  1  1.488145  0  0.684148  1.22831  0  1.81138  0
Pb  Pb33  1  0.25980693  0.75001971  0.68834241  1  1.488158  0  0.684179  1.228424  0  1.811142  0
Pb  Pb34  1  0.75981579  0.74998645  0.81165869  1  1.488176  0  0.684198  1.228443  0  1.811064  0
Pb  Pb35  1  0.74020678  0.25001727  0.31166428  1  1.488125  0  0.684175  1.228325  0  1.811353  0
C  C36  1  0.22376117  0.40418861  0.33619926  1  1.593956  0  0.22007  0.605404  0  4.189077  0
C  C37  1  0.27621503  0.59581797  0.83621123  1  1.59361  0  0.220227  0.605548  0  4.188664  0
C  C38  1  0.77622932  0.90418231  0.66378943  1  1.593619  0  0.220167  0.605478  0  4.188621  0
C  C39  1  0.72376423  0.09581490  0.16380455  1  1.593649  0  0.220035  0.605242  0  4.189203  0
C  C40  1  0.77622201  0.59584057  0.66379059  1  1.593579  0  0.220185  0.605448  0  4.188588  0
C  C41  1  0.72379359  0.40414260  0.16378060  1  1.593921  0  0.220023  0.605082  0  4.189083  0
C  C42  1  0.22377761  0.09585779  0.33621627  1  1.594007  0  0.220049  0.605269  0  4.189012  0
C  C43  1  0.27622573  0.90416126  0.83621206  1  1.593641  0  0.220198  0.605391  0  4.188603  0
C  C44  1  0.33340062  0.48656457  0.37902620  1  -0.030118  0  -0.011884  -0.028977  0  3.935915  0
C  C45  1  0.16656645  0.51344475  0.87903421  1  -0.029825  0  -0.01187  -0.029136  0  3.936149  0
C  C46  1  0.66658767  0.98655780  0.62096809  1  -0.029696  0  -0.011881  -0.029025  0  3.936051  0
C  C47  1  0.83339637  0.01343745  0.12097845  1  -0.029863  0  -0.011933  -0.029185  0  3.936003  0
C  C48  1  0.66657069  0.51346773  0.62096513  1  -0.032955  0  -0.011952  -0.029051  0  3.935938  0
C  C49  1  0.83344896  0.48651426  0.12095465  1  -0.033319  0  -0.011912  -0.028994  0  3.936062  0
C  C50  1  0.33342095  0.01348620  0.37903861  1  -0.033468  0  -0.011902  -0.028988  0  3.93605  0
C  C51  1  0.16658173  0.98653248  0.87903568  1  -0.033098  0  -0.011925  -0.028996  0  3.935949  0
C  C52  1  0.21843938  0.52260254  0.43530002  1  0.003437  0  -0.079771  -0.084881  0  3.943098  0
C  C53  1  0.28155449  0.47739615  0.93530062  1  0.002691  0  -0.07984  -0.08506  0  3.943344  0
C  C54  1  0.78156766  0.02260270  0.56470020  1  0.00306  0  -0.079811  -0.085091  0  3.943291  0
C  C55  1  0.71843197  0.97739460  0.06470462  1  0.00277  0  -0.07972  -0.084733  0  3.942772  0
C  C56  1  0.78159129  0.47741963  0.56470320  1  0.003004  0  -0.079728  -0.084884  0  3.943262  0
C  C57  1  0.71842361  0.52257300  0.06469418  1  0.002926  0  -0.079653  -0.08469  0  3.943244  0
C  C58  1  0.21840534  0.97742493  0.43530055  1  0.00257  0  -0.079725  -0.084914  0  3.943342  0
C  C59  1  0.28159022  0.02257611  0.93529812  1  0.002846  0  -0.079768  -0.084782  0  3.943426  0
C  C60  1  0.54629861  0.52826087  0.36287472  1  -0.046749  0  -0.08054  -0.090807  0  3.948001  0
C  C61  1  0.95364210  0.47175800  0.86288381  1  -0.047219  0  -0.080603  -0.090547  0  3.948107  0
C  C62  1  0.45366951  0.02823761  0.63711904  1  -0.047222  0  -0.080606  -0.090664  0  3.948247  0
C  C63  1  0.04627643  0.97174342  0.13713532  1  -0.046586  0  -0.080634  -0.09076  0  3.94811  0
C  C64  1  0.45364048  0.47178547  0.63710819  1  -0.044286  0  -0.080611  -0.090531  0  3.948421  0
C  C65  1  0.04640044  0.52817606  0.13708918  1  -0.042885  0  -0.08054  -0.090595  0  3.948434  0
C  C66  1  0.54635947  0.97181965  0.36290203  1  -0.0426  0  -0.080627  -0.090643  0  3.948551  0
C  C67  1  0.95366435  0.02820935  0.86288822  1  -0.044215  0  -0.080528  -0.090651  0  3.948402  0
C  C68  1  0.31049938  0.60083810  0.47472948  1  -0.080372  0  -0.078239  -0.076804  0  3.958485  0
C  C69  1  0.18950053  0.39915713  0.97473011  1  -0.079922  0  -0.078189  -0.076643  0  3.958697  0
C  C70  1  0.68950879  0.10084204  0.52526942  1  -0.080281  0  -0.078145  -0.076618  0  3.958388  0
C  C71  1  0.81048988  0.89915872  0.02527496  1  -0.080024  0  -0.0782  -0.076827  0  3.958534  0
C  C72  1  0.68954995  0.39918251  0.52527127  1  -0.080998  0  -0.078181  -0.076796  0  3.958911  0
C  C73  1  0.81044194  0.60082137  0.02527212  1  -0.08068  0  -0.078298  -0.077014  0  3.958988  0
C  C74  1  0.31041842  0.89918013  0.47472934  1  -0.080791  0  -0.078158  -0.076691  0  3.958988  0
C  C75  1  0.18955605  0.10081120  0.97473025  1  -0.080838  0  -0.078207  -0.076854  0  3.959169  0
C  C76  1  0.64144877  0.60650659  0.40199838  1  0.023686  0  -0.083453  -0.096359  0  3.974079  0
C  C77  1  0.85851833  0.39351271  0.90201097  1  0.024815  0  -0.083454  -0.096448  0  3.974361  0
C  C78  1  0.35853913  0.10647925  0.59798960  1  0.02424  0  -0.083486  -0.096534  0  3.974509  0
C  C79  1  0.14142282  0.89349510  0.09801295  1  0.024149  0  -0.083366  -0.096273  0  3.974165  0
C  C80  1  0.35852084  0.39354365  0.59798205  1  0.024816  0  -0.083476  -0.096573  0  3.974921  0
C  C81  1  0.14149877  0.60643383  0.09797391  1  0.025134  0  -0.083606  -0.096542  0  3.97477  0
C  C82  1  0.64146101  0.89357099  0.40202404  1  0.024628  0  -0.083526  -0.096462  0  3.974856  0
C  C83  1  0.85853831  0.10644832  0.90201654  1  0.024808  0  -0.083535  -0.096333  0  3.974913  0
C  C84  1  0.52116706  0.64230904  0.45732110  1  -0.219477  0  -0.021855  -0.089356  0  3.990536  0
C  C85  1  0.97881664  0.35770198  0.95732977  1  -0.220323  0  -0.021988  -0.089457  0  3.990748  0
C  C86  1  0.47882813  0.14229807  0.54266870  1  -0.219832  0  -0.021959  -0.089349  0  3.990478  0
C  C87  1  0.02115622  0.85769626  0.04268440  1  -0.220217  0  -0.021968  -0.089512  0  3.990697  0
C  C88  1  0.47884834  0.35775134  0.54266924  1  -0.21849  0  -0.021998  -0.089444  0  3.990531  0
C  C89  1  0.02115806  0.64224923  0.04266850  1  -0.218462  0  -0.021858  -0.08926  0  3.990034  0
C  C90  1  0.52112622  0.85776074  0.45733155  1  -0.217864  0  -0.021846  -0.089323  0  3.990412  0
C  C91  1  0.97884901  0.14224716  0.95733419  1  -0.21866  0  -0.021855  -0.089343  0  3.990714  0
C  C92  1  0.78484673  0.74989667  0.18527348  1  2.140899  0  0.361633  0.721791  0  4.137339  0
C  C93  1  0.71518635  0.25003174  0.68524905  1  2.13778  0  0.361406  0.721386  0  4.137036  0
C  C94  1  0.21521277  0.24998437  0.81473917  1  2.137568  0  0.36137  0.72125  0  4.137042  0
C  C95  1  0.28486637  0.75008087  0.31470858  1  2.142958  0  0.361964  0.72208  0  4.137486  0
S  S96  1  0.62909882  0.75001209  0.50309197  1  2.451055  0  0.483838  0.987835  0  5.693902  0
S  S97  1  0.87089083  0.24997717  0.00309302  1  2.451602  0  0.48389  0.988036  0  5.693991  0
S  S98  1  0.37088775  0.25001008  0.49690779  1  2.451489  0  0.483821  0.98786  0  5.693962  0
S  S99  1  0.12911270  0.75000367  0.99691219  1  2.45202  0  0.483947  0.988095  0  5.693762  0
O  O100  1  0.34180759  0.36810775  0.28826968  1  -1.189663  0  -0.296415  -0.623402  0  2.309077  0
O  O101  1  0.15815557  0.63190314  0.78827171  1  -1.18924  0  -0.296622  -0.623614  0  2.308581  0
O  O102  1  0.65816541  0.86810234  0.71172908  1  -1.18913  0  -0.296593  -0.6236  0  2.308606  0
O  O103  1  0.84181403  0.13189211  0.21173747  1  -1.189464  0  -0.296458  -0.623341  0  2.309301  0
O  O104  1  0.65815693  0.63191441  0.71172908  1  -1.189402  0  -0.296535  -0.623475  0  2.308784  0
O  O105  1  0.84184117  0.36807380  0.21172309  1  -1.189646  0  -0.296414  -0.623199  0  2.308896  0
O  O106  1  0.34182285  0.13192450  0.28827316  1  -1.189626  0  -0.296398  -0.623244  0  2.308991  0
O  O107  1  0.15816575  0.86808951  0.78827220  1  -1.189431  0  -0.296549  -0.623513  0  2.308871  0
O  O108  1  0.02248280  0.37853096  0.35109235  1  -1.176009  0  -0.295177  -0.562517  0  2.246904  0
O  O109  1  0.47749885  0.62146925  0.85109890  1  -1.175907  0  -0.295105  -0.562457  0  2.246913  0
O  O110  1  0.97750562  0.87852452  0.64890042  1  -1.176093  0  -0.295114  -0.562439  0  2.246826  0
O  O111  1  0.52248757  0.12147282  0.14891082  1  -1.175933  0  -0.295088  -0.562386  0  2.246953  0
O  O112  1  0.97752073  0.62148965  0.64890889  1  -1.176275  0  -0.295152  -0.562526  0  2.246793  0
O  O113  1  0.52247585  0.37849912  0.14890334  1  -1.176298  0  -0.29515  -0.562446  0  2.246861  0
O  O114  1  0.02247926  0.12150622  0.35109686  1  -1.176451  0  -0.295168  -0.562549  0  2.246952  0
O  O115  1  0.47751766  0.87851036  0.85109786  1  -1.176291  0  -0.295198  -0.562478  0  2.246608  0
O  O116  1  0.51924079  0.75001138  0.56780230  1  -1.32261  0  -0.303176  -0.564353  0  2.285117  0
O  O117  1  0.98072499  0.24997731  0.06780816  1  -1.322602  0  -0.303114  -0.564408  0  2.285146  0
O  O118  1  0.48071695  0.25001546  0.43219250  1  -1.322757  0  -0.303138  -0.56433  0  2.285205  0
O  O119  1  0.01925819  0.75000509  0.93219953  1  -1.322618  0  -0.303169  -0.56442  0  2.285122  0
O  O120  1  0.87418565  0.75002883  0.49859610  1  -1.281765  0  -0.298515  -0.499431  0  2.195393  0
O  O121  1  0.62579735  0.24996701  0.99858924  1  -1.282225  0  -0.298573  -0.499506  0  2.19527  0
O  O122  1  0.12579413  0.25003232  0.50141010  1  -1.281946  0  -0.298478  -0.499406  0  2.195265  0
O  O123  1  0.37419431  0.74998420  0.00140854  1  -1.281995  0  -0.298535  -0.499459  0  2.195367  0
O  O124  1  0.92669661  0.74982554  0.22619350  1  -1.090394  0  -0.180617  -0.368458  0  2.23384  0
O  O125  1  0.57333746  0.25004170  0.72616615  1  -1.089345  0  -0.18059  -0.368243  0  2.233301  0
O  O126  1  0.07338324  0.24999937  0.77381864  1  -1.089593  0  -0.18041  -0.368003  0  2.233492  0
O  O127  1  0.42671356  0.75015746  0.27379445  1  -1.091291  0  -0.180651  -0.368461  0  2.234281  0
O  O128  1  0.64272719  0.74996703  0.14453980  1  -1.079264  0  -0.161676  -0.339781  0  2.264215  0
O  O129  1  0.85731847  0.25002178  0.64452079  1  -1.077156  0  -0.161449  -0.339634  0  2.264485  0
O  O130  1  0.35733740  0.24997249  0.85547334  1  -1.07673  0  -0.161593  -0.339683  0  2.264062  0
O  O131  1  0.14272068  0.74999727  0.35543635  1  -1.080413  0  -0.161949  -0.340086  0  2.263943  0
