# generated using pymatgen
data_Zn4H43C64N16F
_symmetry_space_group_name_H-M   'P 1'
_cell_length_a   13.27237593
_cell_length_b   13.34893010
_cell_length_c   14.82075536
_cell_angle_alpha   108.32638535
_cell_angle_beta   111.08461361
_cell_angle_gamma   102.46255871
_symmetry_Int_Tables_number   1
_chemical_formula_structural   Zn4H43C64N16F
_chemical_formula_sum   'Zn4 H43 C64 N16 F1'
_cell_volume   2159.45109608
_cell_formula_units_Z   1
loop_
 _symmetry_equiv_pos_site_id
 _symmetry_equiv_pos_as_xyz
  1  'x, y, z'
loop_
 _atom_site_type_symbol
 _atom_site_label
 _atom_site_symmetry_multiplicity
 _atom_site_fract_x
 _atom_site_fract_y
 _atom_site_fract_z
 _atom_site_occupancy
 _atom_site_pbe_bader_charge
 _atom_site_pbe_bader_spin_density
 _atom_site_pbe_cm5_charge
 _atom_site_pbe_ddec_charge
 _atom_site_pbe_ddec_spin_density
 _atom_site_pbe_ddec_sum_bond_order
 _atom_site_pbe_magmom
Zn  Zn0  1  0.63821184  0.12110565  0.99412313  1  1.189974  0  0.74648  0.615383  0  2.450011  0
Zn  Zn1  1  0.35596344  0.84051379  0.01331909  1  1.18585  0  0.743761  0.612481  0  2.44225  0
Zn  Zn2  1  0.63594232  0.97170702  0.13425690  1  1.193318  0  0.745585  0.624271  0  2.421982  0
Zn  Zn3  1  0.35600151  0.00429996  0.88583909  1  1.191373  0  0.737846  0.620112  0  2.393916  0
H  H4  1  0.71585347  0.97852982  0.83616205  1  0.067047  0  0.115702  0.103877  0  0.99998  0
H  H5  1  0.28352506  0.99788896  0.16811008  1  0.143249  0  0.111351  0.101419  0  1.056331  0
H  H6  1  0.84165968  0.15698256  0.35387653  1  0.097637  0  0.108076  0.090495  0  1.08052  0
H  H7  1  0.09574090  0.01522165  0.83720874  1  0.063079  0  0.115576  0.101305  0  0.999986  0
H  H8  1  0.06865797  0.76024598  0.95830215  1  0.0728  0  0.111742  0.098628  0  1.020413  0
H  H9  1  0.90997783  0.33640227  0.17197157  1  0.094117  0  0.112932  0.101268  0  1.003267  0
H  H10  1  0.30138824  0.21058667  0.01310446  1  0.029301  0  0.112539  0.099455  0  1.007594  0
H  H11  1  0.65913701  0.15472214  0.35580696  1  0.069343  0  0.114325  0.100411  0  1.02361  0
H  H12  1  0.96427198  0.51769330  0.96797856  1  0.033395  0  0.094737  0.089051  0  1.009855  0
H  H13  1  0.77681344  0.54443747  0.94177633  1  0.062073  0  0.099249  0.095471  0  0.998464  0
H  H14  1  0.59535583  0.41484375  0.77471852  1  0.086168  0  0.106633  0.110053  0  0.987748  0
H  H15  1  0.29581439  0.60825148  0.82702998  1  0.079996  0  0.113782  0.09976  0  1.007866  0
H  H16  1  0.78559239  0.23325034  0.65588980  1  0.057339  0  0.096913  0.094255  0  1.029228  0
H  H17  1  0.96813231  0.36256165  0.82315074  1  0.047928  0  0.097476  0.093209  0  1.001609  0
H  H18  1  0.63928019  0.25967840  0.50249072  1  0.036431  0  0.100685  0.110075  0  1.00937  0
H  H19  1  0.18763220  0.14456862  0.28044221  1  0.063014  0  0.107537  0.109913  0  0.981902  0
H  H20  1  0.99627646  0.00381450  0.12778272  1  0.096633  0  0.104687  0.107844  0  0.992823  0
H  H21  1  0.94678124  0.79836035  0.08140222  1  0.053781  0  0.094941  0.085696  0  1.036296  0
H  H22  1  0.08879106  0.73189427  0.18647617  1  0.035944  0  0.097273  0.091948  0  1.001742  0
H  H23  1  0.27866592  0.87300524  0.33943530  1  0.07052  0  0.106078  0.11037  0  0.980103  0
H  H24  1  0.07440731  0.99042408  0.55705467  1  0.044895  0  0.092387  0.092218  0  1.046774  0
H  H25  1  0.71573324  0.77939180  0.21560747  1  0.066421  0  0.114761  0.104584  0  1.001927  0
H  H26  1  0.02165000  0.89239498  0.66088079  1  0.066724  0  0.09268  0.08674  0  1.035355  0
H  H27  1  0.04482962  0.70833434  0.64046099  1  0.070335  0  0.102974  0.108874  0  0.991039  0
H  H28  1  0.15181432  0.70896205  0.39870324  1  0.057545  0  0.094886  0.094641  0  1.00837  0
H  H29  1  0.13181045  0.89525610  0.42142299  1  0.106442  0  0.087333  0.081132  0  1.085382  0
H  H30  1  0.97757881  0.50555853  0.34902455  1  0.053627  0  0.096296  0.097758  0  1.015785  0
H  H31  1  0.22176292  0.45012129  0.65704097  1  0.045224  0  0.098545  0.104342  0  1.006844  0
H  H32  1  0.97396659  0.31188593  0.60665959  1  0.066736  0  0.098237  0.099596  0  1.008557  0
H  H33  1  0.86149972  0.11608505  0.57109972  1  0.038745  0  0.096614  0.093568  0  1.012657  0
H  H34  1  0.86115407  0.94848626  0.43592575  1  0.076131  0  0.101996  0.099989  0  0.997968  0
H  H35  1  0.98815708  0.97728774  0.34879586  1  0.070721  0  0.098892  0.096951  0  1.012751  0
H  H36  1  0.29038391  0.07633149  0.67603346  1  0.094084  0  0.107362  0.099204  0  1.060887  0
H  H37  1  0.10015150  0.17163287  0.38562960  1  0.058334  0  0.098456  0.096195  0  1.037682  0
H  H38  1  0.38130406  0.44121243  0.08990674  1  0.027383  0  0.093524  0.092957  0  0.999495  0
H  H39  1  0.64520549  0.55219904  0.17529867  1  0.031228  0  0.095357  0.097725  0  0.996874  0
H  H40  1  0.84954655  0.74924131  0.90486759  1  0.02769  0  0.094119  0.093402  0  1.015477  0
H  H41  1  0.90591772  0.96479946  0.86896762  1  0.03137  0  0.094531  0.092744  0  1.005055  0
H  H42  1  0.34201193  0.60442231  0.05487133  1  0.048552  0  0.112608  0.099063  0  1.005152  0
H  H43  1  0.66607394  0.20840814  0.81466889  1  0.120175  0  0.11084  0.099731  0  1.037154  0
H  H44  1  0.31102194  0.82719577  0.66577993  1  0.110241  0  0.117184  0.109494  0  1.013262  0
H  H45  1  0.71221835  0.77913049  0.01705746  1  0.053801  0  0.110953  0.097791  0  1.019691  0
H  H46  1  0.67673009  0.36577673  0.15459769  1  0.097646  0  0.113478  0.099827  0  1.010232  0
C  C47  1  0.70499314  0.93867051  0.88739472  1  0.411142  0  0.003281  -0.059039  0  3.959579  0
C  C48  1  0.27152709  0.67333850  0.70016866  1  0.013354  0  -0.03639  -0.03981  0  4.064635  0
C  C49  1  0.53580312  0.64769419  0.14187063  1  -0.018577  0  -0.043897  0.008769  0  4.142607  0
C  C50  1  0.47492293  0.16005863  0.70752538  1  0.004151  0  -0.040913  -0.028987  0  4.064026  0
C  C51  1  0.58558065  0.31062320  0.11387445  1  0.354802  0  0.00635  -0.048948  0  3.933914  0
C  C52  1  0.37719937  0.02770020  0.20094863  1  0.36257  0  0.005497  -0.047012  0  3.952709  0
C  C53  1  0.84554691  0.18596590  0.29428653  1  0.429579  0  0.005092  -0.044508  0  4.005577  0
C  C54  1  0.10765822  0.95286000  0.86857781  1  0.424594  0  0.004652  -0.066113  0  4.006053  0
C  C55  1  0.09269404  0.82189707  0.92902373  1  0.398184  0  0.006742  -0.053372  0  3.973118  0
C  C56  1  0.87869941  0.27767034  0.20136600  1  0.370653  0  -2.3e-05  -0.064325  0  4.004787  0
C  C57  1  0.39432976  0.23079601  0.04185833  1  0.433352  0  0.004239  -0.060086  0  3.968076  0
C  C58  1  0.31038878  0.67714136  0.80334609  1  0.388293  0  0.004377  -0.053184  0  3.978611  0
C  C59  1  0.56892730  0.10825153  0.29549979  1  0.447915  0  0.010879  -0.038071  0  3.939849  0
C  C60  1  0.48557393  0.33806326  0.09847290  1  0.009546  0  -0.041064  0.012324  0  4.120443  0
C  C61  1  0.46624434  0.10093724  0.30609151  1  0.027997  0  -0.036339  -0.03824  0  4.037485  0
C  C62  1  0.92005361  0.28731498  0.30678866  1  -0.004491  0  -0.039958  -0.039673  0  4.076952  0
C  C63  1  0.02944033  0.88320064  0.88766091  1  0.006103  0  -0.043753  0.005715  0  4.131028  0
C  C64  1  0.77949158  0.47655532  0.87919024  1  -0.0585  0  -0.096674  -0.086994  0  4.045976  0
C  C65  1  0.67728572  0.40389645  0.78518371  1  -0.064338  0  -0.084461  -0.120892  0  3.95819  0
C  C66  1  0.67790257  0.31489869  0.70365330  1  -0.030933  0  -0.00488  0.078609  0  3.982923  0
C  C67  1  0.78428353  0.30246004  0.71830402  1  -0.048113  0  -0.094601  -0.138779  0  3.980344  0
C  C68  1  0.88671608  0.37490134  0.81266973  1  -0.03514  0  -0.100969  -0.092473  0  4.061969  0
C  C69  1  0.62159274  0.75242585  0.17375684  1  0.426878  0  0.000343  -0.071153  0  3.999754  0
C  C70  1  0.88456180  0.46180442  0.89375379  1  -0.060376  0  -0.102529  -0.104385  0  4.058626  0
C  C71  1  0.56129377  0.21629779  0.50494532  1  -0.034547  0  -0.100965  -0.203992  0  3.973462  0
C  C72  1  0.46042820  0.14201509  0.40756346  1  0.046718  0  -0.005565  0.070141  0  4.029858  0
C  C73  1  0.35790908  0.09930805  0.41492466  1  0.002976  0  -0.022154  -0.106511  0  4.00993  0
C  C74  1  0.36631966  0.12333901  0.51652655  1  0.397116  0  0.096692  0.194172  0  4.022208  0
C  C75  1  0.46929702  0.17862232  0.61352587  1  0.056679  0  -0.019253  -0.072419  0  4.028212  0
C  C76  1  0.56770176  0.23539334  0.60557321  1  0.001105  0  -0.010005  0.036201  0  3.987132  0
C  C77  1  0.16476587  0.05411698  0.26060939  1  -0.097996  0  -0.084662  -0.131306  0  3.959125  0
C  C78  1  0.05802559  0.97536064  0.17469617  1  -0.003324  0  -0.086726  -0.070951  0  3.997413  0
C  C79  1  0.03024737  0.85944206  0.14834676  1  -0.031281  0  -0.098158  -0.102042  0  4.046774  0
C  C80  1  0.38356795  0.10511935  0.72387113  1  0.457318  0  0.002986  -0.053015  0  3.976478  0
C  C81  1  0.10977527  0.82236438  0.20698908  1  -0.085998  0  -0.096916  -0.091975  0  4.054078  0
C  C82  1  0.21613568  0.90127525  0.29308616  1  -0.027487  0  -0.087339  -0.132634  0  3.975374  0
C  C83  1  0.24431429  0.01800039  0.32127556  1  -0.035608  0  -0.003676  0.095041  0  4.002636  0
C  C84  1  0.05208066  0.85357775  0.60466267  1  -0.076831  0  -0.102616  -0.09216  0  4.058238  0
C  C85  1  0.06369856  0.74968964  0.59245020  1  -0.066658  0  -0.092855  -0.131951  0  3.980778  0
C  C86  1  0.10217096  0.69813258  0.51984182  1  0.001971  0  -0.008866  0.075044  0  4.02262  0
C  C87  1  0.12356176  0.74978071  0.45633147  1  -0.10828  0  -0.100556  -0.148635  0  3.999996  0
C  C88  1  0.11266098  0.85433806  0.46930901  1  -0.117894  0  -0.103961  -0.089683  0  4.051456  0
C  C89  1  0.07976083  0.90754134  0.54524330  1  0.009644  0  -0.105621  -0.102081  0  4.042597  0
C  C90  1  0.03474191  0.49252262  0.41496108  1  -0.01295  0  -0.096513  -0.182046  0  3.99676  0
C  C91  1  0.43132454  0.66333668  0.09270159  1  0.433984  0  0.000895  -0.06291  0  3.986292  0
C  C92  1  0.01498050  0.38152357  0.40568409  1  -0.028398  0  -0.011072  0.044706  0  4.017703  0
C  C93  1  0.08113725  0.36814963  0.49766545  1  0.049558  0  -0.010814  0.020763  0  3.979154  0
C  C94  1  0.16879486  0.46329577  0.58922804  1  -0.065885  0  -0.095487  -0.182997  0  3.979115  0
C  C95  1  0.18796717  0.57482190  0.59862187  1  0.047296  0  -0.008388  0.0457  0  4.014042  0
C  C96  1  0.11363263  0.58789754  0.51019801  1  -0.05906  0  -0.010934  0.022407  0  3.993956  0
C  C97  1  0.97934647  0.23816514  0.55250934  1  -0.072365  0  -0.095892  -0.144252  0  3.986508  0
C  C98  1  0.91459699  0.12833415  0.53093281  1  -0.050812  0  -0.100997  -0.09887  0  4.055497  0
C  C99  1  0.91437073  0.03406862  0.45500971  1  -0.073151  0  -0.096022  -0.099263  0  4.038048  0
C  C100  1  0.98519878  0.05011554  0.40611445  1  -0.059702  0  -0.09134  -0.078646  0  4.01433  0
C  C101  1  0.04993677  0.15966304  0.42805511  1  -0.031169  0  -0.089693  -0.125648  0  3.980665  0
C  C102  1  0.57518923  0.17239304  0.79440788  1  0.390752  0  0.002334  -0.056298  0  3.995406  0
C  C103  1  0.04377077  0.25480375  0.49760659  1  -0.022887  0  -0.007281  0.075076  0  3.991883  0
C  C104  1  0.47132933  0.44609362  0.11593747  1  0.02997  0  -0.105027  -0.13132  0  4.071299  0
C  C105  1  0.55497701  0.54674122  0.14852621  1  -0.051016  0  -0.108424  -0.140903  0  4.072125  0
C  C106  1  0.83936559  0.82451373  0.89410295  1  -0.03819  0  -0.102654  -0.130544  0  4.050993  0
C  C107  1  0.91943882  0.89023564  0.87931648  1  -0.015557  0  -0.10511  -0.135758  0  4.073701  0
C  C108  1  0.31707190  0.78852796  0.72090581  1  0.367502  0  0.01193  -0.034811  0  3.941345  0
C  C109  1  0.70199202  0.83601633  0.97857016  1  0.414795  0  0.000801  -0.064207  0  3.955006  0
C  C110  1  0.74832057  0.85792653  0.91177724  1  0.022086  0  -0.041146  0.008166  0  4.120226  0
N  N111  1  0.64193151  0.96467844  0.93866275  1  -0.765019  0  -0.279211  -0.178864  0  3.622171  0
N  N112  1  0.42451967  0.99329186  0.13610365  1  -0.804039  0  -0.287483  -0.188527  0  3.644093  0
N  N113  1  0.76959722  0.12106769  0.19105333  1  -0.794993  0  -0.279765  -0.181955  0  3.570031  0
N  N114  1  0.20751624  0.93389933  0.89482700  1  -0.795422  0  -0.269171  -0.175684  0  3.533962  0
N  N115  1  0.19848510  0.85288758  0.93352862  1  -0.779918  0  -0.266569  -0.176006  0  3.525166  0
N  N116  1  0.78905240  0.17765734  0.13218831  1  -0.790439  0  -0.278155  -0.190642  0  3.536077  0
N  N117  1  0.43668815  0.14755135  0.02268828  1  -0.769309  0  -0.284331  -0.183829  0  3.618043  0
N  N118  1  0.54207831  0.04285801  0.19402635  1  -0.792448  0  -0.279407  -0.171742  0  3.621646  0
N  N119  1  0.36983698  0.78548651  0.87830041  1  -0.808283  0  -0.288805  -0.187435  0  3.622663  0
N  N120  1  0.57253565  0.82347346  0.14572035  1  -0.795576  0  -0.270758  -0.179799  0  3.542051  0
N  N121  1  0.42630365  0.08682428  0.81182576  1  -0.794378  0  -0.266114  -0.172744  0  3.512253  0
N  N122  1  0.45378009  0.76784775  0.09517290  1  -0.773488  0  -0.267836  -0.17621  0  3.541377  0
N  N123  1  0.54559059  0.12907786  0.85561530  1  -0.80128  0  -0.273652  -0.17138  0  3.56877  0
N  N124  1  0.37355849  0.85451734  0.82743450  1  -0.756877  0  -0.281762  -0.184993  0  3.583765  0
N  N125  1  0.64033170  0.90201671  0.99523635  1  -0.791075  0  -0.282053  -0.17923  0  3.604415  0
N  N126  1  0.55455089  0.19683310  0.06734555  1  -0.77855  0  -0.280185  -0.184065  0  3.593027  0
F  F127  1  0.26498475  0.08051926  0.51984706  1  -0.644338  0  -0.078608  -0.121131  0  1.465721  0
