# generated using pymatgen
data_ZnH18C22(NO3)2
_symmetry_space_group_name_H-M   'P 1'
_cell_length_a   9.43395318
_cell_length_b   9.71161773
_cell_length_c   11.48312133
_cell_angle_alpha   90.00021531
_cell_angle_beta   90.00011496
_cell_angle_gamma   106.76445527
_symmetry_Int_Tables_number   1
_chemical_formula_structural   ZnH18C22(NO3)2
_chemical_formula_sum   'Zn2 H36 C44 N4 O12'
_cell_volume   1007.35699537
_cell_formula_units_Z   2
loop_
 _symmetry_equiv_pos_site_id
 _symmetry_equiv_pos_as_xyz
  1  'x, y, z'
loop_
 _atom_site_type_symbol
 _atom_site_label
 _atom_site_symmetry_multiplicity
 _atom_site_fract_x
 _atom_site_fract_y
 _atom_site_fract_z
 _atom_site_occupancy
 _atom_site_hle17_bader_spin_density
 _atom_site_hle17_ddec_charge
 _atom_site_hle17_ddec_spin_density
 _atom_site_hle17_ddec_sum_bond_order
 _atom_site_hle17_magmom
 _atom_site_hse06_10hf_bader_spin_density
 _atom_site_hse06_10hf_ddec_charge
 _atom_site_hse06_10hf_ddec_spin_density
 _atom_site_hse06_10hf_ddec_sum_bond_order
 _atom_site_hse06_10hf_magmom
 _atom_site_hse06_bader_spin_density
 _atom_site_hse06_ddec_charge
 _atom_site_hse06_ddec_spin_density
 _atom_site_hse06_ddec_sum_bond_order
 _atom_site_hse06_magmom
 _atom_site_pbe_bader_spin_density
 _atom_site_pbe_cm5_charge
 _atom_site_pbe_ddec_charge
 _atom_site_pbe_ddec_spin_density
 _atom_site_pbe_ddec_sum_bond_order
 _atom_site_pbe_magmom
Zn  Zn0  1  0.75000214  0.49999940  0.91857309  1  0  1.065481  0  1.782885  0  0  0.888242  0  2.218908  0  0  0.934895  0  2.166871  0  0  0.66803  0.855374  0  2.254936  0
Zn  Zn1  1  0.24999998  0.49999881  0.08142747  1  0  1.065513  0  1.782888  0  0  0.888216  0  2.218935  0  0  0.934871  0  2.1669  0  0  0.668029  0.85535  0  2.254964  0
H  H2  1  0.69043167  0.72842178  0.88097127  1  0  0.402972  0  0.912594  0  0  0.370837  0  0.983857  0  0  0.382296  0  0.967132  0  0  0.283935  0.36274  0  0.995676  0
H  H3  1  0.80957212  0.27157573  0.88096889  1  0  0.402941  0  0.91262  0  0  0.370806  0  0.983896  0  0  0.382265  0  0.967171  0  0  0.283938  0.36271  0  0.995714  0
H  H4  1  0.30957221  0.27157530  0.11902843  1  0  0.402937  0  0.912654  0  0  0.3708  0  0.983913  0  0  0.382258  0  0.967188  0  0  0.283929  0.362703  0  0.995731  0
H  H5  1  0.19043105  0.72842245  0.11902994  1  0  0.402965  0  0.9126  0  0  0.370823  0  0.983879  0  0  0.382285  0  0.96715  0  0  0.283943  0.362725  0  0.995698  0
H  H6  1  0.56077173  0.66118352  0.97785412  1  0  0.427536  0  0.878295  0  0  0.393598  0  0.947356  0  0  0.404664  0  0.931517  0  0  0.287637  0.385839  0  0.958418  0
H  H7  1  0.93923245  0.33881453  0.97785130  1  0  0.427546  0  0.878282  0  0  0.393595  0  0.947359  0  0  0.404663  0  0.931518  0  0  0.287631  0.385835  0  0.958423  0
H  H8  1  0.43923354  0.33881461  0.02214732  1  0  0.427498  0  0.878347  0  0  0.393567  0  0.947399  0  0  0.404633  0  0.93156  0  0  0.287603  0.385806  0  0.958463  0
H  H9  1  0.06077143  0.66118255  0.02214579  1  0  0.427524  0  0.878311  0  0  0.39359  0  0.947365  0  0  0.404657  0  0.931526  0  0  0.287644  0.385832  0  0.958426  0
H  H10  1  0.88770742  0.36871704  0.71541569  1  0  0.08966  0  0.957925  0  0  0.098755  0  1.018993  0  0  0.101227  0  1.016857  0  0  0.118857  0.096953  0  1.020471  0
H  H11  1  0.61229563  0.63128930  0.71541850  1  0  0.089617  0  0.957972  0  0  0.098709  0  1.019045  0  0  0.101181  0  1.01691  0  0  0.118842  0.096908  0  1.020521  0
H  H12  1  0.11229745  0.63128976  0.28458488  1  0  0.089635  0  0.957978  0  0  0.098726  0  1.019048  0  0  0.101198  0  1.016914  0  0  0.118871  0.096925  0  1.020525  0
H  H13  1  0.38770645  0.36871541  0.28458294  1  0  0.089628  0  0.957946  0  0  0.098717  0  1.019034  0  0  0.10119  0  1.016898  0  0  0.118854  0.096915  0  1.02051  0
H  H14  1  0.88538593  0.35479882  0.49833183  1  0  0.104743  0  0.964009  0  0  0.112753  0  1.028689  0  0  0.115192  0  1.029593  0  0  0.105172  0.111459  0  1.027556  0
H  H15  1  0.61461271  0.64520856  0.49833469  1  0  0.104634  0  0.964006  0  0  0.112689  0  1.028659  0  0  0.115131  0  1.029557  0  0  0.105151  0.111394  0  1.027525  0
H  H16  1  0.11461473  0.64520808  0.50166699  1  0  0.104651  0  0.964036  0  0  0.112693  0  1.028703  0  0  0.115128  0  1.029603  0  0  0.105156  0.111398  0  1.02757  0
H  H17  1  0.38538553  0.35479407  0.50166762  1  0  0.104695  0  0.963997  0  0  0.112734  0  1.028661  0  0  0.115172  0  1.029561  0  0  0.105169  0.111439  0  1.027529  0
H  H18  1  0.70281972  0.26839534  0.33295142  1  0  0.107986  0  0.962371  0  0  0.117307  0  1.023089  0  0  0.119386  0  1.02473  0  0  0.106687  0.1154  0  1.023225  0
H  H19  1  0.79716882  0.73160485  0.33295224  1  0  0.107962  0  0.962393  0  0  0.117275  0  1.023127  0  0  0.119353  0  1.024768  0  0  0.106682  0.115368  0  1.023262  0
H  H20  1  0.29716976  0.73160641  0.66705089  1  0  0.107946  0  0.962398  0  0  0.117268  0  1.023119  0  0  0.119346  0  1.02476  0  0  0.106657  0.115361  0  1.023255  0
H  H21  1  0.20282312  0.26839468  0.66704658  1  0  0.107946  0  0.962345  0  0  0.117266  0  1.023077  0  0  0.119344  0  1.024719  0  0  0.106685  0.115361  0  1.023211  0
H  H22  1  0.70237162  0.27827077  0.11586586  1  0  0.079052  0  0.944803  0  0  0.086465  0  1.010497  0  0  0.088074  0  1.009848  0  0  0.117141  0.084901  0  1.012091  0
H  H23  1  0.79762865  0.72172792  0.11586665  1  0  0.079037  0  0.944879  0  0  0.086473  0  1.010539  0  0  0.088081  0  1.009892  0  0  0.117133  0.084908  0  1.012133  0
H  H24  1  0.29762489  0.72172649  0.88413732  1  0  0.079049  0  0.944777  0  0  0.086456  0  1.010473  0  0  0.088064  0  1.009824  0  0  0.117126  0.084891  0  1.012069  0
H  H25  1  0.20237207  0.27826924  0.88413217  1  0  0.079046  0  0.944813  0  0  0.086459  0  1.010501  0  0  0.088068  0  1.009853  0  0  0.11714  0.084895  0  1.012097  0
H  H26  1  0.12407543  0.91805932  0.04572172  1  0  0.107141  0  0.942861  0  0  0.119278  0  0.999569  0  0  0.122511  0  0.99811  0  0  0.108662  0.116688  0  1.001131  0
H  H27  1  0.37592894  0.08193583  0.04572494  1  0  0.107136  0  0.942848  0  0  0.119275  0  0.999546  0  0  0.122539  0  0.99805  0  0  0.108655  0.116685  0  1.001109  0
H  H28  1  0.87592599  0.08193674  0.95427537  1  0  0.107145  0  0.942858  0  0  0.119288  0  0.999553  0  0  0.122534  0  0.998079  0  0  0.108665  0.116698  0  1.001117  0
H  H29  1  0.62407283  0.91806130  0.95427563  1  0  0.10712  0  0.942871  0  0  0.119259  0  0.999576  0  0  0.122521  0  0.998081  0  0  0.108646  0.116671  0  1.001136  0
H  H30  1  0.98708599  0.84771048  0.64226222  1  0  0.101807  0  0.962709  0  0  0.11013  0  1.026326  0  0  0.11353  0  1.024985  0  0  0.100097  0.107946  0  1.026876  0
H  H31  1  0.51291188  0.15229015  0.64226419  1  0  0.101857  0  0.962658  0  0  0.110162  0  1.026297  0  0  0.113562  0  1.024953  0  0  0.100096  0.107979  0  1.026847  0
H  H32  1  0.01291331  0.15228887  0.35773748  1  0  0.101807  0  0.96272  0  0  0.110132  0  1.026339  0  0  0.113531  0  1.024997  0  0  0.100097  0.107948  0  1.02689  0
H  H33  1  0.48708777  0.84771028  0.35773376  1  0  0.101873  0  0.962647  0  0  0.110185  0  1.026274  0  0  0.113582  0  1.024933  0  0  0.10011  0.108  0  1.026824  0
H  H34  1  0.11839209  0.92564865  0.45523669  1  0  0.094482  0  0.939171  0  0  0.109321  0  0.990086  0  0  0.112314  0  0.988979  0  0  0.102593  0.107146  0  0.990935  0
H  H35  1  0.38160621  0.07435437  0.45523816  1  0  0.09447  0  0.939164  0  0  0.10931  0  0.990082  0  0  0.112301  0  0.988972  0  0  0.102607  0.107134  0  0.990932  0
H  H36  1  0.88160756  0.07435178  0.54476214  1  0  0.094424  0  0.939224  0  0  0.109294  0  0.990108  0  0  0.112285  0  0.988999  0  0  0.102591  0.10712  0  0.990954  0
H  H37  1  0.61839167  0.92564718  0.54476067  1  0  0.094492  0  0.939183  0  0  0.109333  0  0.9901  0  0  0.112324  0  0.988989  0  0  0.102606  0.107158  0  0.990951  0
C  C38  1  0.82519562  0.42503610  0.66392625  1  0  0.139216  0  3.692152  0  0  0.107993  0  3.942511  0  0  0.115153  0  3.960107  0  0  0.048149  0.103385  0  3.92985  0
C  C39  1  0.67480861  0.57497100  0.66392897  1  0  0.139167  0  3.692238  0  0  0.107913  0  3.942653  0  0  0.115072  0  3.960251  0  0  0.048088  0.103305  0  3.929989  0
C  C40  1  0.17481064  0.57497176  0.33607432  1  0  0.13921  0  3.69222  0  0  0.107946  0  3.942621  0  0  0.115104  0  3.960219  0  0  0.048047  0.103338  0  3.929955  0
C  C41  1  0.32519207  0.42503265  0.33607508  1  0  0.13926  0  3.692147  0  0  0.10799  0  3.942563  0  0  0.115147  0  3.960164  0  0  0.048089  0.103381  0  3.929897  0
C  C42  1  0.82488285  0.41919736  0.54295303  1  0  -0.172469  0  3.727264  0  0  -0.188574  0  3.97496  0  0  -0.196572  0  3.996675  0  0  -0.085823  -0.183708  0  3.959688  0
C  C43  1  0.67511773  0.58080915  0.54295491  1  0  -0.172258  0  3.727264  0  0  -0.188381  0  3.974943  0  0  -0.196376  0  3.996658  0  0  -0.085788  -0.183519  0  3.959676  0
C  C44  1  0.17512026  0.58081057  0.45704841  1  0  -0.172323  0  3.727266  0  0  -0.18846  0  3.974946  0  0  -0.196448  0  3.99665  0  0  -0.08579  -0.183597  0  3.959679  0
C  C45  1  0.32487980  0.41919458  0.45704915  1  0  -0.172417  0  3.727264  0  0  -0.188552  0  3.974947  0  0  -0.196545  0  3.996657  0  0  -0.085803  -0.183687  0  3.959679  0
C  C46  1  0.74999841  0.50000258  0.47972290  1  0  0.094153  0  3.779995  0  0  0.105698  0  4.009464  0  0  0.109824  0  4.030292  0  0  0.010189  0.103663  0  3.994852  0
C  C47  1  0.24999911  0.50000115  0.52027941  1  0  0.094051  0  3.780158  0  0  0.105666  0  4.00955  0  0  0.109799  0  4.03036  0  0  0.010147  0.103628  0  3.994939  0
C  C48  1  0.74999817  0.49999897  0.35126567  1  0  0.095351  0  3.776303  0  0  0.105765  0  4.009562  0  0  0.109856  0  4.031164  0  0  0.011287  0.103374  0  3.992639  0
C  C49  1  0.25000079  0.49999931  0.64873403  1  0  0.095452  0  3.776308  0  0  0.105845  0  4.009559  0  0  0.109932  0  4.031163  0  0  0.011322  0.103456  0  3.992635  0
C  C50  1  0.72440826  0.37147424  0.28839839  1  0  -0.162559  0  3.688608  0  0  -0.178736  0  3.934228  0  0  -0.186849  0  3.955588  0  0  -0.080186  -0.172648  0  3.919465  0
C  C51  1  0.77558185  0.62852458  0.28839710  1  0  -0.16253  0  3.688596  0  0  -0.178712  0  3.93422  0  0  -0.186824  0  3.955581  0  0  -0.080223  -0.172624  0  3.919455  0
C  C52  1  0.27558123  0.62852427  0.71160479  1  0  -0.162587  0  3.688562  0  0  -0.178773  0  3.934187  0  0  -0.186887  0  3.955549  0  0  -0.080196  -0.172686  0  3.919424  0
C  C53  1  0.22441080  0.37147385  0.71160347  1  0  -0.162487  0  3.68848  0  0  -0.178666  0  3.934107  0  0  -0.18678  0  3.95547  0  0  -0.080179  -0.17258  0  3.919346  0
C  C54  1  0.72411464  0.37637350  0.16738513  1  0  0.159329  0  3.682789  0  0  0.126049  0  3.937069  0  0  0.134411  0  3.953303  0  0  0.055765  0.12066  0  3.926334  0
C  C55  1  0.77588198  0.62362665  0.16738557  1  0  0.159311  0  3.682847  0  0  0.126031  0  3.937099  0  0  0.13439  0  3.953337  0  0  0.055788  0.120643  0  3.926362  0
C  C56  1  0.27587977  0.62362380  0.83261631  1  0  0.159312  0  3.682728  0  0  0.126047  0  3.936996  0  0  0.134408  0  3.95323  0  0  0.055779  0.12066  0  3.926261  0
C  C57  1  0.22411488  0.37637169  0.83261500  1  0  0.159286  0  3.682804  0  0  0.126005  0  3.937083  0  0  0.134366  0  3.953319  0  0  0.055735  0.120617  0  3.92635  0
C  C58  1  0.17791090  0.95264112  0.96250391  1  0  -0.081276  0  3.761978  0  0  -0.108413  0  4.022377  0  0  -0.109036  0  4.041655  0  0  -0.091195  -0.107857  0  4.010001  0
C  C59  1  0.32208920  0.04735389  0.96250519  1  0  -0.081279  0  3.762071  0  0  -0.108409  0  4.022469  0  0  -0.109053  0  4.041732  0  0  -0.091192  -0.107855  0  4.010092  0
C  C60  1  0.82208877  0.04735606  0.03749492  1  0  -0.081296  0  3.762026  0  0  -0.108432  0  4.022423  0  0  -0.109064  0  4.041695  0  0  -0.09119  -0.107881  0  4.010049  0
C  C61  1  0.67790976  0.95264439  0.03749450  1  0  -0.081264  0  3.762001  0  0  -0.108381  0  4.022414  0  0  -0.109023  0  4.041675  0  0  -0.091191  -0.107826  0  4.010039  0
C  C62  1  0.10379911  0.90692676  0.85925049  1  0  -0.099453  0  3.729508  0  0  -0.083659  0  3.970878  0  0  -0.088709  0  3.990578  0  0  -0.015359  -0.080897  0  3.95894  0
C  C63  1  0.39620404  0.09307192  0.85925553  1  0  -0.099514  0  3.729541  0  0  -0.08373  0  3.970925  0  0  -0.088778  0  3.990633  0  0  -0.015368  -0.080963  0  3.95898  0
C  C64  1  0.89620370  0.09307359  0.14074746  1  0  -0.099488  0  3.729505  0  0  -0.083679  0  3.970877  0  0  -0.088727  0  3.990581  0  0  -0.01535  -0.080912  0  3.958933  0
C  C65  1  0.60379666  0.90692848  0.14074591  1  0  -0.099481  0  3.729459  0  0  -0.083728  0  3.970944  0  0  -0.088778  0  3.990653  0  0  -0.015384  -0.080962  0  3.959002  0
C  C66  1  0.17455488  0.95477099  0.75041262  1  0  0.037889  0  3.754151  0  0  0.048155  0  3.980127  0  0  0.048287  0  4.004405  0  0  -0.00629  0.047259  0  3.966558  0
C  C67  1  0.32544431  0.04522934  0.75041303  1  0  0.037883  0  3.754033  0  0  0.048155  0  3.980015  0  0  0.048286  0  4.004293  0  0  -0.006306  0.047257  0  3.966445  0
C  C68  1  0.82544406  0.04523054  0.24958620  1  0  0.037885  0  3.753927  0  0  0.048146  0  3.979946  0  0  0.048279  0  4.004225  0  0  -0.006326  0.04725  0  3.966374  0
C  C69  1  0.67455429  0.95477111  0.24958492  1  0  0.037987  0  3.753857  0  0  0.048216  0  3.979937  0  0  0.048348  0  4.004214  0  0  -0.006251  0.047319  0  3.966364  0
C  C70  1  0.10230419  0.91333346  0.64174170  1  0  -0.126285  0  3.755311  0  0  -0.1464  0  4.00953  0  0  -0.148621  0  4.028842  0  0  -0.095485  -0.145564  0  3.997346  0
C  C71  1  0.39769665  0.08666622  0.64174236  1  0  -0.126367  0  3.755265  0  0  -0.146477  0  4.009492  0  0  -0.148695  0  4.028798  0  0  -0.095494  -0.145641  0  3.997307  0
C  C72  1  0.89769545  0.08666697  0.35825800  1  0  -0.126321  0  3.755267  0  0  -0.146439  0  4.009513  0  0  -0.148662  0  4.028824  0  0  -0.095495  -0.145607  0  3.99733  0
C  C73  1  0.60230439  0.91333526  0.35825647  1  0  -0.126359  0  3.755275  0  0  -0.14644  0  4.009505  0  0  -0.148661  0  4.028815  0  0  -0.095489  -0.145606  0  3.997319  0
C  C74  1  0.17538117  0.95694220  0.53797736  1  0  -0.078532  0  3.8015  0  0  -0.093308  0  4.056112  0  0  -0.094544  0  4.076427  0  0  -0.096273  -0.091957  0  4.041781  0
C  C75  1  0.32461852  0.04306126  0.53797776  1  0  -0.078383  0  3.801432  0  0  -0.093151  0  4.056025  0  0  -0.09438  0  4.076335  0  0  -0.096249  -0.091802  0  4.041697  0
C  C76  1  0.82461847  0.04305824  0.46202234  1  0  -0.078384  0  3.801463  0  0  -0.093178  0  4.056067  0  0  -0.094408  0  4.076379  0  0  -0.096245  -0.091827  0  4.04174  0
C  C77  1  0.67537971  0.95694137  0.46202194  1  0  -0.078518  0  3.801556  0  0  -0.093298  0  4.056167  0  0  -0.094527  0  4.076478  0  0  -0.09627  -0.091947  0  4.04184  0
C  C78  1  0.95067380  0.80400466  0.86571094  1  0  0.663206  0  3.882791  0  0  0.605826  0  4.188649  0  0  0.639706  0  4.180462  0  0  0.213645  0.583121  0  4.193163  0
C  C79  1  0.54932994  0.19598951  0.86571312  1  0  0.663188  0  3.882658  0  0  0.605836  0  4.18852  0  0  0.639713  0  4.180334  0  0  0.213607  0.583128  0  4.193036  0
C  C80  1  0.04932936  0.19599352  0.13428527  1  0  0.663197  0  3.882591  0  0  0.60579  0  4.188498  0  0  0.639668  0  4.180312  0  0  0.213597  0.583084  0  4.193013  0
C  C81  1  0.45067254  0.80400651  0.13428658  1  0  0.663125  0  3.882695  0  0  0.60572  0  4.188617  0  0  0.639597  0  4.180432  0  0  0.213571  0.583013  0  4.193132  0
N  N82  1  0.75000067  0.50000213  0.72438286  1  0  -0.311169  0  3.204004  0  0  -0.237135  0  3.4642  0  0  -0.254555  0  3.480895  0  0  -0.312076  -0.225037  0  3.452083  0
N  N83  1  0.25000001  0.50000152  0.27562032  1  0  -0.311154  0  3.203919  0  0  -0.237066  0  3.464093  0  0  -0.254487  0  3.480791  0  0  -0.311998  -0.22497  0  3.451975  0
N  N84  1  0.75000117  0.49999929  0.10746610  1  0  -0.316042  0  3.236926  0  0  -0.235909  0  3.49478  0  0  -0.253386  0  3.508874  0  0  -0.315972  -0.223899  0  3.484616  0
N  N85  1  0.24999921  0.49999679  0.89253447  1  0  -0.316009  0  3.236951  0  0  -0.235857  0  3.494772  0  0  -0.253337  0  3.50887  0  0  -0.315942  -0.223849  0  3.484611  0
O  O86  1  0.94078663  0.68635568  0.92185402  1  0  -0.668286  0  2.090277  0  0  -0.59035  0  2.340868  0  0  -0.620258  0  2.330601  0  0  -0.313278  -0.569443  0  2.347522  0
O  O87  1  0.55921981  0.31363658  0.92185920  1  0  -0.668201  0  2.090177  0  0  -0.590362  0  2.340846  0  0  -0.62028  0  2.33059  0  0  -0.313254  -0.569456  0  2.34751  0
O  O88  1  0.05921796  0.31364030  0.07814046  1  0  -0.668306  0  2.090286  0  0  -0.590334  0  2.34086  0  0  -0.620249  0  2.330604  0  0  -0.313263  -0.569429  0  2.347523  0
O  O89  1  0.44078724  0.68635717  0.07814485  1  0  -0.668282  0  2.090282  0  0  -0.590326  0  2.340881  0  0  -0.620238  0  2.330622  0  0  -0.313258  -0.569421  0  2.347539  0
O  O90  1  0.84372459  0.83697524  0.81991500  1  0  -0.599821  0  1.931619  0  0  -0.549657  0  2.147894  0  0  -0.573218  0  2.138623  0  0  -0.3114  -0.532867  0  2.153598  0
O  O91  1  0.65627792  0.16301871  0.81991550  1  0  -0.599828  0  1.931497  0  0  -0.549619  0  2.147727  0  0  -0.57318  0  2.138457  0  0  -0.311388  -0.53283  0  2.153433  0
O  O92  1  0.15627579  0.16302084  0.18008383  1  0  -0.599804  0  1.931429  0  0  -0.549616  0  2.1477  0  0  -0.573175  0  2.138428  0  0  -0.311379  -0.532827  0  2.153404  0
O  O93  1  0.34372280  0.83697845  0.18008071  1  0  -0.599776  0  1.931512  0  0  -0.549575  0  2.147784  0  0  -0.573136  0  2.138512  0  0  -0.311354  -0.532785  0  2.153487  0
O  O94  1  0.61472180  0.63902967  0.90871874  1  0  -0.840251  0  1.953993  0  0  -0.78072  0  2.170495  0  0  -0.802282  0  2.13617  0  0  -0.583733  -0.765306  0  2.194375  0
O  O95  1  0.88528033  0.36096912  0.90871765  1  0  -0.840223  0  1.953962  0  0  -0.780704  0  2.170518  0  0  -0.802268  0  2.136194  0  0  -0.583733  -0.765288  0  2.194399  0
O  O96  1  0.38528031  0.36096854  0.09128096  1  0  -0.840195  0  1.954041  0  0  -0.780665  0  2.170542  0  0  -0.80223  0  2.136227  0  0  -0.583708  -0.76525  0  2.194424  0
O  O97  1  0.11472039  0.63902803  0.09128118  1  0  -0.840236  0  1.954  0  0  -0.780708  0  2.170526  0  0  -0.802274  0  2.136201  0  0  -0.583744  -0.765295  0  2.194408  0
