# generated using pymatgen
data_Zr6H19C50Cl10O32F
_symmetry_space_group_name_H-M   'P 1'
_cell_length_a   14.79959355
_cell_length_b   14.78339176
_cell_length_c   14.84860018
_cell_angle_alpha   60.06639366
_cell_angle_beta   59.85325533
_cell_angle_gamma   60.23992223
_symmetry_Int_Tables_number   1
_chemical_formula_structural   Zr6H19C50Cl10O32F
_chemical_formula_sum   'Zr6 H19 C50 Cl10 O32 F1'
_cell_volume   2299.89354976
_cell_formula_units_Z   1
loop_
 _symmetry_equiv_pos_site_id
 _symmetry_equiv_pos_as_xyz
  1  'x, y, z'
loop_
 _atom_site_type_symbol
 _atom_site_label
 _atom_site_symmetry_multiplicity
 _atom_site_fract_x
 _atom_site_fract_y
 _atom_site_fract_z
 _atom_site_occupancy
 _atom_site_pbe_bader_charge
 _atom_site_pbe_bader_spin_density
 _atom_site_pbe_cm5_charge
 _atom_site_pbe_ddec_charge
 _atom_site_pbe_ddec_spin_density
 _atom_site_pbe_ddec_sum_bond_order
 _atom_site_pbe_magmom
Zr  Zr0  1  0.87845484  0.88319147  0.61633571  1  2.636482  0  1.629462  2.376102  0  2.759918  0
Zr  Zr1  1  0.12315963  0.11680311  0.38283008  1  2.636878  0  1.633738  2.380038  0  2.762695  0
Zr  Zr2  1  0.11679566  0.87867974  0.62134427  1  2.634627  0  1.626392  2.376499  0  2.747748  0
Zr  Zr3  1  0.88426525  0.12235452  0.37789210  1  2.637351  0  1.624341  2.375055  0  2.740787  0
Zr  Zr4  1  0.11967339  0.88092089  0.38040821  1  2.639375  0  1.629095  2.380695  0  2.754069  0
Zr  Zr5  1  0.88113055  0.11967605  0.61907503  1  2.637322  0  1.62634  2.380258  0  2.74534  0
H  H6  1  0.08951992  0.71843791  0.59371837  1  0.591951  0  0.332216  0.424901  0  0.854467  0
H  H7  1  0.09872976  0.09447982  0.21822547  1  0.588414  0  0.331976  0.425131  0  0.853611  0
H  H8  1  0.09445233  0.09058435  0.59744273  1  0.596387  0  0.33187  0.425351  0  0.852623  0
H  H9  1  0.71865171  0.09829494  0.58965995  1  0.589425  0  0.331107  0.424004  0  0.854544  0
H  H10  1  0.14747926  0.58409783  0.37393062  1  0.156381  0  0.110088  0.128927  0  1.012892  0
H  H11  1  0.83681822  0.43609668  0.60147280  1  0.117196  0  0.105711  0.125031  0  1.02979  0
H  H12  1  0.62547758  0.10239465  0.93492097  1  0.144514  0  0.106448  0.125529  0  1.026581  0
H  H13  1  0.38799811  0.88317508  0.07648471  1  0.124451  0  0.108572  0.127148  0  1.016031  0
H  H14  1  0.84725697  0.12122332  0.10973976  1  0.148544  0  0.108519  0.126116  0  1.019522  0
H  H15  1  0.13492081  0.86042712  0.90889966  1  0.152267  0  0.112784  0.132565  0  1.002908  0
H  H16  1  0.59895444  0.41149274  0.35779220  1  0.129766  0  0.111057  0.1279  0  1.013396  0
H  H17  1  0.42236133  0.61032510  0.62081112  1  0.15513  0  0.110282  0.130224  0  1.011111  0
H  H18  1  0.13168201  0.60157167  0.92038568  1  0.120984  0  0.116607  0.1488  0  0.981238  0
H  H19  1  0.73589890  0.62112777  0.97394667  1  0.060351  0  0.093311  0.105057  0  1.001217  0
H  H20  1  0.82390617  0.53635924  0.88887966  1  0.073512  0  0.095645  0.1067  0  0.990553  0
H  H21  1  0.83347012  0.36635989  0.05884859  1  0.046437  0  0.098724  0.111918  0  0.979848  0
H  H22  1  0.74524587  0.45126283  0.14387186  1  0.057776  0  0.097979  0.11132  0  0.987497  0
H  H23  1  0.60400603  0.85777388  0.62717642  1  0.157372  0  0.104283  0.124891  0  1.029338  0
H  H24  1  0.41364419  0.12634373  0.35603636  1  0.121412  0  0.105833  0.12732  0  1.025789  0
C  C25  1  0.98759339  0.70602519  0.49427317  1  1.601828  0  0.237264  0.652284  0  4.091198  0
C  C26  1  0.31170944  0.99580909  0.20434316  1  1.570275  0  0.236985  0.6514  0  4.09177  0
C  C27  1  0.00362035  0.30493438  0.49353470  1  1.587588  0  0.237923  0.652997  0  4.087277  0
C  C28  1  0.69755194  0.99529419  0.80317854  1  1.573359  0  0.237786  0.652607  0  4.09022  0
C  C29  1  0.99076746  0.70238150  0.80705067  1  1.547223  0  0.237413  0.645343  0  4.101808  0
C  C30  1  0.70257988  0.00393561  0.48615263  1  1.591902  0  0.237473  0.653265  0  4.082224  0
C  C31  1  0.00129615  0.30760995  0.20252636  1  1.561002  0  0.236562  0.663918  0  4.103503  0
C  C32  1  0.30853137  0.98666178  0.50361041  1  1.577664  0  0.237447  0.653432  0  4.082612  0
C  C33  1  0.30663453  0.70009161  0.49240536  1  1.591432  0  0.23697  0.650781  0  4.087065  0
C  C34  1  0.98772838  0.99671007  0.81112999  1  1.574468  0  0.236466  0.649875  0  4.088608  0
C  C35  1  0.70564116  0.31209208  0.49590297  1  1.598943  0  0.236589  0.651542  0  4.086525  0
C  C36  1  0.00219320  0.99373152  0.19888947  1  1.575568  0  0.236801  0.651133  0  4.087081  0
C  C37  1  0.00212377  0.41021759  0.48649004  1  0.001405  0  -0.011233  -0.070751  0  3.911613  0
C  C38  1  0.98363354  0.60798074  0.49185373  1  -0.055249  0  -0.012235  -0.072713  0  3.915544  0
C  C39  1  0.09036448  0.45367623  0.41996897  1  0.032364  0  0.022864  0.13571  0  4.009037  0
C  C40  1  0.89419606  0.56635080  0.55556255  1  0.094296  0  0.021561  0.135092  0  4.010639  0
C  C41  1  0.07931343  0.55091616  0.42398306  1  0.047705  0  -0.0843  -0.150088  0  3.954154  0
C  C42  1  0.90518810  0.46899392  0.55195323  1  0.07418  0  -0.084995  -0.150238  0  3.955778  0
C  C43  1  0.41433629  0.99555300  0.10444229  1  0.059654  0  -0.011823  -0.071989  0  3.912697  0
C  C44  1  0.59856109  0.99081534  0.90649420  1  -0.035726  0  -0.012214  -0.071855  0  3.913702  0
C  C45  1  0.48278532  0.05774695  0.06403978  1  0.04888  0  0.023714  0.137362  0  4.006224  0
C  C46  1  0.53083234  0.92764876  0.94753957  1  0.073299  0  0.021589  0.134283  0  4.010771  0
C  C47  1  0.57262938  0.05439012  0.96657313  1  0.041407  0  -0.083558  -0.147061  0  3.947785  0
C  C48  1  0.44095053  0.93105650  0.04493128  1  0.03432  0  -0.084924  -0.151941  0  3.958712  0
C  C49  1  0.98353329  0.99617263  0.91470049  1  0.05093  0  -0.011028  -0.072274  0  3.90802  0
C  C50  1  0.00011648  0.98725277  0.10218933  1  0.019141  0  -0.011503  -0.071127  0  3.905896  0
C  C51  1  0.90076805  0.06983702  0.97352318  1  0.046723  0  0.02199  0.135753  0  4.005813  0
C  C52  1  0.08125891  0.91149716  0.04532488  1  0.121259  0  0.023123  0.136545  0  4.005218  0
C  C53  1  0.91072046  0.06406906  0.06487524  1  -0.061268  0  -0.085174  -0.151554  0  3.95577  0
C  C54  1  0.07152134  0.91766940  0.95365395  1  -0.004428  0  -0.083886  -0.149542  0  3.951955  0
C  C55  1  0.41256227  0.60405234  0.48531896  1  -0.021658  0  -0.01046  -0.071346  0  3.904444  0
C  C56  1  0.60748260  0.41626130  0.49474064  1  -0.007663  0  -0.011356  -0.072709  0  3.907953  0
C  C57  1  0.46510736  0.54813623  0.40853314  1  0.006468  0  0.021958  0.136621  0  4.007497  0
C  C58  1  0.55734890  0.47478720  0.56874060  1  0.059131  0  0.023085  0.137356  0  4.004874  0
C  C59  1  0.55997496  0.45611222  0.41523649  1  0.065591  0  -0.085152  -0.153225  0  3.960257  0
C  C60  1  0.46170520  0.56609480  0.56293697  1  0.064161  0  -0.08364  -0.148812  0  3.94934  0
C  C61  1  0.98844711  0.60563774  0.91051316  1  -0.037732  0  -0.009083  -0.050785  0  3.981397  0
C  C62  1  0.99682474  0.41087959  0.10597808  1  0.029121  0  -0.019809  -0.195935  0  3.952508  0
C  C63  1  0.91112717  0.55139493  0.96387506  1  0.004272  0  -0.00793  0.046378  0  3.884571  0
C  C64  1  0.07269473  0.46892542  0.05195384  1  0.404667  0  0.108541  0.283032  0  4.036743  0
C  C65  1  0.91611564  0.45752544  0.05793010  1  -0.010697  0  6.8e-05  0.085209  0  3.88833  0
C  C66  1  0.06953658  0.56226280  0.95805351  1  0.080818  0  -0.095409  -0.234649  0  3.974467  0
C  C67  1  0.81068949  0.54947329  0.96176744  1  -0.034749  0  -0.150372  -0.193187  0  3.870019  0
C  C68  1  0.81645159  0.44308421  0.06819301  1  0.007351  0  -0.149173  -0.194398  0  3.86423  0
C  C69  1  0.41276103  0.98343320  0.50094977  1  -0.01016  0  -0.011213  -0.071868  0  3.903618  0
C  C70  1  0.60432127  0.00121543  0.48288001  1  0.041917  0  -0.011925  -0.072215  0  3.905128  0
C  C71  1  0.46851256  0.90557000  0.57761239  1  0.052356  0  0.021731  0.138041  0  4.006135  0
C  C72  1  0.55055234  0.07709165  0.40426682  1  0.054617  0  0.022578  0.13892  0  4.004349  0
C  C73  1  0.56166718  0.91646343  0.56748037  1  0.01894  0  -0.08725  -0.154076  0  3.967879  0
C  C74  1  0.45644230  0.06716874  0.41530468  1  0.04086  0  -0.086406  -0.153537  0  3.962795  0
Cl  Cl75  1  0.21539632  0.39302675  0.33408786  1  -0.165008  0  0.00511  -0.055291  0  1.519486  0
Cl  Cl76  1  0.76801152  0.62933357  0.63876511  1  -0.174192  0  0.006309  -0.060905  0  1.553058  0
Cl  Cl77  1  0.46469738  0.13824183  0.12874568  1  -0.174984  0  0.008253  -0.055308  0  1.547508  0
Cl  Cl78  1  0.54896615  0.84683848  0.88285522  1  -0.187548  0  0.004599  -0.063033  0  1.529598  0
Cl  Cl79  1  0.78439180  0.16967639  0.94058341  1  -0.176604  0  0.005885  -0.059838  0  1.532293  0
Cl  Cl80  1  0.19608518  0.80952951  0.07995545  1  -0.175723  0  0.00248  -0.060333  0  1.509361  0
Cl  Cl81  1  0.41950878  0.58446069  0.30455022  1  -0.17918  0  0.00146  -0.06133  0  1.505093  0
Cl  Cl82  1  0.60636470  0.44146203  0.66900561  1  -0.178362  0  0.007442  -0.05792  0  1.532753  0
Cl  Cl83  1  0.42932176  0.79488024  0.68630731  1  -0.17963  0  0.002569  -0.060497  0  1.515318  0
Cl  Cl84  1  0.59302230  0.18452807  0.29241895  1  -0.170585  0  0.002354  -0.061026  0  1.516839  0
O  O85  1  0.91432481  0.74343503  0.57294193  1  -1.175137  0  -0.358219  -0.619662  0  2.353135  0
O  O86  1  0.26989804  0.07324872  0.24311890  1  -1.174409  0  -0.356915  -0.61538  0  2.351518  0
O  O87  1  0.08205002  0.26066371  0.42134047  1  -1.183082  0  -0.358724  -0.61594  0  2.370422  0
O  O88  1  0.73706881  0.92119873  0.76069399  1  -1.166913  0  -0.360229  -0.620989  0  2.365386  0
O  O89  1  0.07024704  0.73985916  0.76507329  1  -1.179512  0  -0.365787  -0.625859  0  2.295584  0
O  O90  1  0.74185286  0.08186333  0.41315363  1  -1.1725  0  -0.357699  -0.620795  0  2.344459  0
O  O91  1  0.92554861  0.26689577  0.23846326  1  -1.176049  0  -0.361344  -0.621809  0  2.275462  0
O  O92  1  0.26425893  0.91371470  0.58155393  1  -1.177093  0  -0.35802  -0.621646  0  2.345208  0
O  O93  1  0.26324941  0.73847125  0.41966584  1  -1.178771  0  -0.35938  -0.620758  0  2.360877  0
O  O94  1  0.91540525  0.07494128  0.76734822  1  -1.174117  0  -0.358441  -0.620823  0  2.352334  0
O  O95  1  0.74306937  0.26791295  0.57448577  1  -1.178457  0  -0.357642  -0.620138  0  2.353968  0
O  O96  1  0.07930487  0.92036484  0.23793763  1  -1.179195  0  -0.358994  -0.620074  0  2.364228  0
O  O97  1  0.06562084  0.92009405  0.77254970  1  -1.177048  0  -0.344326  -0.606403  0  2.265503  0
O  O98  1  0.74281434  0.27342662  0.41937051  1  -1.181308  0  -0.345507  -0.609589  0  2.267843  0
O  O99  1  0.92719726  0.07338117  0.23429861  1  -1.171428  0  -0.345565  -0.60928  0  2.265876  0
O  O100  1  0.26651240  0.73550045  0.57202487  1  -1.176617  0  -0.345009  -0.606649  0  2.264335  0
O  O101  1  0.91587721  0.73957565  0.76664105  1  -1.163597  0  -0.340834  -0.595668  0  2.246052  0
O  O102  1  0.27025317  0.06491451  0.42740920  1  -1.182671  0  -0.348489  -0.608765  0  2.300503  0
O  O103  1  0.07818127  0.26540340  0.24158899  1  -1.166179  0  -0.34857  -0.605611  0  2.29806  0
O  O104  1  0.73863827  0.92782157  0.56457148  1  -1.183184  0  -0.349298  -0.60945  0  2.304857  0
O  O105  1  0.73531236  0.07306797  0.76531047  1  -1.171222  0  -0.346249  -0.605925  0  2.272572  0
O  O106  1  0.06708868  0.74239246  0.41930149  1  -1.189652  0  -0.347978  -0.607951  0  2.282222  0
O  O107  1  0.27146452  0.92020863  0.24102322  1  -1.178735  0  -0.3477  -0.608258  0  2.279783  0
O  O108  1  0.92635570  0.26672067  0.57189983  1  -1.186382  0  -0.348442  -0.608971  0  2.270821  0
O  O109  1  0.79882010  0.07064621  0.56388024  1  -1.217377  0  -0.693157  -1.066878  0  2.357834  0
O  O110  1  0.06763787  0.06444290  0.57020700  1  -1.222527  0  -0.694143  -1.069285  0  2.358  0
O  O111  1  0.07106063  0.06706387  0.29828025  1  -1.217456  0  -0.694659  -1.070895  0  2.364375  0
O  O112  1  0.06437564  0.79852141  0.56667519  1  -1.219649  0  -0.694595  -1.070631  0  2.361586  0
O  O113  1  0.14913041  0.94831601  0.45248789  1  -1.199782  0  -0.792181  -1.150384  0  2.129854  0
O  O114  1  0.95083876  0.95303033  0.44797941  1  -1.201225  0  -0.790939  -1.14884  0  2.129136  0
O  O115  1  0.95343412  0.14867572  0.45052304  1  -1.195489  0  -0.791201  -1.150802  0  2.133666  0
O  O116  1  0.94844255  0.95081532  0.64822791  1  -1.198713  0  -0.791015  -1.150396  0  2.130041  0
F  F117  1  0.15432617  0.43350485  0.09090665  1  -0.624761  0  -0.100021  -0.1385  0  1.363904  0
