# generated using pymatgen
data_TbH12C15(SO3)3
_symmetry_space_group_name_H-M   'P 1'
_cell_length_a   8.06218920
_cell_length_b   9.18746884
_cell_length_c   13.36459756
_cell_angle_alpha   81.92070549
_cell_angle_beta   74.76600352
_cell_angle_gamma   74.34950972
_symmetry_Int_Tables_number   1
_chemical_formula_structural   TbH12C15(SO3)3
_chemical_formula_sum   'Tb2 H24 C30 S6 O18'
_cell_volume   917.14470368
_cell_formula_units_Z   2
loop_
 _symmetry_equiv_pos_site_id
 _symmetry_equiv_pos_as_xyz
  1  'x, y, z'
loop_
 _atom_site_type_symbol
 _atom_site_label
 _atom_site_symmetry_multiplicity
 _atom_site_fract_x
 _atom_site_fract_y
 _atom_site_fract_z
 _atom_site_occupancy
 _atom_site_hle17_bader_spin_density
 _atom_site_hle17_ddec_charge
 _atom_site_hle17_ddec_spin_density
 _atom_site_hle17_ddec_sum_bond_order
 _atom_site_hle17_magmom
 _atom_site_hse06_10hf_bader_spin_density
 _atom_site_hse06_10hf_ddec_charge
 _atom_site_hse06_10hf_ddec_spin_density
 _atom_site_hse06_10hf_ddec_sum_bond_order
 _atom_site_hse06_10hf_magmom
 _atom_site_hse06_bader_spin_density
 _atom_site_hse06_ddec_charge
 _atom_site_hse06_ddec_spin_density
 _atom_site_hse06_ddec_sum_bond_order
 _atom_site_hse06_magmom
 _atom_site_pbe_bader_spin_density
 _atom_site_pbe_cm5_charge
 _atom_site_pbe_ddec_charge
 _atom_site_pbe_ddec_spin_density
 _atom_site_pbe_ddec_sum_bond_order
 _atom_site_pbe_magmom
Tb  Tb0  1  0.77622998  0.30218707  0.99995064  1  0  2.28977  0  1.651123  0  0  2.148577  0  2.117559  0  0  2.262645  0  1.945512  0  0  1.501865  2.114141  0  2.150092  0
Tb  Tb1  1  0.22376142  0.69781781  0.00004813  1  0  2.289811  0  1.65098  0  0  2.14872  0  2.117231  0  0  2.262693  0  1.945356  0  0  1.501855  2.114232  0  2.149857  0
H  H2  1  0.96839980  0.01539474  0.89854485  1  0  0.430815  0  0.872584  0  0  0.402321  0  0.933169  0  0  0.411821  0  0.919618  0  0  0.301649  0.395382  0  0.943381  0
H  H3  1  0.03159993  0.98461243  0.10145538  1  0  0.430864  0  0.872525  0  0  0.402379  0  0.933092  0  0  0.411879  0  0.919541  0  0  0.30168  0.395439  0  0.943307  0
H  H4  1  0.79210213  0.98349328  0.97661282  1  0  0.42862  0  0.879607  0  0  0.395122  0  0.946966  0  0  0.407113  0  0.929744  0  0  0.296309  0.386606  0  0.959406  0
H  H5  1  0.20789088  0.01651499  0.02338311  1  0  0.428493  0  0.87978  0  0  0.395101  0  0.946984  0  0  0.407088  0  0.929769  0  0  0.29633  0.386584  0  0.959425  0
H  H6  1  0.14436347  0.32074070  0.28011087  1  0  0.118337  0  0.94664  0  0  0.125963  0  1.011982  0  0  0.128843  0  1.010208  0  0  0.109308  0.124  0  1.012906  0
H  H7  1  0.85563302  0.67926875  0.71989189  1  0  0.118323  0  0.946657  0  0  0.125963  0  1.011982  0  0  0.128835  0  1.010216  0  0  0.109303  0.124  0  1.012905  0
H  H8  1  0.11077836  0.59790488  0.52523161  1  0  0.105069  0  0.985768  0  0  0.116523  0  1.048454  0  0  0.118666  0  1.048935  0  0  0.094457  0.114994  0  1.048232  0
H  H9  1  0.88921243  0.40208865  0.47476689  1  0  0.105053  0  0.985783  0  0  0.116486  0  1.048495  0  0  0.118644  0  1.048936  0  0  0.094432  0.114971  0  1.04826  0
H  H10  1  0.18545967  0.18317784  0.46238338  1  0  0.108885  0  0.972293  0  0  0.114786  0  1.040991  0  0  0.117482  0  1.040773  0  0  0.098608  0.112896  0  1.041211  0
H  H11  1  0.81453719  0.81683044  0.53761420  1  0  0.108848  0  0.972245  0  0  0.114736  0  1.040964  0  0  0.117425  0  1.040753  0  0  0.098595  0.112841  0  1.041198  0
H  H12  1  0.15614580  0.70339874  0.32765399  1  0  0.109227  0  0.95884  0  0  0.11421  0  1.028836  0  0  0.117495  0  1.026365  0  0  0.105262  0.111845  0  1.030478  0
H  H13  1  0.84384692  0.29658800  0.67234562  1  0  0.109332  0  0.958986  0  0  0.114319  0  1.028951  0  0  0.117606  0  1.026479  0  0  0.105296  0.111946  0  1.030602  0
H  H14  1  0.61636113  0.16468265  0.53823918  1  0  0.0997  0  0.978947  0  0  0.106114  0  1.049001  0  0  0.108703  0  1.048664  0  0  0.091942  0.104191  0  1.049367  0
H  H15  1  0.38364849  0.83532572  0.46176761  1  0  0.099738  0  0.978947  0  0  0.106101  0  1.049055  0  0  0.108677  0  1.048744  0  0  0.091922  0.104177  0  1.04942  0
H  H16  1  0.56299481  0.06482417  0.73608071  1  0  0.117164  0  0.930984  0  0  0.130318  0  0.986197  0  0  0.133325  0  0.984288  0  0  0.110871  0.128229  0  0.987237  0
H  H17  1  0.43699399  0.93516716  0.26392729  1  0  0.117199  0  0.930931  0  0  0.130343  0  0.986161  0  0  0.13335  0  0.984252  0  0  0.110888  0.128253  0  0.987199  0
H  H18  1  0.50504027  0.20719468  0.15184658  1  0  0.41812  0  0.846132  0  0  0.393192  0  0.915985  0  0  0.401598  0  0.907386  0  0  0.313046  0.387243  0  0.92275  0
H  H19  1  0.49496976  0.79280795  0.84815024  1  0  0.418061  0  0.846235  0  0  0.39313  0  0.9161  0  0  0.401537  0  0.9075  0  0  0.313037  0.387181  0  0.922865  0
H  H20  1  0.55316841  0.06845685  0.08356129  1  0  0.444681  0  0.846599  0  0  0.41523  0  0.905985  0  0  0.42614  0  0.890285  0  0  0.306853  0.407658  0  0.916967  0
H  H21  1  0.44682588  0.93153333  0.91644298  1  0  0.444779  0  0.846462  0  0  0.415336  0  0.90584  0  0  0.426248  0  0.890135  0  0  0.306924  0.407765  0  0.916821  0
H  H22  1  0.67943451  0.64945854  0.95976219  1  0  0.458102  0  0.818965  0  0  0.429503  0  0.877846  0  0  0.439505  0  0.863387  0  0  0.317276  0.422424  0  0.888331  0
H  H23  1  0.32056806  0.35054755  0.04024444  1  0  0.458057  0  0.818879  0  0  0.429449  0  0.877896  0  0  0.43945  0  0.863441  0  0  0.317227  0.42237  0  0.888382  0
H  H24  1  0.88734822  0.59409180  0.91379709  1  0  0.455282  0  0.841192  0  0  0.424627  0  0.903013  0  0  0.436072  0  0.886526  0  0  0.304159  0.416486  0  0.914918  0
H  H25  1  0.11265278  0.40590634  0.08620832  1  0  0.455249  0  0.841242  0  0  0.424612  0  0.903039  0  0  0.436061  0  0.886543  0  0  0.304156  0.416471  0  0.914945  0
C  C26  1  0.08388050  0.22913718  0.31965876  1  0  -0.066503  0  3.746166  0  0  -0.097606  0  4.009054  0  0  -0.094094  0  4.025169  0  0  -0.092432  -0.099359  0  3.996934  0
C  C27  1  0.91612667  0.77086655  0.68033541  1  0  -0.066461  0  3.745997  0  0  -0.097586  0  4.008893  0  0  -0.094067  0  4.02501  0  0  -0.092436  -0.099337  0  3.996772  0
C  C28  1  0.91687020  0.21840273  0.18150168  1  0  0.650453  0  3.970266  0  0  0.600085  0  4.264776  0  0  0.634424  0  4.260585  0  0  0.193201  0.57584  0  4.271757  0
C  C29  1  0.08313859  0.78159534  0.81849205  1  0  0.650355  0  3.970413  0  0  0.599987  0  4.264902  0  0  0.63433  0  4.2607  0  0  0.19319  0.575742  0  4.271883  0
C  C30  1  0.44496999  0.53039482  0.17921270  1  0  0.734669  0  3.923074  0  0  0.684509  0  4.216446  0  0  0.721722  0  4.207779  0  0  0.225775  0.659514  0  4.224444  0
C  C31  1  0.55503588  0.46959081  0.82078871  1  0  0.734687  0  3.923077  0  0  0.684379  0  4.216728  0  0  0.721586  0  4.208065  0  0  0.225695  0.659382  0  4.224731  0
C  C32  1  0.21399151  0.54319688  0.46205332  1  0  -0.139532  0  3.745563  0  0  -0.162373  0  4.003771  0  0  -0.166759  0  4.024457  0  0  -0.113591  -0.159989  0  3.990158  0
C  C33  1  0.78600732  0.45680005  0.53794209  1  0  -0.139594  0  3.745326  0  0  -0.162401  0  4.003556  0  0  -0.166782  0  4.024249  0  0  -0.1136  -0.160035  0  3.989931  0
C  C34  1  0.97452330  0.17290687  0.27878837  1  0  -0.142237  0  3.723992  0  0  -0.126304  0  3.994079  0  0  -0.133241  0  4.011907  0  0  -0.024856  -0.121309  0  3.981109  0
C  C35  1  0.02547742  0.82710593  0.72120591  1  0  -0.142306  0  3.723897  0  0  -0.126352  0  3.993947  0  0  -0.133291  0  4.011774  0  0  -0.024857  -0.121359  0  3.980984  0
C  C36  1  0.38204610  0.51154299  0.29276974  1  0  -0.164825  0  3.716202  0  0  -0.14413  0  3.977357  0  0  -0.152464  0  3.996071  0  0  -0.02666  -0.138407  0  3.963708  0
C  C37  1  0.61796165  0.48846307  0.70723084  1  0  -0.164837  0  3.716172  0  0  -0.144191  0  3.977495  0  0  -0.152508  0  3.996191  0  0  -0.026661  -0.13847  0  3.963846  0
C  C38  1  0.00849810  0.04571065  0.45135290  1  0  -0.01625  0  3.794342  0  0  -0.003452  0  4.052258  0  0  -0.00223  0  4.075149  0  0  -0.014912  -0.00415  0  4.036559  0
C  C39  1  0.99150587  0.95428628  0.54864095  1  0  -0.016288  0  3.794183  0  0  -0.00349  0  4.052085  0  0  -0.002271  0  4.074975  0  0  -0.014941  -0.00419  0  4.036393  0
C  C40  1  0.10497646  0.15584615  0.41712271  1  0  -0.137178  0  3.748907  0  0  -0.156654  0  4.005445  0  0  -0.160394  0  4.024551  0  0  -0.10731  -0.154097  0  3.992131  0
C  C41  1  0.89502493  0.84415531  0.58287184  1  0  -0.136984  0  3.74878  0  0  -0.156441  0  4.005301  0  0  -0.160171  0  4.024406  0  0  -0.107178  -0.153885  0  3.991983  0
C  C42  1  0.22383928  0.20091530  0.87260727  1  0  0.724059  0  3.8807  0  0  0.669497  0  4.179376  0  0  0.706479  0  4.168097  0  0  0.228435  0.644625  0  4.18714  0
C  C43  1  0.77615338  0.79908508  0.12739624  1  0  0.724168  0  3.88042  0  0  0.669552  0  4.179132  0  0  0.706533  0  4.167853  0  0  0.228404  0.644681  0  4.186891  0
C  C44  1  0.30587788  0.22734452  0.76156660  1  0  -0.151729  0  3.707433  0  0  -0.139847  0  3.98552  0  0  -0.146631  0  4.003122  0  0  -0.024443  -0.135365  0  3.973187  0
C  C45  1  0.69411027  0.77265813  0.23843814  1  0  -0.151806  0  3.707774  0  0  -0.139863  0  3.985771  0  0  -0.146642  0  4.00337  0  0  -0.024387  -0.13538  0  3.973435  0
C  C46  1  0.23833778  0.60051560  0.35725128  1  0  -0.060372  0  3.770195  0  0  -0.088944  0  4.02894  0  0  -0.085674  0  4.046451  0  0  -0.09271  -0.09094  0  4.016803  0
C  C47  1  0.76166743  0.39948137  0.64274985  1  0  -0.060531  0  3.770172  0  0  -0.089063  0  4.028905  0  0  -0.085804  0  4.046411  0  0  -0.09275  -0.091052  0  4.016782  0
C  C48  1  0.49629946  0.20645065  0.59703483  1  0  -0.133557  0  3.764041  0  0  -0.155003  0  4.024711  0  0  -0.158778  0  4.045608  0  0  -0.111547  -0.152284  0  4.010135  0
C  C49  1  0.50369899  0.79354293  0.40296920  1  0  -0.133426  0  3.764038  0  0  -0.154825  0  4.024663  0  0  -0.158594  0  4.045544  0  0  -0.111427  -0.152108  0  4.010087  0
C  C50  1  0.46801641  0.15301816  0.70272053  1  0  -0.059827  0  3.746976  0  0  -0.091972  0  4.011961  0  0  -0.089395  0  4.029419  0  0  -0.093341  -0.093096  0  3.99864  0
C  C51  1  0.53198941  0.84698112  0.29728477  1  0  -0.05989  0  3.747299  0  0  -0.092054  0  4.012267  0  0  -0.089476  0  4.029721  0  0  -0.09346  -0.093177  0  3.998939  0
C  C52  1  0.34044821  0.41050954  0.47820436  1  0  -0.012647  0  3.805009  0  0  -0.001252  0  4.068014  0  0  0.000735  0  4.090344  0  0  -0.01698  -0.002497  0  4.053109  0
C  C53  1  0.65956595  0.58949653  0.52179745  1  0  -0.012527  0  3.805022  0  0  -0.001192  0  4.068086  0  0  0.000791  0  4.090417  0  0  -0.016974  -0.002419  0  4.053164  0
C  C54  1  0.35646333  0.32392073  0.57544350  1  0  -0.033499  0  3.823017  0  0  -0.022293  0  4.087885  0  0  -0.021659  0  4.111265  0  0  -0.022328  -0.022871  0  4.072361  0
C  C55  1  0.64354059  0.67608077  0.42455664  1  0  -0.03371  0  3.823163  0  0  -0.022439  0  4.087945  0  0  -0.021804  0  4.111325  0  0  -0.022383  -0.023021  0  4.072414  0
S  S56  1  0.18923988  0.36393765  0.68661238  1  0  0.156091  0  2.608151  0  0  0.156213  0  2.938855  0  0  0.154624  0  2.948379  0  0  0.112913  0.156559  0  2.932635  0
S  S57  1  0.81075797  0.63605816  0.31338553  1  0  0.156126  0  2.608246  0  0  0.156208  0  2.938903  0  0  0.154613  0  2.948427  0  0  0.112902  0.156553  0  2.932683  0
S  S58  1  0.48797826  0.35706498  0.36199105  1  0  0.131667  0  2.587525  0  0  0.131415  0  2.909108  0  0  0.13004  0  2.918506  0  0  0.095349  0.132943  0  2.901449  0
S  S59  1  0.51203848  0.64293656  0.63801156  1  0  0.131694  0  2.587714  0  0  0.131492  0  2.909327  0  0  0.130116  0  2.918717  0  0  0.095398  0.133018  0  2.901662  0
S  S60  1  0.89871343  0.02910695  0.35987778  1  0  0.156967  0  2.575316  0  0  0.157817  0  2.893728  0  0  0.156815  0  2.902108  0  0  0.114794  0.158743  0  2.887082  0
S  S61  1  0.10128537  0.97089906  0.64011823  1  0  0.156982  0  2.575332  0  0  0.15783  0  2.893726  0  0  0.156832  0  2.902107  0  0  0.11477  0.158755  0  2.887083  0
O  O62  1  0.84180955  0.13095686  0.15087104  1  0  -0.733444  0  2.032848  0  0  -0.680332  0  2.276113  0  0  -0.710926  0  2.264058  0  0  -0.381097  -0.663279  0  2.283582  0
O  O63  1  0.15821016  0.86903895  0.84912270  1  0  -0.733378  0  2.032798  0  0  -0.680301  0  2.276112  0  0  -0.710888  0  2.264062  0  0  -0.381064  -0.66324  0  2.283584  0
O  O64  1  0.84524621  0.06504708  0.93162553  1  0  -0.931537  0  1.886666  0  0  -0.882318  0  2.080915  0  0  -0.910839  0  2.044283  0  0  -0.66416  -0.868405  0  2.103411  0
O  O65  1  0.15475323  0.93495667  0.06837209  1  0  -0.931489  0  1.886721  0  0  -0.882342  0  2.080812  0  0  -0.910853  0  2.0442  0  0  -0.66421  -0.868426  0  2.103319  0
O  O66  1  0.57015508  0.42409016  0.13613684  1  0  -0.769248  0  2.115683  0  0  -0.712381  0  2.380504  0  0  -0.747614  0  2.365408  0  0  -0.41311  -0.694491  0  2.38876  0
O  O67  1  0.42984081  0.57588983  0.86387117  1  0  -0.769284  0  2.115756  0  0  -0.712335  0  2.380586  0  0  -0.747566  0  2.365519  0  0  -0.413067  -0.694437  0  2.388849  0
O  O68  1  0.93825021  0.34117012  0.12829772  1  0  -0.670117  0  2.04301  0  0  -0.614951  0  2.277221  0  0  -0.646143  0  2.267267  0  0  -0.340158  -0.597639  0  2.28396  0
O  O69  1  0.06173928  0.65883700  0.87169739  1  0  -0.670091  0  2.043131  0  0  -0.614942  0  2.277354  0  0  -0.64612  0  2.267401  0  0  -0.34022  -0.597628  0  2.284097  0
O  O70  1  0.31624565  0.11170006  0.93027103  1  0  -0.618666  0  1.977264  0  0  -0.548211  0  2.182075  0  0  -0.573173  0  2.169137  0  0  -0.29599  -0.530552  0  2.190177  0
O  O71  1  0.68373615  0.88830251  0.06972424  1  0  -0.6189  0  1.977085  0  0  -0.548329  0  2.181862  0  0  -0.573302  0  2.168935  0  0  -0.29602  -0.530676  0  2.189977  0
O  O72  1  0.06089034  0.27054196  0.90439432  1  0  -0.764708  0  2.022782  0  0  -0.707488  0  2.287517  0  0  -0.743921  0  2.268888  0  0  -0.426386  -0.689433  0  2.29695  0
O  O73  1  0.93909486  0.72947545  0.09561316  1  0  -0.764581  0  2.022691  0  0  -0.707374  0  2.287424  0  0  -0.743785  0  2.268807  0  0  -0.426293  -0.689313  0  2.296859  0
O  O74  1  0.51742185  0.18166174  0.08131978  1  0  -0.868162  0  1.876343  0  0  -0.818152  0  2.063874  0  0  -0.843867  0  2.034091  0  0  -0.600027  -0.804819  0  2.082637  0
O  O75  1  0.48258340  0.81833068  0.91867805  1  0  -0.86817  0  1.876368  0  0  -0.818186  0  2.063889  0  0  -0.843882  0  2.034087  0  0  -0.60005  -0.804848  0  2.082655  0
O  O76  1  0.36975919  0.64801917  0.13067694  1  0  -0.727533  0  2.019642  0  0  -0.674746  0  2.27627  0  0  -0.710768  0  2.260531  0  0  -0.411894  -0.657021  0  2.284453  0
O  O77  1  0.63026020  0.35196871  0.86931913  1  0  -0.727482  0  2.019695  0  0  -0.674609  0  2.276379  0  0  -0.710643  0  2.260633  0  0  -0.411884  -0.656893  0  2.28456  0
O  O78  1  0.77661623  0.55845856  0.94495388  1  0  -0.936102  0  1.829689  0  0  -0.887699  0  2.028748  0  0  -0.915756  0  1.990387  0  0  -0.648151  -0.874383  0  2.052047  0
O  O79  1  0.22337805  0.44154520  0.05504679  1  0  -0.936091  0  1.829714  0  0  -0.887723  0  2.028824  0  0  -0.915766  0  1.990467  0  0  -0.648133  -0.8744  0  2.052129  0
