# generated using pymatgen
data_MnH6C6(NO3)2
_symmetry_space_group_name_H-M   'P 1'
_cell_length_a   6.86768157
_cell_length_b   10.85230325
_cell_length_c   11.37871971
_cell_angle_alpha   103.71299702
_cell_angle_beta   107.50056749
_cell_angle_gamma   90.03625298
_symmetry_Int_Tables_number   1
_chemical_formula_structural   MnH6C6(NO3)2
_chemical_formula_sum   'Mn4 H24 C24 N8 O24'
_cell_volume   783.37915895
_cell_formula_units_Z   4
loop_
 _symmetry_equiv_pos_site_id
 _symmetry_equiv_pos_as_xyz
  1  'x, y, z'
loop_
 _atom_site_type_symbol
 _atom_site_label
 _atom_site_symmetry_multiplicity
 _atom_site_fract_x
 _atom_site_fract_y
 _atom_site_fract_z
 _atom_site_occupancy
 _atom_site_hle17_ddec_charge
 _atom_site_hle17_ddec_spin_density
 _atom_site_hle17_ddec_sum_bond_order
 _atom_site_hle17_magmom
 _atom_site_hse06_10hf_ddec_charge
 _atom_site_hse06_10hf_ddec_spin_density
 _atom_site_hse06_10hf_ddec_sum_bond_order
 _atom_site_hse06_10hf_magmom
 _atom_site_hse06_ddec_charge
 _atom_site_hse06_ddec_spin_density
 _atom_site_hse06_ddec_sum_bond_order
 _atom_site_hse06_magmom
 _atom_site_pbe_cm5_charge
 _atom_site_pbe_ddec_charge
 _atom_site_pbe_ddec_spin_density
 _atom_site_pbe_ddec_sum_bond_order
 _atom_site_pbe_magmom
Mn  Mn0  1  0.52516104  0.27335473  0.74035539  1  1.146653  -4.799042  1.764271  -4.675  0.982633  -4.714752  2.249266  -4.519  1.035863  -4.765777  2.18255  -4.593  0.607961  0.94626  -4.650551  2.298191  -4.433
Mn  Mn1  1  0.78525638  0.22647465  0.25953954  1  1.147359  -4.794737  1.76541  -4.674  0.983966  -4.709026  2.250513  -4.518  1.036892  -4.760654  2.183769  -4.592  0.609211  0.948008  -4.643911  2.299299  -4.43
Mn  Mn2  1  0.47483584  0.72664859  0.25964922  1  1.146711  -4.799057  1.764293  -4.675  0.982658  -4.714748  2.249297  -4.519  1.035889  -4.765774  2.18258  -4.593  0.607975  0.946287  -4.650541  2.298222  -4.433
Mn  Mn3  1  0.21474780  0.77352580  0.74046226  1  1.147306  -4.794739  1.765409  -4.674  0.983935  -4.709022  2.250518  -4.518  1.036863  -4.760656  2.183767  -4.592  0.609203  0.947963  -4.643897  2.299336  -4.43
H  H4  1  0.15077194  0.33880085  0.66040671  1  0.416946  0.000273  0.878599  0.0  0.383636  -0.000514  0.954105  -0.001  0.39463  -0.000238  0.938393  -0.001  0.292972  0.376292  -0.000782  0.964519  -0.001
H  H5  1  0.49028853  0.16132509  0.33959946  1  0.417921  0.000276  0.878479  0.0  0.384686  -0.000515  0.952878  -0.001  0.395687  -0.000238  0.93715  -0.001  0.29337  0.37733  -0.000784  0.963317  -0.001
H  H6  1  0.84922085  0.66120625  0.33959271  1  0.416944  0.000273  0.878573  0.0  0.383612  -0.000514  0.954141  -0.001  0.394607  -0.000238  0.938425  -0.001  0.292944  0.376269  -0.000782  0.964555  -0.001
H  H7  1  0.50970815  0.83867628  0.66039677  1  0.417887  0.000274  0.878512  0.0  0.384664  -0.000515  0.952902  -0.001  0.395665  -0.000238  0.937174  -0.001  0.293351  0.377306  -0.000784  0.963343  -0.001
H  H8  1  0.21500943  0.39118773  0.81691227  1  0.428068  0.000132  0.874792  -0.001  0.394793  -0.000551  0.941501  -0.001  0.406615  -0.000319  0.924637  -0.001  0.295098  0.386627  -0.000757  0.953068  -0.002
H  H9  1  0.39816964  0.10916538  0.18306382  1  0.429266  0.000126  0.873124  -0.001  0.395693  -0.000561  0.940521  -0.001  0.40756  -0.000327  0.92357  -0.001  0.295144  0.38749  -0.00077  0.952155  -0.002
H  H10  1  0.78498477  0.60881842  0.18308809  1  0.428121  0.000132  0.874724  -0.001  0.394845  -0.000551  0.941434  -0.001  0.406668  -0.000319  0.92457  -0.001  0.295126  0.386681  -0.000757  0.953  -0.002
H  H11  1  0.60183115  0.89083220  0.81693320  1  0.429287  0.000126  0.873087  -0.001  0.395716  -0.000561  0.940479  -0.001  0.407585  -0.000327  0.923522  -0.001  0.295169  0.387514  -0.00077  0.952111  -0.002
H  H12  1  0.45534162  0.05649021  0.79324178  1  0.419095  0.000762  0.876468  0.0  0.390452  0.000139  0.946184  -0.001  0.399818  0.000382  0.932695  -0.001  0.296625  0.38407  -0.000106  0.955272  -0.001
H  H13  1  0.66205582  0.44320571  0.20688971  1  0.418783  0.000776  0.876266  0.0  0.390457  0.000158  0.945858  -0.001  0.399766  0.000395  0.93245  -0.001  0.29693  0.384182  -8.1e-05  0.954784  -0.001
H  H14  1  0.54465306  0.94350738  0.20675677  1  0.419056  0.000762  0.876484  0.0  0.390414  0.000139  0.946225  -0.001  0.399785  0.000382  0.932731  -0.001  0.296616  0.384031  -0.000106  0.955314  -0.001
H  H15  1  0.33795012  0.55679666  0.79311459  1  0.418678  0.000776  0.876355  0.0  0.39038  0.000158  0.945938  -0.001  0.399688  0.000395  0.932532  -0.001  0.296922  0.384105  -8.2e-05  0.954868  -0.001
H  H16  1  0.57100613  0.13397679  0.93312087  1  0.424872  7.3e-05  0.876854  -0.001  0.394576  -0.000569  0.938593  -0.002  0.405837  -0.000259  0.922525  -0.002  0.295614  0.386727  -0.000861  0.949707  -0.003
H  H17  1  0.63769136  0.36586387  0.06685896  1  0.42476  8.7e-05  0.87708  -0.001  0.394624  -0.000549  0.938554  -0.002  0.405847  -0.000246  0.922557  -0.002  0.295885  0.386816  -0.000835  0.949593  -0.003
H  H18  1  0.42898395  0.86602081  0.06688035  1  0.424839  7.3e-05  0.876881  -0.001  0.394529  -0.000569  0.938652  -0.002  0.405793  -0.000259  0.922579  -0.002  0.2956  0.386682  -0.000861  0.949762  -0.003
H  H19  1  0.36231786  0.63414041  0.93314724  1  0.424792  8.7e-05  0.877024  -0.001  0.394644  -0.000549  0.938518  -0.002  0.405872  -0.000246  0.922516  -0.002  0.295905  0.386835  -0.000835  0.949556  -0.003
H  H20  1  0.34926993  0.92624731  0.47124565  1  0.111903  6.9e-05  0.951279  0.0  0.113372  -0.000365  1.022281  -0.001  0.117462  -0.000132  1.018306  -0.001  0.129802  0.110165  -0.000623  1.025698  -0.001
H  H21  1  0.87809979  0.57374765  0.52855364  1  0.109674  6.9e-05  0.95394  0.0  0.111536  -0.000359  1.024494  -0.001  0.115542  -0.000131  1.020642  -0.001  0.12906  0.108338  -0.000608  1.027858  -0.001
H  H22  1  0.65073979  0.07376072  0.52875093  1  0.111885  7.3e-05  0.951258  0.0  0.113365  -0.000365  1.022279  -0.001  0.117453  -0.000132  1.018306  -0.001  0.129807  0.110159  -0.000623  1.025695  -0.001
H  H23  1  0.12191017  0.42624994  0.47144507  1  0.109645  6.5e-05  0.954041  0.0  0.111525  -0.000359  1.024577  -0.001  0.115531  -0.00013  1.020715  -0.001  0.129011  0.108326  -0.000607  1.02794  -0.001
H  H24  1  0.04300196  0.78708507  0.08653811  1  0.101755  -0.000122  0.962657  0.0  0.10129  -0.000702  1.039017  -0.001  0.105669  -0.000498  1.033545  0.0  0.126367  0.097921  -0.000887  1.043511  -0.001
H  H25  1  0.95528808  0.71308303  0.91323629  1  0.101852  -0.000163  0.964386  0.0  0.101761  -0.000791  1.040303  -0.001  0.106191  -0.000555  1.034698  -0.001  0.126337  0.098264  -0.001019  1.045014  -0.001
H  H26  1  0.95698118  0.21290589  0.91346565  1  0.101672  -0.000137  0.962798  0.0  0.101341  -0.000702  1.038949  -0.001  0.105718  -0.000497  1.033473  0.0  0.126397  0.097966  -0.000887  1.043452  -0.001
H  H27  1  0.04472327  0.28691364  0.08676685  1  0.101863  -0.000173  0.964283  0.0  0.101708  -0.000792  1.040272  -0.001  0.106152  -0.000555  1.034648  -0.001  0.126318  0.098228  -0.001019  1.044939  -0.001
C  C28  1  0.15757480  0.14565826  0.51028004  1  0.625845  -0.006475  3.930497  -0.006  0.568094  -0.011795  4.234523  -0.01  0.602972  -0.008324  4.228367  -0.008  0.216806  0.544232  -0.015913  4.238018  -0.013
C  C29  1  0.64773464  0.35407649  0.48978176  1  0.622562  -0.006687  3.932812  -0.007  0.564008  -0.012213  4.236848  -0.01  0.59893  -0.008575  4.230524  -0.008  0.214886  0.54006  -0.016536  4.240571  -0.013
C  C30  1  0.84242388  0.85434690  0.48971476  1  0.626108  -0.006492  3.930215  -0.006  0.568237  -0.011795  4.23443  -0.01  0.603112  -0.008325  4.22827  -0.008  0.216897  0.544378  -0.015912  4.237922  -0.013
C  C31  1  0.35226321  0.64592204  0.51021669  1  0.62262  -0.006688  3.932756  -0.006  0.564089  -0.012215  4.236786  -0.01  0.59901  -0.008577  4.230463  -0.008  0.214902  0.540136  -0.01654  4.24051  -0.013
C  C32  1  0.12073575  0.04445959  0.38810361  1  0.074495  -0.000313  3.682689  -0.001  0.078057  -0.004587  3.9364  -0.004  0.075037  -0.002209  3.951838  -0.002  0.126696  0.078402  -0.00792  3.92889  -0.005
C  C33  1  0.73305792  0.45526190  0.61187942  1  0.073055  -0.000341  3.683587  -0.001  0.078276  -0.004867  3.93434  -0.004  0.075406  -0.00229  3.949526  -0.002  0.126689  0.078439  -0.008593  3.927085  -0.006
C  C34  1  0.87926715  0.95554275  0.61189573  1  0.074557  -0.000296  3.682503  -0.001  0.078112  -0.004587  3.936363  -0.004  0.075097  -0.002214  3.951797  -0.002  0.126707  0.078455  -0.007918  3.928846  -0.005
C  C35  1  0.26694440  0.54473569  0.38811965  1  0.073045  -0.000388  3.683599  -0.001  0.078284  -0.004867  3.934352  -0.004  0.075412  -0.002288  3.949538  -0.002  0.126677  0.078453  -0.008593  3.927101  -0.006
C  C36  1  0.23494137  0.93794769  0.38574577  1  0.10824  -0.004662  3.604053  -0.005  0.066332  -0.008037  3.865637  -0.006  0.074086  -0.005501  3.876897  -0.005  0.072231  0.060208  -0.012053  3.860493  -0.009
C  C37  1  0.84925181  0.56194288  0.61410165  1  0.108871  -0.00472  3.605528  -0.005  0.066929  -0.008116  3.865504  -0.006  0.074747  -0.005573  3.876671  -0.005  0.071643  0.060842  -0.012074  3.860489  -0.009
C  C38  1  0.76505860  0.06205559  0.61425237  1  0.108228  -0.004675  3.603852  -0.005  0.066275  -0.008037  3.865577  -0.006  0.074027  -0.005491  3.876842  -0.005  0.07222  0.060147  -0.012052  3.860435  -0.009
C  C39  1  0.15075507  0.43805474  0.38590177  1  0.108948  -0.004678  3.605627  -0.005  0.066959  -0.008116  3.865636  -0.006  0.074784  -0.005576  3.876796  -0.005  0.071693  0.060871  -0.012072  3.860629  -0.009
C  C40  1  0.06734506  0.86201725  0.17287366  1  0.128239  -0.005376  3.582928  -0.005  0.085966  -0.009571  3.842846  -0.007  0.09545  -0.006472  3.850961  -0.005  0.080879  0.078048  -0.014805  3.840467  -0.011
C  C41  1  0.89401748  0.63798324  0.82699450  1  0.126583  -0.005416  3.584435  -0.005  0.084271  -0.009634  3.844941  -0.007  0.093909  -0.006507  3.852743  -0.005  0.080029  0.076223  -0.014864  3.842992  -0.011
C  C42  1  0.93264338  0.13797938  0.82712529  1  0.128218  -0.005312  3.582915  -0.005  0.085944  -0.00957  3.842728  -0.007  0.09544  -0.006465  3.85084  -0.005  0.080856  0.078018  -0.0148  3.840364  -0.011
C  C43  1  0.10599998  0.36201343  0.17300889  1  0.126699  -0.005353  3.584146  -0.005  0.084451  -0.009636  3.84457  -0.007  0.094076  -0.006515  3.852365  -0.005  0.08011  0.076407  -0.014865  3.842629  -0.011
C  C44  1  0.95638287  0.96976673  0.17372827  1  0.077033  0.000428  3.691793  0.0  0.080025  -0.004399  3.943079  -0.004  0.078776  -0.002278  3.956776  -0.002  0.131981  0.078964  -0.007142  3.936977  -0.005
C  C45  1  0.78241867  0.53010042  0.82626418  1  0.078366  0.000686  3.690386  0.0  0.08048  -0.004176  3.942931  -0.003  0.07928  -0.0021  3.956542  -0.002  0.131973  0.079408  -0.006908  3.936884  -0.005
C  C46  1  0.04360992  0.03022803  0.82627370  1  0.076963  0.000416  3.691855  0.0  0.080068  -0.004399  3.942985  -0.004  0.078799  -0.002281  3.956706  -0.002  0.131995  0.079002  -0.007143  3.936886  -0.005
C  C47  1  0.21759292  0.46989813  0.17373679  1  0.078238  0.000623  3.690469  0.0  0.080371  -0.004175  3.942953  -0.003  0.07917  -0.002093  3.956566  -0.002  0.131976  0.079301  -0.006908  3.936915  -0.005
C  C48  1  0.81084422  0.99277833  0.05342743  1  0.637876  -0.001346  3.911792  -0.002  0.575219  -0.00403  4.221409  -0.004  0.609525  -0.002663  4.214628  -0.003  0.223649  0.55218  -0.005506  4.225003  -0.005
C  C49  1  0.75696497  0.50700092  0.94662576  1  0.636174  -0.001296  3.911318  -0.002  0.573754  -0.003981  4.220885  -0.004  0.607947  -0.002619  4.214178  -0.003  0.223849  0.550813  -0.005474  4.224422  -0.005
C  C50  1  0.18915821  0.00722022  0.94657274  1  0.63799  -0.001352  3.911709  -0.002  0.575212  -0.004031  4.221433  -0.004  0.609524  -0.002666  4.214655  -0.003  0.223612  0.552187  -0.005508  4.225018  -0.005
C  C51  1  0.24304214  0.49299860  0.05337812  1  0.636324  -0.001286  3.911193  -0.002  0.573905  -0.003979  4.220735  -0.004  0.608097  -0.002618  4.214026  -0.003  0.22395  0.550962  -0.005472  4.224272  -0.005
N  N52  1  0.98188943  0.06014275  0.28180032  1  -0.287857  -0.028728  3.207446  -0.017  -0.245006  -0.037249  3.476091  -0.021  -0.252621  -0.030551  3.487261  -0.015  -0.28226  -0.241337  -0.048312  3.471617  -0.031
N  N53  1  0.70033446  0.43954485  0.71828148  1  -0.286748  -0.028999  3.206283  -0.017  -0.244256  -0.037768  3.474548  -0.021  -0.251836  -0.030808  3.485704  -0.015  -0.281951  -0.240648  -0.049178  3.470095  -0.032
N  N54  1  0.01810853  0.93985675  0.71820013  1  -0.287918  -0.028746  3.207578  -0.017  -0.245079  -0.037247  3.476193  -0.021  -0.252693  -0.030547  3.487374  -0.015  -0.282276  -0.241403  -0.048306  3.471709  -0.031
N  N55  1  0.29967079  0.56045180  0.28171967  1  -0.286728  -0.028961  3.206437  -0.017  -0.244265  -0.037769  3.474701  -0.021  -0.251845  -0.030809  3.485857  -0.015  -0.281969  -0.240659  -0.049177  3.470253  -0.032
N  N56  1  0.20820853  0.84656543  0.27838015  1  -0.27718  -0.024089  3.182222  -0.012  -0.218415  -0.034161  3.466661  -0.018  -0.231572  -0.02827  3.475044  -0.013  -0.298229  -0.210913  -0.042299  3.463712  -0.026
N  N57  1  0.92951723  0.65342962  0.72143349  1  -0.274506  -0.024191  3.181205  -0.012  -0.217355  -0.034422  3.467173  -0.018  -0.230335  -0.028371  3.475294  -0.013  -0.297604  -0.210057  -0.042783  3.464485  -0.026
N  N58  1  0.79178639  0.15343406  0.72161799  1  -0.277019  -0.02411  3.182097  -0.012  -0.218365  -0.034158  3.466667  -0.018  -0.231527  -0.028279  3.475052  -0.013  -0.298231  -0.210864  -0.042296  3.463718  -0.026
N  N59  1  0.07049424  0.34656799  0.27856989  1  -0.274617  -0.024233  3.181253  -0.013  -0.217472  -0.03442  3.467231  -0.018  -0.230453  -0.028368  3.475353  -0.013  -0.297659  -0.210177  -0.042786  3.464558  -0.026
O  O60  1  0.03913673  0.23478137  0.51238222  1  -0.611059  -0.010863  1.994199  -0.008  -0.555734  -0.019473  2.230191  -0.017  -0.582289  -0.015721  2.222019  -0.013  -0.287117  -0.536923  -0.023959  2.235246  -0.021
O  O61  1  0.52691403  0.26502333  0.48778726  1  -0.611459  -0.011187  1.995001  -0.009  -0.555626  -0.020021  2.230301  -0.017  -0.582096  -0.016105  2.222055  -0.014  -0.287296  -0.536985  -0.024698  2.235628  -0.022
O  O62  1  0.96085737  0.76522379  0.48761087  1  -0.611246  -0.010861  1.994227  -0.008  -0.555851  -0.01947  2.230269  -0.017  -0.582401  -0.015722  2.222095  -0.013  -0.287163  -0.537041  -0.023955  2.235328  -0.021
O  O63  1  0.47307970  0.73497901  0.51221305  1  -0.611497  -0.011188  1.995027  -0.009  -0.555697  -0.020022  2.230344  -0.017  -0.582165  -0.016108  2.222099  -0.014  -0.287321  -0.537053  -0.024703  2.235667  -0.022
O  O64  1  0.30915514  0.13143814  0.60214352  1  -0.633799  -0.02837  2.085855  -0.017  -0.565701  -0.031998  2.355495  -0.017  -0.597831  -0.028579  2.344943  -0.014  -0.311029  -0.541763  -0.035897  2.361546  -0.021
O  O65  1  0.70765821  0.36816813  0.39782741  1  -0.63036  -0.028198  2.08749  -0.016  -0.562177  -0.031736  2.357213  -0.017  -0.59441  -0.028342  2.347007  -0.014  -0.309298  -0.538276  -0.035692  2.363237  -0.02
O  O66  1  0.69083307  0.86856894  0.39785419  1  -0.633946  -0.028362  2.085739  -0.017  -0.565763  -0.032002  2.355414  -0.017  -0.597923  -0.02858  2.344922  -0.014  -0.311084  -0.54181  -0.035901  2.361435  -0.021
O  O67  1  0.29233728  0.63183611  0.60217276  1  -0.630347  -0.028202  2.087471  -0.016  -0.562205  -0.03174  2.357219  -0.017  -0.594438  -0.028345  2.347012  -0.014  -0.309297  -0.538298  -0.035693  2.363242  -0.02
O  O68  1  0.73196083  0.10057192  0.06592998  1  -0.636051  -0.028778  2.054558  -0.02  -0.55933  -0.034431  2.300811  -0.024  -0.590737  -0.030972  2.290177  -0.021  -0.29484  -0.536506  -0.037672  2.307103  -0.027
O  O69  1  0.66478844  0.39939817  0.93406211  1  -0.634178  -0.028936  2.055529  -0.021  -0.557793  -0.034863  2.30158  -0.025  -0.589017  -0.031163  2.291037  -0.021  -0.295031  -0.535258  -0.038472  2.308001  -0.029
O  O70  1  0.26803056  0.89942375  0.93406578  1  -0.635996  -0.028777  2.054398  -0.02  -0.559256  -0.034427  2.300719  -0.024  -0.59067  -0.030971  2.290085  -0.021  -0.294803  -0.536449  -0.037668  2.307017  -0.027
O  O71  1  0.33521505  0.60059658  0.06593830  1  -0.634205  -0.028939  2.055588  -0.021  -0.557777  -0.034859  2.301572  -0.025  -0.588994  -0.03116  2.291021  -0.021  -0.295037  -0.535242  -0.038469  2.307993  -0.029
O  O72  1  0.78347115  0.90815656  0.95204960  1  -0.590485  -0.002793  1.991824  -0.004  -0.536082  -0.005665  2.221131  -0.007  -0.562177  -0.003853  2.213536  -0.005  -0.291561  -0.517575  -0.007895  2.225633  -0.009
O  O73  1  0.83168552  0.59136501  0.04808399  1  -0.589436  -0.002903  1.991553  -0.004  -0.535204  -0.005863  2.220522  -0.007  -0.561182  -0.003951  2.213053  -0.005  -0.291377  -0.516833  -0.008205  2.225021  -0.01
O  O74  1  0.21652199  0.09184104  0.04795043  1  -0.590542  -0.002789  1.99182  -0.004  -0.53608  -0.005667  2.221158  -0.007  -0.562185  -0.003853  2.213578  -0.005  -0.291533  -0.517567  -0.007895  2.225632  -0.009
O  O75  1  0.16832126  0.40863164  0.95191656  1  -0.5895  -0.002906  1.99131  -0.004  -0.53533  -0.005863  2.220374  -0.007  -0.56131  -0.003952  2.212905  -0.005  -0.291479  -0.516963  -0.008205  2.224872  -0.01
O  O76  1  0.25814053  0.38828328  0.73885777  1  -0.841093  -0.030591  1.94043  -0.02  -0.77187  -0.039254  2.153838  -0.026  -0.797147  -0.034993  2.117974  -0.023  -0.559127  -0.752335  -0.042837  2.1777  -0.029
O  O77  1  0.51914775  0.11181751  0.26102887  1  -0.84266  -0.030563  1.939819  -0.02  -0.773349  -0.039174  2.152401  -0.026  -0.79867  -0.034959  2.116405  -0.022  -0.55881  -0.753765  -0.042659  2.176405  -0.029
O  O78  1  0.74185213  0.61172287  0.26114319  1  -0.841144  -0.030595  1.940366  -0.02  -0.771919  -0.039258  2.153833  -0.026  -0.797192  -0.034997  2.117963  -0.023  -0.559116  -0.752389  -0.042839  2.177716  -0.029
O  O79  1  0.48085633  0.88818198  0.73897093  1  -0.842672  -0.03056  1.939829  -0.02  -0.773347  -0.039174  2.152394  -0.026  -0.79867  -0.034959  2.116403  -0.022  -0.558817  -0.753764  -0.042659  2.176395  -0.029
O  O80  1  0.47558930  0.14311712  0.85026973  1  -0.824367  -0.031842  1.909929  -0.024  -0.763159  -0.039649  2.12017  -0.029  -0.788416  -0.034743  2.087825  -0.025  -0.572512  -0.743157  -0.044307  2.142065  -0.034
O  O81  1  0.62556202  0.35658042  0.14983969  1  -0.825041  -0.032004  1.909964  -0.024  -0.763837  -0.039908  2.119944  -0.03  -0.7891  -0.034904  2.087783  -0.025  -0.573644  -0.743976  -0.044784  2.141788  -0.034
O  O82  1  0.52440243  0.85688142  0.14972937  1  -0.824303  -0.031845  1.909914  -0.024  -0.763086  -0.03965  2.120191  -0.029  -0.788347  -0.034743  2.087829  -0.025  -0.572512  -0.74311  -0.044309  2.142137  -0.034
O  O83  1  0.37444556  0.64342290  0.85016424  1  -0.824912  -0.032003  1.90994  -0.024  -0.763741  -0.039909  2.119987  -0.03  -0.789009  -0.034904  2.087814  -0.025  -0.573645  -0.743881  -0.044785  2.141817  -0.034
