# generated using pymatgen
data_HgH14C14(BrN2)2
_symmetry_space_group_name_H-M   'P 1'
_cell_length_a   4.21444718
_cell_length_b   18.80016014
_cell_length_c   20.09020000
_cell_angle_alpha   98.42933115
_cell_angle_beta   90.00000000
_cell_angle_gamma   90.00000000
_symmetry_Int_Tables_number   1
_chemical_formula_structural   HgH14C14(BrN2)2
_chemical_formula_sum   'Hg4 H56 C56 Br8 N16'
_cell_volume   1574.59692606
_cell_formula_units_Z   4
loop_
 _symmetry_equiv_pos_site_id
 _symmetry_equiv_pos_as_xyz
  1  'x, y, z'
loop_
 _atom_site_type_symbol
 _atom_site_label
 _atom_site_symmetry_multiplicity
 _atom_site_fract_x
 _atom_site_fract_y
 _atom_site_fract_z
 _atom_site_occupancy
 _atom_site_hle17_bader_spin_density
 _atom_site_hle17_ddec_charge
 _atom_site_hle17_ddec_spin_density
 _atom_site_hle17_ddec_sum_bond_order
 _atom_site_hle17_magmom
 _atom_site_hse06_10hf_bader_spin_density
 _atom_site_hse06_10hf_ddec_charge
 _atom_site_hse06_10hf_ddec_spin_density
 _atom_site_hse06_10hf_ddec_sum_bond_order
 _atom_site_hse06_10hf_magmom
 _atom_site_hse06_bader_spin_density
 _atom_site_hse06_ddec_charge
 _atom_site_hse06_ddec_spin_density
 _atom_site_hse06_ddec_sum_bond_order
 _atom_site_hse06_magmom
 _atom_site_pbe_bader_charge
 _atom_site_pbe_bader_spin_density
 _atom_site_pbe_cm5_charge
 _atom_site_pbe_ddec_charge
 _atom_site_pbe_ddec_spin_density
 _atom_site_pbe_ddec_sum_bond_order
 _atom_site_pbe_magmom
Hg  Hg0  1  0.05851301  0.24999852  0.25000011  1  0  0.666364  0  2.050399  0  0  0.500061  0  2.554662  0  0  0.550822  0  2.52417  0  0.716077  0  0.467146  0.465667  0  2.575003  0
Hg  Hg1  1  0.94145444  0.74999772  0.74999913  1  0  0.66638  0  2.050263  0  0  0.500099  0  2.554521  0  0  0.55086  0  2.524029  0  0.716055  0  0.467153  0.465704  0  2.574862  0
Hg  Hg2  1  0.92709194  0.75000094  0.24999658  1  0  0.679156  0  2.062296  0  0  0.51526  0  2.565896  0  0  0.564642  0  2.535884  0  0.717037  0  0.474567  0.482007  0  2.585551  0
Hg  Hg3  1  0.07289687  0.25000282  0.75000568  1  0  0.679117  0  2.062393  0  0  0.515192  0  2.566037  0  0  0.56458  0  2.536016  0  0.716942  0  0.4745  0.481936  0  2.585701  0
H  H4  1  0.13586361  0.20559045  0.39582223  1  0  0.075397  0  0.968211  0  0  0.083146  0  1.035644  0  0  0.086016  0  1.032749  0  0.116824  0  0.100311  0.081056  0  1.037704  0
H  H5  1  0.13586835  0.29440874  0.10417878  1  0  0.075439  0  0.968213  0  0  0.083187  0  1.035625  0  0  0.086056  0  1.032732  0  0.116855  0  0.100341  0.081098  0  1.037685  0
H  H6  1  0.86411808  0.79440794  0.60417730  1  0  0.075449  0  0.968294  0  0  0.083211  0  1.0357  0  0  0.08606  0  1.032828  0  0.11692  0  0.100346  0.081119  0  1.037764  0
H  H7  1  0.86413469  0.70559610  0.89582164  1  0  0.075443  0  0.968197  0  0  0.08322  0  1.03559  0  0  0.086087  0  1.032696  0  0.116898  0  0.100323  0.081128  0  1.037655  0
H  H8  1  0.33478412  0.25045074  0.51346121  1  0  0.101934  0  0.971707  0  0  0.109954  0  1.036078  0  0  0.113073  0  1.035162  0  0.090121  0  0.098481  0.107645  0  1.037033  0
H  H9  1  0.33478887  0.24955006  0.98653952  1  0  0.101813  0  0.971684  0  0  0.10986  0  1.036033  0  0  0.112977  0  1.035124  0  0.089616  0  0.098462  0.107566  0  1.036973  0
H  H10  1  0.66521892  0.74954765  0.48653682  1  0  0.101762  0  0.97175  0  0  0.109812  0  1.036083  0  0  0.112929  0  1.035174  0  0.089903  0  0.09844  0.107516  0  1.037026  0
H  H11  1  0.66524027  0.75045424  0.01346231  1  0  0.101818  0  0.971754  0  0  0.109894  0  1.036043  0  0  0.113009  0  1.035136  0  0.089355  0  0.098456  0.107597  0  1.036986  0
H  H12  1  0.63652476  0.36598561  0.53315405  1  0  0.102075  0  0.956856  0  0  0.107706  0  1.027821  0  0  0.111322  0  1.02404  0  0.109351  0  0.103753  0.105031  0  1.030631  0
H  H13  1  0.63649866  0.13401036  0.96684402  1  0  0.102058  0  0.956906  0  0  0.107716  0  1.027827  0  0  0.111331  0  1.024053  0  0.109392  0  0.103749  0.105042  0  1.030637  0
H  H14  1  0.36350438  0.63400902  0.46684048  1  0  0.102046  0  0.956831  0  0  0.10771  0  1.027784  0  0  0.111328  0  1.024005  0  0.109282  0  0.103705  0.105036  0  1.030595  0
H  H15  1  0.36350438  0.86599018  0.03316028  1  0  0.101997  0  0.956837  0  0  0.107649  0  1.027801  0  0  0.11127  0  1.024019  0  0.109466  0  0.103697  0.104976  0  1.030612  0
H  H16  1  0.46831290  0.38682492  0.32472911  1  0  0.07277  0  0.996251  0  0  0.078806  0  1.070993  0  0  0.081381  0  1.0684  0  0.122406  0  0.098041  0.076849  0  1.073022  0
H  H17  1  0.46830104  0.11317159  0.17526954  1  0  0.072804  0  0.996214  0  0  0.078793  0  1.071011  0  0  0.081366  0  1.068422  0  0.122413  0  0.098031  0.076838  0  1.073041  0
H  H18  1  0.53167827  0.61317079  0.67526707  1  0  0.072717  0  0.996292  0  0  0.078765  0  1.071023  0  0  0.081339  0  1.068433  0  0.122428  0  0.098027  0.07681  0  1.073053  0
H  H19  1  0.53168776  0.88683325  0.82473535  1  0  0.072729  0  0.996293  0  0  0.078761  0  1.071025  0  0  0.081335  0  1.068432  0  0.122146  0  0.098033  0.076805  0  1.073056  0
H  H20  1  0.87821720  0.55170358  0.40174178  1  0  0.128611  0  0.973945  0  0  0.139  0  1.048565  0  0  0.1427  0  1.045304  0  0.124774  0  0.092895  0.136308  0  1.050901  0
H  H21  1  0.87822432  0.94829562  0.09825699  1  0  0.128572  0  0.973994  0  0  0.138964  0  1.048611  0  0  0.142664  0  1.045353  0  0.124741  0  0.092884  0.136272  0  1.050948  0
H  H22  1  0.12176211  0.44829535  0.59825484  1  0  0.128545  0  0.973994  0  0  0.138933  0  1.048626  0  0  0.142634  0  1.045366  0  0.124666  0  0.092864  0.136241  0  1.050961  0
H  H23  1  0.12177398  0.05170653  0.90174554  1  0  0.128565  0  0.973907  0  0  0.138946  0  1.048543  0  0  0.142644  0  1.045289  0  0.124653  0  0.092894  0.136255  0  1.050877  0
H  H24  1  0.49053883  0.51777727  0.37958382  1  0  0.126703  0  0.936791  0  0  0.152338  0  0.991574  0  0  0.153226  0  0.991893  0  0.078785  0  0.099384  0.151629  0  0.991419  0
H  H25  1  0.49054595  0.98221817  0.12041841  1  0  0.126697  0  0.936859  0  0  0.15232  0  0.991653  0  0  0.153204  0  0.991988  0  0.078628  0  0.099382  0.151616  0  0.991489  0
H  H26  1  0.50944285  0.48221844  0.62041534  1  0  0.126693  0  0.936928  0  0  0.152365  0  0.99167  0  0  0.153252  0  0.992003  0  0.078672  0  0.09939  0.151658  0  0.991509  0
H  H27  1  0.50944997  0.01778130  0.87958624  1  0  0.126685  0  0.936921  0  0  0.152324  0  0.991702  0  0  0.153212  0  0.992028  0  0.078669  0  0.09938  0.151618  0  0.991546  0
H  H28  1  0.82565989  0.47486137  0.33827353  1  0  0.118633  0  0.964062  0  0  0.137823  0  1.031633  0  0  0.139184  0  1.031328  0  0.076759  0  0.088226  0.136793  0  1.031881  0
H  H29  1  0.82566701  0.02513783  0.16172549  1  0  0.118678  0  0.96405  0  0  0.13788  0  1.031603  0  0  0.139243  0  1.031298  0  0.076799  0  0.088253  0.136847  0  1.031852  0
H  H30  1  0.17432180  0.52513810  0.66172167  1  0  0.118731  0  0.964071  0  0  0.137909  0  1.031663  0  0  0.139277  0  1.031354  0  0.076854  0  0.08826  0.136875  0  1.031912  0
H  H31  1  0.17433366  0.97486379  0.83827846  1  0  0.118706  0  0.964026  0  0  0.13787  0  1.031611  0  0  0.139233  0  1.031306  0  0.076885  0  0.088252  0.136841  0  1.031859  0
H  H32  1  0.64811822  0.89168187  0.19825788  1  0  0.072138  0  0.979492  0  0  0.078038  0  1.051329  0  0  0.080647  0  1.048655  0  0.126421  0  0.098398  0.076117  0  1.053255  0
H  H33  1  0.64812059  0.60830819  0.30174162  1  0  0.07206  0  0.979477  0  0  0.077914  0  1.051356  0  0  0.080508  0  1.048724  0  0.125497  0  0.098389  0.075995  0  1.05328  0
H  H34  1  0.35188720  0.10831653  0.80174463  1  0  0.072132  0  0.979467  0  0  0.078036  0  1.051309  0  0  0.080652  0  1.04861  0  0.126374  0  0.098394  0.076113  0  1.053237  0
H  H35  1  0.35189194  0.39169127  0.69825407  1  0  0.072128  0  0.979506  0  0  0.07801  0  1.051347  0  0  0.080605  0  1.048709  0  0.125413  0  0.098402  0.076083  0  1.053278  0
H  H36  1  0.33289064  0.00546215  0.23764040  1  0  0.097763  0  0.965351  0  0  0.106335  0  1.030128  0  0  0.109332  0  1.029379  0  0.102982  0  0.096929  0.104142  0  1.030923  0
H  H37  1  0.33287877  0.49453059  0.26235624  1  0  0.097755  0  0.965414  0  0  0.106328  0  1.030169  0  0  0.109326  0  1.029418  0  0.102545  0  0.096913  0.104135  0  1.030963  0
H  H38  1  0.66710766  0.99453732  0.76236177  1  0  0.097774  0  0.965341  0  0  0.106339  0  1.030116  0  0  0.109334  0  1.029371  0  0.102897  0  0.096926  0.104147  0  1.030912  0
H  H39  1  0.66712902  0.50547049  0.73764018  1  0  0.097818  0  0.965293  0  0  0.10636  0  1.030069  0  0  0.109358  0  1.029319  0  0.102385  0  0.096923  0.104169  0  1.030861  0
H  H40  1  0.14663370  0.02762747  0.35620943  1  0  0.102213  0  0.965421  0  0  0.105429  0  1.039094  0  0  0.109613  0  1.034442  0  0.130397  0  0.100926  0.102409  0  1.042388  0
H  H41  1  0.14661235  0.47237173  0.14378810  1  0  0.102332  0  0.965301  0  0  0.105534  0  1.038977  0  0  0.109721  0  1.034321  0  0.130282  0  0.100947  0.102512  0  1.042273  0
H  H42  1  0.85337646  0.97237092  0.64379309  1  0  0.102232  0  0.965373  0  0  0.105442  0  1.039059  0  0  0.109622  0  1.034418  0  0.130341  0  0.100937  0.102423  0  1.042354  0
H  H43  1  0.85337883  0.52763312  0.85620933  1  0  0.102301  0  0.965406  0  0  0.105539  0  1.039047  0  0  0.109716  0  1.034407  0  0.130216  0  0.100961  0.102518  0  1.042344  0
H  H44  1  0.60178474  0.82851708  0.38606357  1  0  0.071013  0  0.982506  0  0  0.075155  0  1.059701  0  0  0.078006  0  1.05667  0  0.097262  0  0.09862  0.073079  0  1.06188  0
H  H45  1  0.60180135  0.67147782  0.11393710  1  0  0.071078  0  0.982447  0  0  0.075208  0  1.059672  0  0  0.078065  0  1.05663  0  0.097206  0  0.098615  0.073132  0  1.061849  0
H  H46  1  0.39820881  0.17147970  0.61393673  1  0  0.071082  0  0.982417  0  0  0.075219  0  1.059634  0  0  0.078077  0  1.056597  0  0.097318  0  0.098619  0.073143  0  1.061811  0
H  H47  1  0.39820644  0.32852541  0.88606111  1  0  0.070906  0  0.982425  0  0  0.075033  0  1.05968  0  0  0.077892  0  1.056638  0  0.097065  0  0.09851  0.072956  0  1.061857  0
H  H48  1  0.22806313  0.90176840  0.54692776  1  0  0.131399  0  0.964203  0  0  0.144625  0  1.033812  0  0  0.148193  0  1.03067  0  0.125175  0  0.094595  0.141968  0  1.036123  0
H  H49  1  0.22807736  0.59822919  0.95307278  1  0  0.131407  0  0.964219  0  0  0.144637  0  1.033816  0  0  0.148204  0  1.030676  0  0.125245  0  0.094611  0.14198  0  1.036127  0
H  H50  1  0.77190670  0.09823053  0.45307433  1  0  0.131369  0  0.964288  0  0  0.144597  0  1.033903  0  0  0.148165  0  1.030761  0  0.125163  0  0.094611  0.14194  0  1.036215  0
H  H51  1  0.77191144  0.40177028  0.04692490  1  0  0.131415  0  0.964265  0  0  0.144633  0  1.033887  0  0  0.148205  0  1.030741  0  0.125172  0  0.094625  0.141975  0  1.036199  0
H  H52  1  0.58637109  0.88274713  0.50073156  1  0  0.127963  0  0.942329  0  0  0.152647  0  0.996876  0  0  0.153652  0  0.99737  0  0.045865  0  0.098123  0.151884  0  0.996546  0
H  H53  1  0.58638058  0.61724992  0.99926890  1  0  0.12793  0  0.942342  0  0  0.152585  0  0.996951  0  0  0.153591  0  0.997443  0  0.045819  0  0.098073  0.15182  0  0.996623  0
H  H54  1  0.41360347  0.11725019  0.49927330  1  0  0.127895  0  0.942292  0  0  0.152594  0  0.996878  0  0  0.153599  0  0.997372  0  0.045727  0  0.098092  0.151831  0  0.996548  0
H  H55  1  0.41361297  0.38274847  0.00072664  1  0  0.127895  0  0.942313  0  0  0.152638  0  0.996845  0  0  0.153644  0  0.997336  0  0.045775  0  0.098097  0.151871  0  0.996518  0
H  H56  1  0.24022368  0.83249674  0.47526714  1  0  0.116575  0  0.966735  0  0  0.135752  0  1.034304  0  0  0.137052  0  1.034162  0  0.064689  0  0.086722  0.134795  0  1.034379  0
H  H57  1  0.24023554  0.66750300  0.02473071  1  0  0.116584  0  0.966711  0  0  0.135753  0  1.034302  0  0  0.137054  0  1.034158  0  0.064698  0  0.086701  0.134797  0  1.034376  0
H  H58  1  0.75975326  0.16750381  0.52473318  1  0  0.116555  0  0.966757  0  0  0.135749  0  1.034323  0  0  0.137047  0  1.034184  0  0.064478  0  0.086726  0.134793  0  1.034397  0
H  H59  1  0.75976275  0.33249808  0.97526571  1  0  0.116566  0  0.966777  0  0  0.135751  0  1.034355  0  0  0.137051  0  1.034212  0  0.064748  0  0.08671  0.134794  0  1.034429  0
C  C60  1  0.26143405  0.25661462  0.40810721  1  0  0.13259  0  3.694649  0  0  0.100869  0  3.938306  0  0  0.10871  0  3.957998  0  0.47164  0  0.045124  0.095907  0  3.924828  0
C  C61  1  0.26143405  0.24338458  0.09189330  1  0  0.132563  0  3.694706  0  0  0.100887  0  3.938332  0  0  0.108725  0  3.958028  0  0.471662  0  0.045103  0.095923  0  3.92486  0
C  C62  1  0.73856187  0.74338270  0.59189068  1  0  0.132429  0  3.694691  0  0  0.100717  0  3.938348  0  0  0.108569  0  3.958056  0  0.471657  0  0.045078  0.095754  0  3.924876  0
C  C63  1  0.73857374  0.75661973  0.90810804  1  0  0.132343  0  3.694615  0  0  0.100649  0  3.938259  0  0  0.108491  0  3.95795  0  0.471735  0  0.045061  0.095686  0  3.924786  0
C  C64  1  0.37581916  0.28126044  0.47246056  1  0  -0.11555  0  3.731889  0  0  -0.122827  0  3.978116  0  0  -0.131139  0  4.000251  0  -0.050522  0  -0.08446  -0.117571  0  3.963287  0
C  C65  1  0.37580967  0.21873768  0.02754031  1  0  -0.11537  0  3.731872  0  0  -0.122693  0  3.978118  0  0  -0.131005  0  4.000257  0  -0.049946  0  -0.084438  -0.117448  0  3.963285  0
C  C66  1  0.62418863  0.71873580  0.52753669  1  0  -0.115254  0  3.731791  0  0  -0.122532  0  3.978043  0  0  -0.130842  0  4.000181  0  -0.050343  0  -0.084388  -0.117287  0  3.963211  0
C  C67  1  0.62420524  0.78126609  0.97246295  1  0  -0.115434  0  3.731971  0  0  -0.122742  0  3.978252  0  0  -0.131056  0  4.000394  0  -0.049715  0  -0.084497  -0.117496  0  3.963421  0
C  C68  1  0.53953221  0.34593353  0.48373834  1  0  -0.007195  0  3.659897  0  0  -0.038918  0  3.912818  0  0  -0.033687  0  3.928482  0  0.03641  0  -0.056896  -0.04197  0  3.902051  0
C  C69  1  0.53952509  0.15406459  0.01626203  1  0  -0.007209  0  3.659957  0  0  -0.03889  0  3.9129  0  0  -0.033661  0  3.928564  0  0.036473  0  -0.056875  -0.041937  0  3.902118  0
C  C70  1  0.46047558  0.65406271  0.51625841  1  0  -0.007127  0  3.659885  0  0  -0.038916  0  3.91287  0  0  -0.033684  0  3.928531  0  0.036521  0  -0.056796  -0.041957  0  3.902073  0
C  C71  1  0.46047795  0.84593756  0.98374200  1  0  -0.00694  0  3.659847  0  0  -0.038695  0  3.912816  0  0  -0.033459  0  3.928461  0  0.036301  0  -0.05675  -0.041737  0  3.902019  0
C  C72  1  0.58034658  0.38624741  0.43068069  1  0  -0.037053  0  3.732721  0  0  -0.015623  0  3.962078  0  0  -0.022463  0  3.986116  0  0.026105  0  -0.001995  -0.011368  0  3.945892  0
C  C73  1  0.58031810  0.11374803  0.06931732  1  0  -0.036962  0  3.732789  0  0  -0.015723  0  3.962309  0  0  -0.022566  0  3.986356  0  0.025653  0  -0.001978  -0.011466  0  3.946124  0
C  C74  1  0.41967070  0.61374668  0.56931427  1  0  -0.037167  0  3.732823  0  0  -0.015784  0  3.96217  0  0  -0.022629  0  3.986216  0  0.025765  0  -0.002022  -0.011524  0  3.945987  0
C  C75  1  0.41967307  0.88625521  0.93068686  1  0  -0.0372  0  3.732932  0  0  -0.015843  0  3.96227  0  0  -0.022687  0  3.986311  0  0.025632  0  -0.002027  -0.011586  0  3.946089  0
C  C76  1  0.44738964  0.35867371  0.36823778  1  0  0.085804  0  3.67531  0  0  0.046664  0  3.92336  0  0  0.053392  0  3.943085  0  0.445438  0  0.039657  0.0424  0  3.909961  0
C  C77  1  0.44736828  0.14132226  0.13176129  1  0  0.085697  0  3.67554  0  0  0.046694  0  3.923507  0  0  0.053437  0  3.943197  0  0.445392  0  0.039667  0.042427  0  3.91011  0
C  C78  1  0.55261578  0.64132092  0.63175874  1  0  0.085896  0  3.67547  0  0  0.046787  0  3.9235  0  0  0.053527  0  3.943204  0  0.443739  0  0.039744  0.042518  0  3.910105  0
C  C79  1  0.55262527  0.85868204  0.86824253  1  0  0.085819  0  3.675625  0  0  0.046755  0  3.923626  0  0  0.053479  0  3.94336  0  0.444095  0  0.039714  0.042487  0  3.910231  0
C  C80  1  0.75625340  0.45484101  0.44006125  1  0  0.280374  0  3.663595  0  0  0.281009  0  3.919073  0  0  0.290519  0  3.936294  0  0.658791  0  0.148766  0.274589  0  3.907298  0
C  C81  1  0.75623441  0.04515550  0.05993789  1  0  0.280294  0  3.663753  0  0  0.280999  0  3.919195  0  0  0.290511  0  3.936418  0  0.659376  0  0.148664  0.274575  0  3.907429  0
C  C82  1  0.24375439  0.54515470  0.55993343  1  0  0.280457  0  3.663577  0  0  0.281232  0  3.918877  0  0  0.29075  0  3.936095  0  0.659587  0  0.148758  0.274806  0  3.907113  0
C  C83  1  0.24375202  0.95484612  0.94006706  1  0  0.280506  0  3.663545  0  0  0.281295  0  3.918816  0  0  0.290809  0  3.936031  0  0.659044  0  0.148751  0.274872  0  3.907054  0
C  C84  1  0.73922863  0.50282061  0.38694218  1  0  -0.390564  0  3.699709  0  0  -0.470338  0  3.932935  0  0  -0.473412  0  3.938641  0  -0.178539  0  -0.24523  -0.467845  0  3.928884  0
C  C85  1  0.73922625  0.99717806  0.11305651  1  0  -0.390514  0  3.699939  0  0  -0.470287  0  3.933106  0  0  -0.473369  0  3.938818  0  -0.178404  0  -0.245182  -0.467792  0  3.929059  0
C  C86  1  0.26076255  0.49717617  0.61305464  1  0  -0.390582  0  3.699896  0  0  -0.470442  0  3.933053  0  0  -0.473526  0  3.938743  0  -0.178604  0  -0.245224  -0.467945  0  3.929007  0
C  C87  1  0.26076730  0.00282356  0.88694694  1  0  -0.390572  0  3.699889  0  0  -0.470374  0  3.933079  0  0  -0.473447  0  3.938775  0  -0.178612  0  -0.245207  -0.467887  0  3.929027  0
C  C88  1  0.56195508  0.90508559  0.24973619  1  0  0.123682  0  3.720775  0  0  0.091446  0  3.969066  0  0  0.099409  0  3.988772  0  0.444754  0  0.040017  0.086432  0  3.955535  0
C  C89  1  0.56195745  0.59490608  0.25026305  1  0  0.123862  0  3.72085  0  0  0.091679  0  3.96914  0  0  0.099641  0  3.988837  0  0.445505  0  0.040018  0.086665  0  3.955606  0
C  C90  1  0.43805745  0.09491119  0.75026711  1  0  0.123664  0  3.721069  0  0  0.091425  0  3.969289  0  0  0.099386  0  3.989012  0  0.44445  0  0.040024  0.086415  0  3.955759  0
C  C91  1  0.43805983  0.40509607  0.74973153  1  0  0.12372  0  3.72072  0  0  0.091516  0  3.968945  0  0  0.099477  0  3.988647  0  0.445292  0  0.039976  0.086509  0  3.955418  0
C  C92  1  0.38835224  0.96721204  0.27171529  1  0  -0.111369  0  3.735293  0  0  -0.120241  0  3.983293  0  0  -0.128568  0  4.005698  0  -0.020936  0  -0.087529  -0.114956  0  3.968198  0
C  C93  1  0.38835224  0.53278232  0.22828232  1  0  -0.11143  0  3.735619  0  0  -0.120295  0  3.98358  0  0  -0.128621  0  4.005976  0  -0.020432  0  -0.087493  -0.115009  0  3.968478  0
C  C94  1  0.61165317  0.03278473  0.72828551  1  0  -0.111386  0  3.735463  0  0  -0.120245  0  3.983434  0  0  -0.128573  0  4.005845  0  -0.020866  0  -0.087529  -0.114961  0  3.968341  0
C  C95  1  0.61166267  0.46722038  0.77171332  1  0  -0.111491  0  3.735339  0  0  -0.120315  0  3.983323  0  0  -0.128639  0  4.00571  0  -0.020405  0  -0.087575  -0.115031  0  3.968229  0
C  C96  1  0.28477994  0.97981618  0.33789909  1  0  -0.005171  0  3.65499  0  0  -0.033598  0  3.901736  0  0  -0.028374  0  3.917462  0  -0.007869  0  -0.057057  -0.036417  0  3.890589  0
C  C97  1  0.28478231  0.52017979  0.16209824  1  0  -0.005309  0  3.654988  0  0  -0.033712  0  3.901719  0  0  -0.028503  0  3.917443  0  -0.007911  0  -0.057111  -0.036539  0  3.890598  0
C  C98  1  0.71521361  0.02018114  0.66210228  1  0  -0.005287  0  3.655028  0  0  -0.033741  0  3.901816  0  0  -0.028506  0  3.917543  0  -0.007864  0  -0.057179  -0.036555  0  3.89066  0
C  C99  1  0.71522073  0.47982397  0.83789854  1  0  -0.005406  0  3.655175  0  0  -0.03393  0  3.901895  0  0  -0.028714  0  3.91762  0  -0.007956  0  -0.057262  -0.036748  0  3.890751  0
C  C100  1  0.35586162  0.92999973  0.38156021  1  0  -0.040445  0  3.73823  0  0  -0.019359  0  3.969412  0  0  -0.027278  0  3.994809  0  -0.030413  0  -0.004182  -0.014836  0  3.953141  0
C  C101  1  0.35586637  0.56999840  0.11843891  1  0  -0.040413  0  3.738216  0  0  -0.01935  0  3.969404  0  0  -0.027237  0  3.994765  0  -0.030413  0  -0.0042  -0.014829  0  3.953128  0
C  C102  1  0.64413430  0.06999759  0.61844216  1  0  -0.040342  0  3.738079  0  0  -0.019245  0  3.969287  0  0  -0.027171  0  3.994688  0  -0.030371  0  -0.004124  -0.014722  0  3.953016  0
C  C103  1  0.64413430  0.43000591  0.88155695  1  0  -0.040471  0  3.738362  0  0  -0.019165  0  3.969341  0  0  -0.02702  0  3.994637  0  -0.030336  0  -0.004109  -0.014645  0  3.953068  0
C  C104  1  0.53570964  0.86958322  0.35556484  1  0  0.088882  0  3.698653  0  0  0.050329  0  3.948355  0  0  0.05725  0  3.968404  0  0.528633  0  0.039784  0.045596  0  3.935452  0
C  C105  1  0.53572151  0.63041275  0.14443697  1  0  0.088794  0  3.698599  0  0  0.050243  0  3.9483  0  0  0.057147  0  3.968343  0  0.528757  0  0.039755  0.045513  0  3.935398  0
C  C106  1  0.46428628  0.13041463  0.64443860  1  0  0.088807  0  3.698523  0  0  0.050239  0  3.948204  0  0  0.05715  0  3.968288  0  0.528529  0  0.039794  0.045509  0  3.935305  0
C  C107  1  0.46428865  0.36959048  0.85555974  1  0  0.089001  0  3.698621  0  0  0.050436  0  3.948169  0  0  0.057298  0  3.968299  0  0.529053  0  0.0399  0.045706  0  3.935267  0
C  C108  1  0.23880238  0.93979536  0.45134527  1  0  0.280733  0  3.661515  0  0  0.279215  0  3.921266  0  0  0.289122  0  3.937954  0  0.620368  0  0.148175  0.27264  0  3.909684  0
C  C109  1  0.23880712  0.56020438  0.04865357  1  0  0.280671  0  3.661633  0  0  0.279205  0  3.921311  0  0  0.289101  0  3.937994  0  0.620333  0  0.148222  0.272632  0  3.909726  0
C  C110  1  0.76119355  0.06020357  0.54865583  1  0  0.280723  0  3.661508  0  0  0.279218  0  3.921269  0  0  0.289132  0  3.937966  0  0.620637  0  0.148218  0.272644  0  3.909686  0
C  C111  1  0.76119355  0.43979670  0.95134334  1  0  0.280831  0  3.661426  0  0  0.27918  0  3.921286  0  0  0.289078  0  3.937976  0  0.620577  0  0.148229  0.272607  0  3.909701  0
C  C112  1  0.32692781  0.88631382  0.49657080  1  0  -0.391644  0  3.707004  0  0  -0.472169  0  3.94104  0  0  -0.475325  0  3.946793  0  -0.120058  0  -0.245917  -0.469534  0  3.936906  0
C  C113  1  0.32693730  0.61368485  0.00342889  1  0  -0.391613  0  3.706996  0  0  -0.472128  0  3.940987  0  0  -0.475282  0  3.946733  0  -0.120088  0  -0.245888  -0.46949  0  3.93685  0
C  C114  1  0.67304913  0.11368619  0.50343094  1  0  -0.391523  0  3.707038  0  0  -0.472086  0  3.941037  0  0  -0.475236  0  3.946791  0  -0.119896  0  -0.245921  -0.46945  0  3.936896  0
C  C115  1  0.67305862  0.38631516  0.99656787  1  0  -0.391584  0  3.707016  0  0  -0.472161  0  3.941028  0  0  -0.475316  0  3.946779  0  -0.120139  0  -0.245911  -0.469521  0  3.936891  0
Br  Br116  1  0.83576086  0.13331240  0.28759227  1  0  -0.450199  0  1.006153  0  0  -0.39595  0  1.313274  0  0  -0.415277  0  1.294693  0  -0.47658  0  -0.228508  -0.382517  0  1.326147  0
Br  Br117  1  0.83582730  0.36669594  0.21241546  1  0  -0.450174  0  1.006109  0  0  -0.395968  0  1.313307  0  0  -0.415295  0  1.294728  0  -0.476532  0  -0.228477  -0.382531  0  1.326181  0
Br  Br118  1  0.16427303  0.86668062  0.71241150  1  0  -0.450215  0  1.006119  0  0  -0.395963  0  1.31322  0  0  -0.415272  0  1.294604  0  -0.476485  0  -0.228524  -0.382529  0  1.326093  0
Br  Br119  1  0.16418049  0.63330514  0.78758692  1  0  -0.450215  0  1.006059  0  0  -0.396017  0  1.313247  0  0  -0.415342  0  1.294667  0  -0.476567  0  -0.228515  -0.382583  0  1.326122  0
Br  Br120  1  0.08425542  0.71311556  0.36423026  1  0  -0.442708  0  1.000957  0  0  -0.385499  0  1.308609  0  0  -0.404807  0  1.290161  0  -0.467502  0  -0.220647  -0.37196  0  1.321218  0
Br  Br121  1  0.08426253  0.78689708  0.13577334  1  0  -0.442701  0  1.001032  0  0  -0.385519  0  1.308778  0  0  -0.404835  0  1.290332  0  -0.467482  0  -0.220636  -0.371981  0  1.321389  0
Br  Br122  1  0.91575949  0.28689358  0.63578020  1  0  -0.442677  0  1.001078  0  0  -0.38545  0  1.308747  0  0  -0.404759  0  1.290304  0  -0.467403  0  -0.220607  -0.37191  0  1.32135  0
Br  Br123  1  0.91579983  0.21311207  0.86423214  1  0  -0.442653  0  1.001104  0  0  -0.385422  0  1.308782  0  0  -0.404729  0  1.290315  0  -0.467432  0  -0.220616  -0.371886  0  1.321393  0
N  N124  1  0.29699981  0.29508842  0.35733371  1  0  -0.299404  0  3.311414  0  0  -0.213907  0  3.575145  0  0  -0.237347  0  3.600434  0  -1.227536  0  -0.31253  -0.198102  0  3.557486  0
N  N125  1  0.29698794  0.20490862  0.14266651  1  0  -0.299477  0  3.311521  0  0  -0.214033  0  3.575241  0  0  -0.237468  0  3.600527  0  -1.227571  0  -0.312559  -0.19823  0  3.557587  0
N  N126  1  0.70299612  0.70490728  0.64266396  1  0  -0.299389  0  3.311495  0  0  -0.213952  0  3.575287  0  0  -0.237388  0  3.600571  0  -1.2259  0  -0.31262  -0.198149  0  3.557629  0
N  N127  1  0.70300561  0.79509568  0.85733533  1  0  -0.299288  0  3.311503  0  0  -0.213879  0  3.57526  0  0  -0.237322  0  3.600563  0  -1.225892  0  -0.31253  -0.198073  0  3.557598  0
N  N128  1  0.91713808  0.46818182  0.49597240  1  0  -0.254369  0  3.05615  0  0  -0.225905  0  3.336232  0  0  -0.23776  0  3.356407  0  -0.79542  0  -0.212071  -0.21788  0  3.322577  0
N  N129  1  0.91711673  0.03181630  0.00402598  1  0  -0.254372  0  3.056088  0  0  -0.22592  0  3.336151  0  0  -0.23778  0  3.356323  0  -0.765595  0  -0.21206  -0.217894  0  3.322499  0
N  N130  1  0.08288157  0.53181335  0.50402072  1  0  -0.254559  0  3.056118  0  0  -0.226147  0  3.336172  0  0  -0.238007  0  3.356341  0  -0.765694  0  -0.212139  -0.218121  0  3.322521  0
N  N131  1  0.08286733  0.96818585  0.99597855  1  0  -0.254496  0  3.055978  0  0  -0.226088  0  3.336014  0  0  -0.237944  0  3.356183  0  -0.795261  0  -0.212069  -0.218064  0  3.322364  0
N  N132  1  0.63339980  0.85776577  0.29140880  1  0  -0.309022  0  3.327775  0  0  -0.223912  0  3.591483  0  0  -0.246719  0  3.6154  0  -1.225208  0  -0.318589  -0.208413  0  3.574638  0
N  N133  1  0.63341641  0.64222805  0.20859272  1  0  -0.309045  0  3.327612  0  0  -0.223938  0  3.591307  0  0  -0.246738  0  3.615214  0  -1.224987  0  -0.318523  -0.20844  0  3.574463  0
N  N134  1  0.36660561  0.14223047  0.70859492  1  0  -0.309047  0  3.327784  0  0  -0.223912  0  3.591478  0  0  -0.246724  0  3.615412  0  -1.224872  0  -0.318564  -0.208413  0  3.574625  0
N  N135  1  0.36659850  0.35777518  0.79140399  1  0  -0.308932  0  3.327523  0  0  -0.223858  0  3.591254  0  0  -0.246659  0  3.615175  0  -1.224831  0  -0.318462  -0.208357  0  3.574395  0
N  N136  1  0.05634665  0.99573320  0.46766613  1  0  -0.255253  0  3.060276  0  0  -0.225623  0  3.340131  0  0  -0.237295  0  3.35951  0  -0.789045  0  -0.212184  -0.217669  0  3.326873  0
N  N137  1  0.05634191  0.50426707  0.03233428  1  0  -0.255199  0  3.06032  0  0  -0.225555  0  3.340126  0  0  -0.237225  0  3.359512  0  -0.789059  0  -0.212165  -0.217599  0  3.326866  0
N  N138  1  0.94365401  0.00426626  0.53233504  1  0  -0.255245  0  3.060369  0  0  -0.225611  0  3.340214  0  0  -0.237284  0  3.359595  0  -0.760971  0  -0.212172  -0.217657  0  3.326955  0
N  N139  1  0.94365401  0.49573455  0.96766520  1  0  -0.255288  0  3.060305  0  0  -0.225652  0  3.340212  0  0  -0.237327  0  3.359598  0  -0.760967  0  -0.212204  -0.217697  0  3.326951  0
