# generated using pymatgen
data_CuH22C19O7
_symmetry_space_group_name_H-M   'P 1'
_cell_length_a   8.22358173
_cell_length_b   9.16289811
_cell_length_c   13.62855843
_cell_angle_alpha   70.33575979
_cell_angle_beta   84.66167158
_cell_angle_gamma   73.97038100
_symmetry_Int_Tables_number   1
_chemical_formula_structural   CuH22C19O7
_chemical_formula_sum   'Cu2 H44 C38 O14'
_cell_volume   929.44710307
_cell_formula_units_Z   2
loop_
 _symmetry_equiv_pos_site_id
 _symmetry_equiv_pos_as_xyz
  1  'x, y, z'
loop_
 _atom_site_type_symbol
 _atom_site_label
 _atom_site_symmetry_multiplicity
 _atom_site_fract_x
 _atom_site_fract_y
 _atom_site_fract_z
 _atom_site_occupancy
 _atom_site_hle17_ddec_charge
 _atom_site_hle17_ddec_spin_density
 _atom_site_hle17_ddec_sum_bond_order
 _atom_site_hle17_magmom
 _atom_site_hse06_10hf_ddec_charge
 _atom_site_hse06_10hf_ddec_spin_density
 _atom_site_hse06_10hf_ddec_sum_bond_order
 _atom_site_hse06_10hf_magmom
 _atom_site_hse06_ddec_charge
 _atom_site_hse06_ddec_spin_density
 _atom_site_hse06_ddec_sum_bond_order
 _atom_site_hse06_magmom
 _atom_site_pbe_cm5_charge
 _atom_site_pbe_ddec_charge
 _atom_site_pbe_ddec_spin_density
 _atom_site_pbe_ddec_sum_bond_order
 _atom_site_pbe_magmom
Cu  Cu0  1  0.43834440  0.34228470  0.45162531  1  0.979798  -0.738457  1.694582  -0.541  0.968987  -0.832556  2.090149  -0.673  1.056273  -0.903349  2.035044  -0.761  0.72451  0.906068  -0.776638  2.138124  -0.611
Cu  Cu1  1  0.93811715  0.79393680  0.54834408  1  0.971855  0.738592  1.710797  0.541  0.968737  0.832628  2.092005  0.673  1.05612  0.903372  2.036579  0.761  0.723637  0.905724  0.776758  2.140213  0.611
H  H2  1  0.59437899  0.49213361  0.52144709  1  0.37053  3.6e-05  0.923188  0.001  0.345993  -0.000324  0.994347  0.0  0.359255  -0.000173  0.981284  0.0  0.293484  0.336617  -0.000433  1.003327  0.0
H  H3  1  0.09400367  0.01389744  0.47851177  1  0.372339  -3.7e-05  0.920377  -0.001  0.348344  0.00032  0.990897  0.0  0.361615  0.000171  0.977766  0.0  0.29415  0.338963  0.000429  0.999916  0.0
H  H4  1  0.34546273  0.25141723  0.23128857  1  0.071758  2e-05  0.921777  0.0  0.079581  3.2e-05  0.985788  0.0  0.080582  3.3e-05  0.986153  0.0  0.112838  0.078995  3e-05  0.985255  0.0
H  H5  1  0.84574884  0.48221299  0.76866691  1  0.070821  -2.7e-05  0.92249  0.0  0.07907  -3.2e-05  0.98718  0.0  0.080052  -3.3e-05  0.98765  0.0  0.112761  0.078513  -3e-05  0.986557  0.0
H  H6  1  0.14126364  0.22762767  0.12180552  1  0.083423  4.9e-05  0.963046  0.0  0.092843  6e-06  1.031027  0.0  0.095268  4e-06  1.030353  0.0  0.09568  0.091027  9e-06  1.03176  0.0
H  H7  1  0.64172484  0.34864738  0.87829044  1  0.08219  -4.8e-05  0.963165  0.0  0.091784  -6e-06  1.031283  0.0  0.094238  -4e-06  1.030599  0.0  0.094955  0.089963  -9e-06  1.031984  0.0
H  H8  1  0.88317266  0.36016939  0.00936913  1  0.072907  -2e-06  0.985363  0.0  0.082012  4e-06  1.053315  0.0  0.084028  2e-06  1.053544  0.0  0.090987  0.080615  7e-06  1.053142  0.0
H  H9  1  0.38360775  0.36856400  0.99081921  1  0.074905  0.0  0.984735  0.0  0.083618  -4e-06  1.05267  0.0  0.08551  -2e-06  1.053094  0.0  0.092032  0.082249  -6e-06  1.052459  0.0
H  H10  1  0.69315131  0.61742480  0.01814199  1  0.085896  5.6e-05  0.96038  0.0  0.097725  0.0  1.018219  0.0  0.099566  0.0  1.01908  0.0  0.09831  0.096302  1e-06  1.017874  0.0
H  H11  1  0.19344748  0.63453985  0.98194555  1  0.08629  -4.6e-05  0.961438  0.0  0.098408  -0.0  1.018984  0.0  0.100235  -0.0  1.019927  0.0  0.097955  0.096985  -3e-06  1.018618  0.0
H  H12  1  0.76698229  0.75052672  0.13449264  1  0.078063  -2e-06  1.004548  0.0  0.087142  6e-06  1.069333  0.0  0.088269  3e-06  1.071707  0.0  0.091052  0.086331  1e-05  1.067745  0.0
H  H13  1  0.26695232  0.88415967  0.86541029  1  0.080423  1e-06  1.000677  0.0  0.088756  -6e-06  1.066228  0.0  0.089893  -3e-06  1.068568  0.0  0.091926  0.087942  -1e-05  1.064655  0.0
H  H14  1  0.02377709  0.61769622  0.24588962  1  0.098435  1.1e-05  0.969297  0.0  0.108729  -2.6e-05  1.031688  0.0  0.111558  -1.8e-05  1.03026  0.0  0.103043  0.106594  -4e-05  1.032886  0.0
H  H15  1  0.52380151  0.86292692  0.75402680  1  0.099351  -1.5e-05  0.969879  0.0  0.109403  2.6e-05  1.032306  0.0  0.112155  1.8e-05  1.030982  0.0  0.103753  0.107333  4e-05  1.033411  0.0
H  H16  1  0.50878539  0.56661879  0.22330479  1  0.090687  4.5e-05  0.956101  0.0  0.106532  5.9e-05  1.02277  0.0  0.106899  4.8e-05  1.022977  0.0  0.10072  0.106717  6.7e-05  1.021875  0.0
H  H17  1  0.00870283  0.78961743  0.77669468  1  0.089182  -4e-05  0.956085  0.0  0.104814  -5.8e-05  1.02326  0.0  0.105218  -4.8e-05  1.023411  0.0  0.09936  0.104987  -6.7e-05  1.022396  0.0
H  H18  1  0.52922577  0.39791312  0.18130750  1  0.075466  -4.9e-05  0.959561  0.0  0.088859  -2.1e-05  1.034873  0.0  0.090115  -1.1e-05  1.034393  0.0  0.089888  0.088641  -3.2e-05  1.03401  0.0
H  H19  1  0.02919218  0.57886322  0.81876380  1  0.075641  4.6e-05  0.958924  0.0  0.089122  2.1e-05  1.034168  0.0  0.090364  1.1e-05  1.033722  0.0  0.090233  0.088906  2.7e-05  1.033326  0.0
H  H20  1  0.37067628  0.58118733  0.12393872  1  0.065263  3.7e-05  0.975851  0.0  0.081901  2.1e-05  1.045027  0.0  0.08252  1.5e-05  1.045402  0.0  0.085026  0.081285  2.9e-05  1.045175  0.0
H  H21  1  0.87046150  0.70477501  0.87602182  1  0.065291  -3e-05  0.976756  0.0  0.082006  -2.1e-05  1.045723  0.0  0.082622  -1.6e-05  1.046092  0.0  0.085315  0.081381  -3e-05  1.0459  0.0
H  H22  1  0.86782917  0.11735663  0.27523801  1  0.083401  0.000433  0.917177  0.001  0.091432  0.000161  0.979534  0.0  0.093933  0.000123  0.977899  0.0  0.116651  0.089492  0.000176  0.981008  0.0
H  H23  1  0.36783926  0.39265739  0.72481504  1  0.082936  -0.000433  0.915486  -0.001  0.090878  -0.000163  0.977931  0.0  0.093389  -0.000125  0.976225  0.0  0.117037  0.08896  -0.000177  0.979381  0.0
H  H24  1  0.74108253  0.17108133  0.11215581  1  0.084708  -5e-06  0.975495  0.0  0.094643  2e-06  1.043253  0.0  0.097026  2e-06  1.042945  0.0  0.095735  0.093041  3e-06  1.043138  0.0
H  H25  1  0.24043564  0.28334296  0.88785633  1  0.083437  5e-06  0.976762  0.0  0.093378  -2e-06  1.044407  0.0  0.09574  -2e-06  1.044146  0.0  0.094926  0.091753  -2e-06  1.044348  0.0
H  H26  1  0.54779234  0.11967830  0.00416296  1  0.079056  3e-06  0.966986  0.0  0.093348  -1e-06  1.024046  0.0  0.095746  -1e-06  1.023258  0.0  0.096939  0.09164  -3e-06  1.024641  0.0
H  H27  1  0.04727833  0.12357451  0.99572592  1  0.079144  5e-06  0.96638  0.0  0.093296  1e-06  1.023687  0.0  0.09564  0.0  1.022956  0.0  0.09667  0.091635  2e-06  1.024228  0.0
H  H28  1  0.37774538  0.92358219  0.08723575  1  0.084881  -1.4e-05  0.950631  0.0  0.099438  0.0  1.004561  0.0  0.101953  -1e-06  1.0042  0.0  0.098966  0.097562  1e-06  1.004952  0.0
H  H29  1  0.87798613  0.01003253  0.91258271  1  0.085111  2e-05  0.949391  0.0  0.099912  -0.0  1.003022  0.0  0.102442  1e-06  1.002654  0.0  0.099184  0.097949  -4e-06  1.003513  0.0
H  H30  1  0.41037912  0.77176556  0.27843219  1  0.090879  3.1e-05  0.966688  0.0  0.104138  2.8e-05  1.022707  0.0  0.10622  2.5e-05  1.022081  0.0  0.104858  0.102907  3e-05  1.022596  0.0
H  H31  1  0.91093751  0.04980387  0.72136249  1  0.092091  -3.1e-05  0.96678  0.0  0.105605  -2.8e-05  1.022525  0.0  0.107703  -2.5e-05  1.02189  0.0  0.105465  0.104388  -3e-05  1.022384  0.0
H  H32  1  0.60812496  0.81707685  0.38370072  1  0.116967  -1.3e-05  0.946901  0.0  0.125576  -1.2e-05  1.009191  0.0  0.130341  -2.4e-05  1.005882  0.0  0.107661  0.122095  1e-06  1.011773  0.0
H  H33  1  0.10864923  0.20060643  0.61625770  1  0.117678  1.1e-05  0.947549  0.0  0.126542  1.2e-05  1.00933  0.0  0.131437  2.5e-05  1.005865  0.0  0.108062  0.122979  -1e-06  1.012013  0.0
H  H34  1  0.03557830  0.86201732  0.21948027  1  0.068806  1.3e-05  0.943123  0.0  0.08709  -4e-06  1.008102  0.0  0.087768  -3e-06  1.007693  0.0  0.088415  0.086577  -3e-05  1.008493  0.0
H  H35  1  0.53533364  0.08125586  0.78053951  1  0.067658  -6e-06  0.943156  0.0  0.086149  5e-06  1.008142  0.0  0.086779  3e-06  1.007789  0.0  0.088119  0.08565  3e-05  1.008514  0.0
H  H36  1  0.15832661  0.73623473  0.33437532  1  0.108684  -0.000182  0.94871  0.0  0.121892  -0.000147  1.01673  0.0  0.12397  -8.2e-05  1.014019  0.0  0.104122  0.120459  -0.000221  1.018637  0.0
H  H37  1  0.65834126  0.07046696  0.66571792  1  0.108068  0.000188  0.949025  0.0  0.12174  0.000147  1.016655  0.0  0.123826  8.1e-05  1.013916  0.0  0.103936  0.120228  0.000219  1.018742  0.0
H  H38  1  0.14176856  0.94903195  0.28618151  1  0.081769  -4.5e-05  0.977981  0.0  0.092929  -4.2e-05  1.053925  0.0  0.094669  -1.2e-05  1.053378  0.0  0.091002  0.091485  -0.000101  1.05467  0.0
H  H39  1  0.64192281  0.23484666  0.71407882  1  0.079114  4.2e-05  0.977387  0.0  0.090437  4.3e-05  1.053577  0.0  0.092196  1.2e-05  1.053009  0.0  0.089235  0.089009  0.000101  1.054307  0.0
H  H40  1  0.78959807  0.41765209  0.34838136  1  0.084173  0.000159  0.954025  0.0  0.102388  9.2e-05  1.017602  0.0  0.101407  7.2e-05  1.019847  0.0  0.094877  0.102896  0.000118  1.016155  0.0
H  H41  1  0.28900131  0.76628842  0.65168146  1  0.083603  -0.000161  0.954311  0.0  0.102006  -9.3e-05  1.017639  0.0  0.101066  -7.2e-05  1.019861  0.0  0.094817  0.10251  -0.000119  1.016181  0.0
H  H42  1  0.84349721  0.49912482  0.43976427  1  0.093428  -0.003657  0.937455  -0.005  0.1111  -0.002427  0.998754  -0.003  0.111068  -0.001597  0.998508  -0.002  0.099166  0.111042  -0.003094  0.998907  -0.004
H  H43  1  0.34296710  0.93918221  0.56023783  1  0.092263  0.003651  0.935982  0.005  0.109885  0.002422  0.997492  0.003  0.109872  0.001594  0.997235  0.002  0.098048  0.109787  0.003086  0.997682  0.004
H  H44  1  0.83524886  0.29314838  0.48059111  1  0.080384  -0.000779  0.941448  -0.001  0.096717  -0.000349  1.005902  -0.001  0.097074  -0.000109  1.005615  0.0  0.092928  0.0964  -0.000595  1.006192  -0.001
H  H45  1  0.33486073  0.77395782  0.51950402  1  0.079309  0.000775  0.940454  0.001  0.09547  0.000348  1.005453  0.001  0.095845  0.000109  1.005115  0.0  0.091808  0.095152  0.000592  1.005722  0.001
C  C46  1  0.20264947  0.22960083  0.37085428  1  0.643561  0.004895  3.812969  0.008  0.600278  0.000357  4.115463  0.002  0.636523  0.000398  4.109318  0.002  0.22288  0.575335  0.000321  4.118761  0.003
C  C47  1  0.70275951  0.60011835  0.62916383  1  0.644572  -0.004924  3.809491  -0.008  0.601167  -0.000363  4.11362  -0.002  0.637406  -0.000401  4.107424  -0.002  0.22411  0.576225  -0.000327  4.116981  -0.003
C  C48  1  0.24966300  0.33535328  0.26310498  1  0.01852  -0.00086  3.654222  -0.001  -0.001549  -0.000357  3.886565  -0.001  -0.000188  -0.000131  3.893934  0.0  0.008451  -0.002727  -0.000481  3.881399  -0.001
C  C49  1  0.74987561  0.59794419  0.73690332  1  0.020758  0.000891  3.652921  0.001  -0.002348  0.000355  3.890619  0.001  -0.00103  0.000131  3.897972  0.0  0.007177  -0.003547  0.000481  3.885453  0.001
C  C50  1  0.09793861  0.41464164  0.19129457  1  0.050242  -0.00012  3.754922  0.0  0.064526  4.4e-05  3.990064  0.0  0.064663  9e-05  4.012973  0.0  -0.015082  0.064453  -6.2e-05  3.974691  0.0
C  C51  1  0.59818081  0.60523142  0.80877034  1  0.050093  0.000125  3.755686  0.0  0.065116  -4.5e-05  3.99109  0.0  0.065268  -9.2e-05  4.014011  0.0  -0.015062  0.065074  7.9e-05  3.975672  0.0
C  C52  1  0.05826431  0.34227054  0.12436588  1  -0.118568  -0.001405  3.755105  -0.001  -0.139832  -0.000303  4.007311  0.0  -0.141816  -0.000161  4.027948  0.0  -0.097048  -0.138498  -0.000486  3.993543  0.0
C  C53  1  0.55861785  0.46579203  0.87572113  1  -0.116844  0.001368  3.755012  0.001  -0.13805  0.000303  4.006355  0.0  -0.140055  0.000162  4.027007  0.0  -0.095681  -0.136703  0.000532  3.992541  0.0
C  C54  1  0.91309095  0.41554001  0.06241451  1  -0.082234  0.00092  3.803209  0.001  -0.092961  0.000136  4.050319  0.0  -0.095576  0.000107  4.073276  0.0  -0.097783  -0.091292  0.00017  4.03482  0.0
C  C55  1  0.41348919  0.47700532  0.93772467  1  -0.084184  -0.000869  3.804022  -0.001  -0.094679  -0.000137  4.051729  0.0  -0.097236  -0.000108  4.074705  0.0  -0.099365  -0.093037  -0.000162  4.036255  0.0
C  C56  1  0.80699710  0.56182943  0.06623119  1  -0.081004  -0.001957  3.792958  -0.002  -0.090753  -0.000396  4.032695  0.0  -0.092763  -0.000202  4.054371  0.0  -0.095653  -0.089293  -0.000654  4.018233  -0.001
C  C57  1  0.30727908  0.62709793  0.93383791  1  -0.083084  0.001886  3.794978  0.002  -0.092989  0.000398  4.034103  0.0  -0.095035  0.000203  4.055787  0.0  -0.095893  -0.091534  0.000642  4.019657  0.001
C  C58  1  0.84824415  0.63607594  0.13119720  1  -0.075829  0.000721  3.793904  0.001  -0.086239  0.000102  4.037992  0.0  -0.08794  9.4e-05  4.059794  0.0  -0.096087  -0.085108  0.000109  4.023179  0.0
C  C59  1  0.34829856  0.76641620  0.86874462  1  -0.076089  -0.000678  3.791486  -0.001  -0.085731  -0.000104  4.035544  0.0  -0.087414  -9.4e-05  4.057307  0.0  -0.095623  -0.084588  -0.000108  4.020718  0.0
C  C60  1  0.99249035  0.56219009  0.19357315  1  -0.109781  -0.001239  3.739209  -0.001  -0.131688  -0.000367  3.986012  0.0  -0.133605  -0.000212  4.005605  0.0  -0.09251  -0.130296  -0.000586  3.972786  -0.001
C  C61  1  0.49257950  0.75502069  0.80638673  1  -0.112699  0.001229  3.743362  0.001  -0.134643  0.000368  3.990281  0.0  -0.13651  0.000213  4.009918  0.0  -0.094276  -0.133305  0.000533  3.977013  0.0
C  C62  1  0.43889324  0.50179198  0.19613183  1  -0.072478  5.7e-05  3.650643  0.0  -0.167826  0.000141  3.921719  0.0  -0.161351  0.000122  3.923356  0.0  -0.153159  -0.172846  0.000173  3.919979  0.0
C  C63  1  0.93883170  0.69756344  0.80388064  1  -0.070945  -7.2e-05  3.649548  0.0  -0.166417  -0.000142  3.92066  0.0  -0.159957  -0.00012  3.922268  0.0  -0.152259  -0.17148  -0.000159  3.91895  0.0
C  C64  1  0.71601550  0.07946269  0.41088270  1  0.654693  -0.002372  3.812757  -0.002  0.61449  -0.001562  4.117004  -0.002  0.654518  -0.001126  4.107426  -0.001  0.225365  0.58685  -0.001946  4.122682  -0.002
C  C65  1  0.21624111  0.49053523  0.58909391  1  0.654783  0.002359  3.813124  0.002  0.613473  0.00155  4.11869  0.002  0.653505  0.001121  4.109146  0.001  0.225148  0.585827  0.001935  4.124341  0.002
C  C66  1  0.80716365  0.02210693  0.32144384  1  0.012197  -0.006798  3.656102  -0.007  -0.008736  -0.004105  3.887797  -0.004  -0.008553  -0.002966  3.894783  -0.003  0.005988  -0.009183  -0.00509  3.883421  -0.005
C  C67  1  0.30727325  0.34366197  0.67857646  1  0.012962  0.006799  3.652964  0.007  -0.007393  0.0041  3.884576  0.004  -0.007164  0.002963  3.891419  0.003  0.005015  -0.007875  0.005071  3.880264  0.005
C  C68  1  0.68482660  0.99936313  0.25492976  1  0.05041  5.4e-05  3.750668  0.0  0.065732  -4.1e-05  3.985356  0.0  0.065924  -2.8e-05  4.008397  0.0  -0.0152  0.065231  -4.7e-05  3.970055  0.0
C  C69  1  0.18494635  0.25419383  0.74504633  1  0.051558  -5.7e-05  3.749145  0.0  0.06675  4.1e-05  3.983886  0.0  0.066997  2.8e-05  4.006834  0.0  -0.014268  0.066223  5.3e-05  3.968622  0.0
C  C70  1  0.66803243  0.08348906  0.14806549  1  -0.125759  0.000497  3.765835  0.0  -0.145601  0.000118  4.014876  0.0  -0.148108  6.7e-05  4.036261  0.0  -0.095836  -0.143636  0.000154  3.999482  0.0
C  C71  1  0.16772243  0.23148807  0.85188906  1  -0.125457  -0.000488  3.766384  0.0  -0.145233  -0.000118  4.015446  0.0  -0.147746  -6.6e-05  4.036816  0.0  -0.095387  -0.143288  -0.000154  4.000141  0.0
C  C72  1  0.55785100  0.05612196  0.08780659  1  -0.091563  -0.000325  3.824586  0.0  -0.102676  -4.6e-05  4.072703  0.0  -0.105093  -3.6e-05  4.094977  0.0  -0.100397  -0.10083  -7.1e-05  4.057331  0.0
C  C73  1  0.05760937  0.14363962  0.91209436  1  -0.091371  0.000307  3.82311  0.0  -0.102326  4.6e-05  4.071072  0.0  -0.10471  3.6e-05  4.093402  0.0  -0.100649  -0.100529  7.2e-05  4.055698  0.0
C  C74  1  0.46277892  0.94568703  0.13436016  1  -0.090092  0.000734  3.799843  0.001  -0.103088  0.000163  4.04597  0.0  -0.105446  8.5e-05  4.067924  0.0  -0.097483  -0.101435  0.000274  4.030827  0.0
C  C75  1  0.96291824  0.07949646  0.86551295  1  -0.089466  -0.000753  3.796949  -0.001  -0.102502  -0.000164  4.042839  0.0  -0.104877  -8.4e-05  4.064803  0.0  -0.09718  -0.100781  -0.000281  4.027716  0.0
C  C76  1  0.48074288  0.86060528  0.24115449  1  -0.065936  -0.000299  3.775868  0.0  -0.077272  -2.9e-05  4.023481  0.0  -0.078547  -2.4e-05  4.044418  0.0  -0.086692  -0.076361  -5.4e-05  4.008542  0.0
C  C77  1  0.98113631  0.10135883  0.75872097  1  -0.067638  0.000308  3.776973  0.0  -0.079438  2.9e-05  4.024857  0.0  -0.080732  2.4e-05  4.045845  0.0  -0.088372  -0.078515  5.9e-05  4.009853  0.0
C  C78  1  0.59136450  0.88651032  0.30101116  1  -0.084352  0.000664  3.670797  0.001  -0.10727  0.000148  3.918124  0.0  -0.108245  7e-05  3.934906  0.0  -0.083194  -0.106622  0.000271  3.907218  0.0
C  C79  1  0.09174174  0.18728511  0.69894353  1  -0.0861  -0.000667  3.67134  -0.001  -0.109011  -0.000149  3.918454  0.0  -0.110115  -6.9e-05  3.935222  0.0  -0.083011  -0.108278  -0.000279  3.907561  0.0
C  C80  1  0.07583981  0.85563517  0.29615937  1  -0.089484  -0.000902  3.63936  -0.001  -0.181265  -0.000675  3.910973  -0.001  -0.174929  -0.000418  3.910983  0.0  -0.154932  -0.185536  -0.000932  3.91095  -0.001
C  C81  1  0.57586634  0.15163783  0.70393802  1  -0.084991  0.000887  3.637597  0.001  -0.177129  0.000674  3.908548  0.001  -0.170777  0.000418  3.908609  0.0  -0.15258  -0.181449  0.000929  3.90853  0.001
C  C82  1  0.77842419  0.41552512  0.42937916  1  -0.031809  -0.000161  3.624905  0.002  -0.121774  -0.001839  3.892102  0.0  -0.112962  -0.001149  3.897533  0.0  -0.160138  -0.127657  -0.002384  3.888161  -0.001
C  C83  1  0.27793291  0.84514306  0.57066227  1  -0.028194  0.00015  3.620721  -0.002  -0.118081  0.001832  3.888157  0.0  -0.109301  0.001147  3.893555  0.0  -0.158102  -0.123938  0.002375  3.884267  0.001
O  O84  1  0.26610007  0.22797693  0.45322870  1  -0.574437  -0.090158  2.093519  -0.121  -0.557145  -0.053382  2.378594  -0.078  -0.599082  -0.039477  2.370964  -0.061  -0.312511  -0.528014  -0.062115  2.383519  -0.088
O  O85  1  0.76604455  0.68110055  0.54676047  1  -0.574644  0.090318  2.093466  0.121  -0.558503  0.053447  2.37813  0.079  -0.60037  0.039519  2.370319  0.061  -0.314133  -0.529418  0.062236  2.383084  0.088
O  O86  1  0.10489667  0.14458265  0.37155591  1  -0.584215  -0.012586  1.997664  -0.016  -0.535018  -0.006342  2.220765  -0.009  -0.564722  -0.003394  2.215921  -0.005  -0.298847  -0.513524  -0.009419  2.223229  -0.013
O  O87  1  0.60512047  0.51569315  0.62848369  1  -0.58418  0.012609  1.996839  0.016  -0.534285  0.006348  2.220025  0.009  -0.564062  0.003396  2.215305  0.005  -0.299019  -0.51276  0.009446  2.222438  0.013
O  O88  1  0.32414011  0.44995611  0.27761533  1  -0.297485  0.00155  2.369169  0.001  -0.23333  0.001217  2.630957  0.001  -0.248667  0.001215  2.629561  0.001  -0.230155  -0.221869  0.0011  2.631772  0.001
O  O89  1  0.82425235  0.72714210  0.72235101  1  -0.296912  -0.001553  2.369895  -0.001  -0.232588  -0.001217  2.631963  -0.001  -0.247932  -0.001217  2.630552  -0.001  -0.229108  -0.221069  -0.001141  2.63275  -0.001
O  O90  1  0.75928178  0.00434625  0.50495928  1  -0.562022  0.071221  2.063539  0.094  -0.542882  0.045767  2.34371  0.067  -0.581212  0.035039  2.332887  0.054  -0.302953  -0.516216  0.052175  2.350864  0.073
O  O91  1  0.25980616  0.50955858  0.49506238  1  -0.563551  -0.071115  2.063039  -0.094  -0.543111  -0.04568  2.34461  -0.066  -0.581369  -0.034956  2.333738  -0.054  -0.303512  -0.516468  -0.052116  2.35179  -0.073
O  O92  1  0.59972597  0.20881576  0.37917342  1  -0.597366  -0.057969  2.139044  -0.078  -0.566063  -0.03791  2.42639  -0.056  -0.607752  -0.030014  2.418441  -0.047  -0.312037  -0.536896  -0.041723  2.431437  -0.059
O  O93  1  0.09974416  0.58809698  0.62072313  1  -0.595557  0.057799  2.139347  0.078  -0.56484  0.037808  2.426106  0.056  -0.60656  0.029939  2.418223  0.046  -0.310861  -0.53569  0.041615  2.431124  0.059
O  O94  1  0.93377374  0.87531973  0.36399867  1  -0.292903  -0.003758  2.369894  -0.003  -0.232947  -0.002421  2.638721  -0.002  -0.2486  -0.001934  2.635638  -0.002  -0.22682  -0.220986  -0.002873  2.640154  -0.003
O  O95  1  0.43399848  0.23956654  0.63600114  1  -0.295265  0.003744  2.36965  0.003  -0.234714  0.002413  2.639194  0.002  -0.250307  0.00193  2.636055  0.002  -0.227655  -0.222783  0.002862  2.64066  0.003
O  O96  1  0.60128865  0.46847719  0.45237174  1  -0.528592  -0.06142  2.242588  -0.083  -0.479672  -0.043183  2.520996  -0.064  -0.511623  -0.033224  2.508221  -0.052  -0.413976  -0.457222  -0.049488  2.529721  -0.07
O  O97  1  0.10081865  0.92107835  0.54758013  1  -0.529333  0.061261  2.242025  0.082  -0.482283  0.043109  2.519953  0.064  -0.514227  0.033173  2.507073  0.052  -0.413886  -0.459869  0.049385  2.528761  0.07
