# generated using pymatgen
data_CdH25C26N9O4
_symmetry_space_group_name_H-M   'P 1'
_cell_length_a   12.19525075
_cell_length_b   12.19529301
_cell_length_c   23.02773961
_cell_angle_alpha   86.86360840
_cell_angle_beta   86.86385948
_cell_angle_gamma   65.98795004
_symmetry_Int_Tables_number   1
_chemical_formula_structural   CdH25C26N9O4
_chemical_formula_sum   'Cd4 H100 C104 N36 O16'
_cell_volume   3121.74787820
_cell_formula_units_Z   4
loop_
 _symmetry_equiv_pos_site_id
 _symmetry_equiv_pos_as_xyz
  1  'x, y, z'
loop_
 _atom_site_type_symbol
 _atom_site_label
 _atom_site_symmetry_multiplicity
 _atom_site_fract_x
 _atom_site_fract_y
 _atom_site_fract_z
 _atom_site_occupancy
 _atom_site_pbe_bader_charge
 _atom_site_pbe_bader_spin_density
 _atom_site_pbe_cm5_charge
 _atom_site_pbe_ddec_charge
 _atom_site_pbe_ddec_spin_density
 _atom_site_pbe_ddec_sum_bond_order
 _atom_site_pbe_magmom
Cd  Cd0  1  0.05546041  0.52437827  0.73421854  1  1.25329  0  0.782324  0.840806  0  2.293835  0
Cd  Cd1  1  0.47562957  0.94453023  0.76578501  1  1.253305  0  0.782311  0.840837  0  2.293803  0
Cd  Cd2  1  0.94454196  0.47561711  0.26578297  1  1.253502  0  0.782359  0.840878  0  2.293839  0
Cd  Cd3  1  0.52437011  0.05546623  0.23421611  1  1.253436  0  0.782317  0.840843  0  2.293892  0
H  H4  1  0.36367633  0.54565440  0.84752296  1  0.061097  0  0.098005  0.094107  0  1.034879  0
H  H5  1  0.45849568  0.51157126  0.94280297  1  0.05101  0  0.096321  0.090471  0  1.020118  0
H  H6  1  0.54398804  0.30383702  0.98911591  1  0.06715  0  0.094752  0.092308  0  1.021212  0
H  H7  1  0.53318650  0.13429073  0.93752125  1  0.050524  0  0.100158  0.103145  0  1.004298  0
H  H8  1  0.14457412  0.63180440  0.85020273  1  0.164458  0  0.135954  0.108974  0  1.006501  0
H  H9  1  0.79390443  0.76495773  0.78940190  1  0.17802  0  0.148169  0.131378  0  0.985866  0
H  H10  1  0.69680100  0.94219992  0.86159128  1  0.179193  0  0.119305  0.125808  0  1.037551  0
H  H11  1  0.73503303  0.85547047  0.92688426  1  0.073708  0  0.117856  0.108001  0  0.968106  0
H  H12  1  0.67690105  0.12408096  0.81058355  1  0.077334  0  0.093961  0.135973  0  1.033142  0
H  H13  1  0.80110558  0.16315409  0.79404532  1  0.017053  0  0.089579  0.121288  0  1.038684  0
H  H14  1  0.82284087  0.01125285  0.79942121  1  0.034368  0  0.09186  0.128236  0  1.006975  0
H  H15  1  0.74274415  0.88830575  0.03006645  1  0.023362  0  0.093499  0.13323  0  0.984901  0
H  H16  1  0.87189870  0.79818611  0.98851623  1  0.029019  0  0.094254  0.131823  0  1.014563  0
H  H17  1  0.88812154  0.86269707  0.05182009  1  0.062743  0  0.089001  0.123371  0  1.063352  0
H  H18  1  0.75725407  0.36355259  0.00256068  1  0.071596  0  0.091513  0.128114  0  1.010848  0
H  H19  1  0.89661606  0.26975224  0.03095668  1  0.063931  0  0.091294  0.128726  0  1.064026  0
H  H20  1  0.89219717  0.33175426  0.95978975  1  0.040707  0  0.09095  0.12882  0  1.009216  0
H  H21  1  0.73331313  0.38485631  0.90202856  1  0.10111  0  0.117633  0.103608  0  0.978845  0
H  H22  1  0.71004908  0.32075180  0.83985231  1  0.082973  0  0.122073  0.113506  0  0.966977  0
H  H23  1  0.15747958  0.26065422  0.82307440  1  0.154044  0  0.128633  0.111442  0  1.039313  0
H  H24  1  0.79476069  0.48002584  0.78776007  1  0.255836  0  0.136259  0.131599  0  1.050014  0
H  H25  1  0.92893757  0.12685002  0.07239556  1  0.147873  0  0.111644  0.093508  0  1.075631  0
H  H26  1  0.92981244  0.98234996  0.07894322  1  0.076386  0  0.114114  0.096097  0  1.031254  0
H  H27  1  0.77222168  0.95646247  0.14635658  1  0.184336  0  0.143499  0.117912  0  1.012245  0
H  H28  1  0.53269104  0.31832695  0.15743497  1  0.151772  0  0.13444  0.110331  0  0.998845  0
H  H29  1  0.45434466  0.63632457  0.65247439  1  0.061094  0  0.09798  0.094107  0  1.034873  0
H  H30  1  0.48842870  0.54150640  0.55719534  1  0.050634  0  0.096356  0.090546  0  1.020088  0
H  H31  1  0.69616570  0.45601368  0.51088225  1  0.06716  0  0.09474  0.0923  0  1.021172  0
H  H32  1  0.86571197  0.46681388  0.56247975  1  0.050358  0  0.100157  0.103161  0  1.00436  0
H  H33  1  0.36818302  0.85542273  0.64980338  1  0.164475  0  0.135954  0.108998  0  1.00642  0
H  H34  1  0.23503838  0.20609227  0.71060068  1  0.177932  0  0.148204  0.131437  0  0.985809  0
H  H35  1  0.05780029  0.30319916  0.63840815  1  0.179193  0  0.119301  0.125787  0  1.037596  0
H  H36  1  0.14453283  0.26496279  0.57311622  1  0.073702  0  0.117888  0.108055  0  0.968075  0
H  H37  1  0.87591772  0.32310115  0.68941640  1  0.077407  0  0.09395  0.135981  0  1.033124  0
H  H38  1  0.83683977  0.19889973  0.70595391  1  0.017325  0  0.089572  0.121262  0  1.038751  0
H  H39  1  0.98874331  0.17715916  0.70058005  1  0.03441  0  0.091871  0.128287  0  1.006912  0
H  H40  1  0.11169491  0.25725553  0.46993521  1  0.023407  0  0.093506  0.133267  0  0.98487  0
H  H41  1  0.20181373  0.12810149  0.51148446  1  0.028843  0  0.094249  0.131828  0  1.014559  0
H  H42  1  0.13730311  0.11187948  0.44818176  1  0.062704  0  0.089006  0.123414  0  1.063334  0
H  H43  1  0.63644699  0.24274397  0.49743824  1  0.0716  0  0.091514  0.128123  0  1.010863  0
H  H44  1  0.73024791  0.10338169  0.46904295  1  0.063889  0  0.091303  0.128736  0  1.064019  0
H  H45  1  0.66824524  0.10779997  0.54020990  1  0.040721  0  0.090961  0.128832  0  1.009194  0
H  H46  1  0.61514621  0.26668067  0.59797083  1  0.101097  0  0.117633  0.103649  0  0.978864  0
H  H47  1  0.67924738  0.28994588  0.66014589  1  0.083065  0  0.122077  0.113525  0  0.967003  0
H  H48  1  0.73934889  0.84251779  0.67692867  1  0.154155  0  0.12859  0.111413  0  1.039348  0
H  H49  1  0.51997612  0.20523626  0.71224181  1  0.255893  0  0.136288  0.131647  0  1.050034  0
H  H50  1  0.87315174  0.07106155  0.42760506  1  0.147782  0  0.111652  0.093499  0  1.07564  0
H  H51  1  0.01765160  0.07018645  0.42105855  1  0.07672  0  0.114121  0.096048  0  1.031286  0
H  H52  1  0.04354424  0.22777941  0.35364656  1  0.184126  0  0.14348  0.11786  0  1.012234  0
H  H53  1  0.68167468  0.46729959  0.34256128  1  0.151984  0  0.134455  0.110396  0  0.998871  0
H  H54  1  0.63632332  0.45435029  0.15247662  1  0.06117  0  0.098034  0.094136  0  1.034803  0
H  H55  1  0.54150306  0.48843297  0.05719708  1  0.05052  0  0.096278  0.090448  0  1.020048  0
H  H56  1  0.45600891  0.69616792  0.01088417  1  0.067158  0  0.094764  0.092326  0  1.02115  0
H  H57  1  0.46681045  0.86571339  0.06247886  1  0.050553  0  0.100169  0.103161  0  1.004302  0
H  H58  1  0.85541758  0.36817309  0.14980916  1  0.164502  0  0.135919  0.108993  0  1.006346  0
H  H59  1  0.20609346  0.23503945  0.21060011  1  0.177958  0  0.148206  0.131463  0  0.985794  0
H  H60  1  0.30319776  0.05780184  0.13840841  1  0.179203  0  0.119287  0.125822  0  1.037613  0
H  H61  1  0.26495763  0.14453782  0.07311764  1  0.073723  0  0.117876  0.107992  0  0.968097  0
H  H62  1  0.32310040  0.87592054  0.18941738  1  0.077416  0  0.093982  0.135997  0  1.03311  0
H  H63  1  0.19889858  0.83684304  0.20595479  1  0.017341  0  0.089558  0.121272  0  1.038719  0
H  H64  1  0.17715880  0.98874525  0.20058029  1  0.034377  0  0.091855  0.128257  0  1.006947  0
H  H65  1  0.25725551  0.11169565  0.96993496  1  0.023388  0  0.09348  0.133203  0  0.984864  0
H  H66  1  0.12810006  0.20181648  0.01148256  1  0.029114  0  0.094238  0.131793  0  1.014572  0
H  H67  1  0.11187991  0.13730443  0.94818170  1  0.062693  0  0.089003  0.123391  0  1.063341  0
H  H68  1  0.24274557  0.63645210  0.99743890  1  0.071682  0  0.091484  0.128118  0  1.01086  0
H  H69  1  0.10338089  0.73025270  0.96904341  1  0.063886  0  0.091263  0.128709  0  1.064064  0
H  H70  1  0.10780069  0.66824868  0.04021081  1  0.040692  0  0.090974  0.128845  0  1.009174  0
H  H71  1  0.26668653  0.61514509  0.09797068  1  0.101055  0  0.117681  0.103688  0  0.978836  0
H  H72  1  0.28995238  0.67924805  0.16014822  1  0.082932  0  0.122058  0.113465  0  0.966993  0
H  H73  1  0.84252009  0.73934636  0.17692617  1  0.154056  0  0.128615  0.111421  0  1.039279  0
H  H74  1  0.20524078  0.51997237  0.21223921  1  0.255816  0  0.136267  0.131599  0  1.050042  0
H  H75  1  0.07105849  0.87315446  0.92760673  1  0.147791  0  0.111647  0.093474  0  1.075654  0
H  H76  1  0.07018183  0.01765442  0.92105870  1  0.076681  0  0.114105  0.096014  0  1.031328  0
H  H77  1  0.22777617  0.04354212  0.85364610  1  0.184251  0  0.143524  0.117911  0  1.012322  0
H  H78  1  0.46730054  0.68167522  0.84256318  1  0.152031  0  0.134465  0.11039  0  0.998863  0
H  H79  1  0.54565770  0.36367493  0.34752483  1  0.06106  0  0.098002  0.094117  0  1.034835  0
H  H80  1  0.51157367  0.45849063  0.44280525  1  0.050971  0  0.096358  0.090552  0  1.020092  0
H  H81  1  0.30383667  0.54398499  0.48911656  1  0.06717  0  0.094756  0.092342  0  1.021164  0
H  H82  1  0.13429217  0.53318736  0.43751850  1  0.050438  0  0.100165  0.103166  0  1.004299  0
H  H83  1  0.63182829  0.14457975  0.35019071  1  0.164553  0  0.13593  0.108978  0  1.00638  0
H  H84  1  0.76496218  0.79390795  0.28939597  1  0.178019  0  0.148186  0.131374  0  0.985783  0
H  H85  1  0.94219936  0.69680389  0.36159148  1  0.179153  0  0.119281  0.125811  0  1.037603  0
H  H86  1  0.85546412  0.73504216  0.42688039  1  0.073759  0  0.117843  0.107955  0  0.968195  0
H  H87  1  0.12408104  0.67690061  0.31058286  1  0.077324  0  0.093957  0.135974  0  1.033152  0
H  H88  1  0.16316079  0.80109966  0.29404536  1  0.017119  0  0.089582  0.121292  0  1.038699  0
H  H89  1  0.01125814  0.82284152  0.29941916  1  0.034397  0  0.091882  0.128318  0  1.006899  0
H  H90  1  0.88830564  0.74274634  0.53006442  1  0.023446  0  0.093495  0.13321  0  0.984855  0
H  H91  1  0.79818683  0.87189955  0.48851433  1  0.02882  0  0.094252  0.131806  0  1.014567  0
H  H92  1  0.86269744  0.88812238  0.55181745  1  0.062697  0  0.089013  0.123394  0  1.063358  0
H  H93  1  0.36355447  0.75725588  0.50256056  1  0.071608  0  0.09152  0.12814  0  1.010843  0
H  H94  1  0.26975355  0.89661816  0.53095498  1  0.063833  0  0.091314  0.128761  0  1.064093  0
H  H95  1  0.33175533  0.89219860  0.45978853  1  0.040667  0  0.090973  0.12885  0  1.009163  0
H  H96  1  0.38485345  0.73331990  0.40202756  1  0.101146  0  0.117617  0.103603  0  0.978864  0
H  H97  1  0.32075229  0.71005305  0.33985299  1  0.083026  0  0.122075  0.113479  0  0.967036  0
H  H98  1  0.26065166  0.15748324  0.32307143  1  0.154138  0  0.128606  0.111421  0  1.039335  0
H  H99  1  0.48002533  0.79476524  0.28775694  1  0.255876  0  0.136291  0.131655  0  1.050011  0
H  H100  1  0.12685152  0.92893594  0.57239419  1  0.14789  0  0.111642  0.093486  0  1.075657  0
H  H101  1  0.98234987  0.92981176  0.57894160  1  0.076465  0  0.114105  0.096059  0  1.031163  0
H  H102  1  0.95646348  0.77222204  0.64635505  1  0.184341  0  0.143501  0.117921  0  1.012295  0
H  H103  1  0.31832863  0.53268884  0.65743605  1  0.151777  0  0.134443  0.110325  0  0.998815  0
C  C104  1  0.32921637  0.38902673  0.78136387  1  1.643305  0  0.197106  0.590918  0  4.269477  0
C  C105  1  0.39379833  0.36056110  0.83837461  1  -0.077064  0  -0.006572  -0.022244  0  3.909725  0
C  C106  1  0.40168123  0.45523759  0.86719273  1  -0.017884  0  -0.09427  -0.116096  0  3.98909  0
C  C107  1  0.45498433  0.43577089  0.92105788  1  -0.064327  0  -0.096627  -0.085452  0  4.03411  0
C  C108  1  0.50205771  0.32027950  0.94701327  1  -0.073334  0  -0.102237  -0.101405  0  4.040438  0
C  C109  1  0.49590585  0.22522909  0.91835402  1  0.04014  0  -0.090654  -0.09796  0  3.995439  0
C  C110  1  0.44140703  0.24431300  0.86444625  1  -0.026335  0  -0.020808  -0.064108  0  3.958518  0
C  C111  1  0.43432922  0.14083402  0.83513017  1  1.545831  0  0.19121  0.560839  0  4.233165  0
C  C112  1  0.04904571  0.68489478  0.84624405  1  0.968763  0  0.146342  0.140888  0  3.977412  0
C  C113  1  0.87178611  0.75109042  0.81436159  1  0.97708  0  0.163967  0.078186  0  3.891892  0
C  C114  1  0.76864004  0.90126630  0.89268336  1  0.24033  0  -0.049853  -0.143566  0  3.900136  0
C  C115  1  0.79911516  0.99647609  0.91803685  1  0.030197  0  -0.018066  -0.03501  0  3.933975  0
C  C116  1  0.79342149  0.09595860  0.88242330  1  -0.066597  0  -0.00208  0.095859  0  3.948035  0
C  C117  1  0.77240786  0.09918986  0.81841236  1  -0.05297  0  -0.244541  -0.41495  0  3.957864  0
C  C118  1  0.80481513  0.19278315  0.90763927  1  0.028028  0  -0.020096  -0.04325  0  3.954663  0
C  C119  1  0.83277842  0.18689635  0.96661183  1  -0.00992  0  -0.001401  0.094678  0  3.930718  0
C  C120  1  0.84554863  0.08331064  0.00100388  1  0.021221  0  -0.018577  -0.032491  0  3.900871  0
C  C121  1  0.82584006  0.98867795  0.97723099  1  -0.067731  0  -0.004068  0.08913  0  3.928763  0
C  C122  1  0.83256597  0.87966002  0.01381145  1  -0.048452  0  -0.243828  -0.417167  0  3.961223  0
C  C123  1  0.84578857  0.29289145  0.99118830  1  -0.102326  0  -0.245762  -0.419875  0  3.965722  0
C  C124  1  0.77535582  0.30918445  0.87306533  1  0.253355  0  -0.042075  -0.120214  0  3.892024  0
C  C125  1  0.05966865  0.29640220  0.82362886  1  0.987526  0  0.133734  0.123907  0  3.993914  0
C  C126  1  0.87744048  0.40939333  0.80443165  1  0.914341  0  0.156477  0.075203  0  3.85999  0
C  C127  1  0.87655923  0.07511107  0.06416278  1  0.243097  0  -0.052283  -0.139391  0  3.897662  0
C  C128  1  0.72884168  0.05322332  0.13986197  1  0.970416  0  0.16199  0.083395  0  3.897871  0
C  C129  1  0.60893743  0.23785699  0.14392031  1  0.987106  0  0.143903  0.131556  0  3.994816  0
C  C130  1  0.61097092  0.67078460  0.71863583  1  1.643112  0  0.19711  0.590889  0  4.269698  0
C  C131  1  0.63943823  0.60620495  0.66162249  1  -0.07701  0  -0.006575  -0.022217  0  3.909574  0
C  C132  1  0.54476025  0.59832359  0.63280470  1  -0.017933  0  -0.094305  -0.116161  0  3.988931  0
C  C133  1  0.56422845  0.54501795  0.57894009  1  -0.063864  0  -0.096605  -0.085464  0  4.033945  0
C  C134  1  0.67972333  0.49794134  0.55298706  1  -0.073364  0  -0.102218  -0.101381  0  4.040345  0
C  C135  1  0.77477303  0.50409533  0.58164594  1  0.040276  0  -0.090638  -0.097977  0  3.995468  0
C  C136  1  0.75568701  0.55859696  0.63555230  1  -0.026352  0  -0.020843  -0.064117  0  3.958541  0
C  C137  1  0.85916648  0.56567276  0.66486941  1  1.545942  0  0.191205  0.560776  0  4.233343  0
C  C138  1  0.31509398  0.95095199  0.65376225  1  0.968891  0  0.146335  0.140773  0  3.977464  0
C  C139  1  0.24890417  0.12821153  0.68564199  1  0.977373  0  0.163951  0.078125  0  3.89192  0
C  C140  1  0.09873540  0.23135909  0.60731706  1  0.240369  0  -0.049857  -0.143623  0  3.900104  0
C  C141  1  0.00352344  0.20088593  0.58196306  1  0.029955  0  -0.018054  -0.03493  0  3.933766  0
C  C142  1  0.90403897  0.20657635  0.61757741  1  -0.066194  0  -0.002036  0.09596  0  3.947886  0
C  C143  1  0.90080689  0.22759551  0.68158818  1  -0.053081  0  -0.244564  -0.41504  0  3.957882  0
C  C144  1  0.80721694  0.19518014  0.59236134  1  0.02795  0  -0.02011  -0.043356  0  3.954865  0
C  C145  1  0.81310409  0.16721744  0.53338880  1  -0.009915  0  -0.001389  0.09466  0  3.930852  0
C  C146  1  0.91669100  0.15444807  0.49899633  1  0.021482  0  -0.018558  -0.032467  0  3.900913  0
C  C147  1  0.01132109  0.17415773  0.52276994  1  -0.067963  0  -0.004063  0.089101  0  3.928885  0
C  C148  1  0.12033876  0.16743450  0.48618993  1  -0.048265  0  -0.24384  -0.417266  0  3.961296  0
C  C149  1  0.70710769  0.15421031  0.50881129  1  -0.102357  0  -0.245786  -0.419883  0  3.965784  0
C  C150  1  0.69081564  0.22464074  0.62693376  1  0.253214  0  -0.042084  -0.120228  0  3.892145  0
C  C151  1  0.70359954  0.94032981  0.67637492  1  0.987965  0  0.133826  0.124016  0  3.993999  0
C  C152  1  0.59060938  0.12255768  0.69557080  1  0.914647  0  0.15653  0.075324  0  3.859927  0
C  C153  1  0.92489133  0.12343767  0.43583789  1  0.242828  0  -0.052309  -0.139301  0  3.897635  0
C  C154  1  0.94678033  0.27115506  0.36013939  1  0.97054  0  0.162031  0.08348  0  3.897788  0
C  C155  1  0.76214503  0.39105536  0.35607736  1  0.987332  0  0.143925  0.131468  0  3.994774  0
C  C156  1  0.67078508  0.61097642  0.21863657  1  1.643154  0  0.197101  0.590886  0  4.269506  0
C  C157  1  0.60620221  0.63944323  0.16162539  1  -0.077103  0  -0.006532  -0.022143  0  3.90968  0
C  C158  1  0.59831930  0.54476756  0.13280768  1  -0.017804  0  -0.094277  -0.11606  0  3.98905  0
C  C159  1  0.54501351  0.56423452  0.07894260  1  -0.063504  0  -0.096645  -0.085557  0  4.034189  0
C  C160  1  0.49793745  0.67972617  0.05298815  1  -0.073575  0  -0.102227  -0.101375  0  4.040449  0
C  C161  1  0.50409111  0.77477586  0.08164649  1  0.039837  0  -0.090601  -0.097883  0  3.995285  0
C  C162  1  0.55859531  0.75568979  0.13555374  1  -0.026236  0  -0.020922  -0.064345  0  3.958555  0
C  C163  1  0.56567313  0.85916712  0.16487030  1  1.545857  0  0.191251  0.561009  0  4.232839  0
C  C164  1  0.95094599  0.31508434  0.15376649  1  0.968933  0  0.146331  0.140747  0  3.977372  0
C  C165  1  0.12821002  0.24890089  0.18564283  1  0.977733  0  0.163963  0.0781  0  3.89188  0
C  C166  1  0.23135603  0.09873572  0.10731813  1  0.240387  0  -0.049826  -0.14364  0  3.900222  0
C  C167  1  0.20088631  0.00352294  0.08196414  1  0.030273  0  -0.018023  -0.034851  0  3.933733  0
C  C168  1  0.20658088  0.90403925  0.11757814  1  -0.066545  0  -0.002103  0.095786  0  3.94801  0
C  C169  1  0.22759361  0.90080835  0.18158909  1  -0.053125  0  -0.244539  -0.414985  0  3.957916  0
C  C170  1  0.19518813  0.80721516  0.09236082  1  0.027968  0  -0.020077  -0.043185  0  3.954607  0
C  C171  1  0.16721945  0.81310413  0.03338793  1  -0.009966  0  -0.001381  0.094628  0  3.930831  0
C  C172  1  0.15444654  0.91669256  0.99899761  1  0.021545  0  -0.018605  -0.032483  0  3.900934  0
C  C173  1  0.17415781  0.01132252  0.02277050  1  -0.06795  0  -0.004085  0.089042  0  3.92878  0
C  C174  1  0.16743369  0.12034055  0.98618955  1  -0.048539  0  -0.243802  -0.41711  0  3.961175  0
C  C175  1  0.15421020  0.70710948  0.00881185  1  -0.102396  0  -0.245724  -0.419866  0  3.965728  0
C  C176  1  0.22464654  0.69081340  0.12693524  1  0.253457  0  -0.042079  -0.120208  0  3.892019  0
C  C177  1  0.94033372  0.70359565  0.17637301  1  0.987738  0  0.133759  0.12392  0  3.993996  0
C  C178  1  0.12256099  0.59060405  0.19556765  1  0.91431  0  0.156526  0.075236  0  3.860099  0
C  C179  1  0.12343593  0.92489377  0.93583866  1  0.242822  0  -0.052312  -0.139331  0  3.897683  0
C  C180  1  0.27115258  0.94678353  0.86013901  1  0.970355  0  0.161966  0.083448  0  3.897744  0
C  C181  1  0.39105415  0.76214518  0.85607914  1  0.986787  0  0.143897  0.131408  0  3.994935  0
C  C182  1  0.38903234  0.32921453  0.28136380  1  1.643132  0  0.197049  0.590806  0  4.269898  0
C  C183  1  0.36056590  0.39379712  0.33837487  1  -0.07708  0  -0.006498  -0.022132  0  3.909798  0
C  C184  1  0.45523939  0.40168110  0.36719315  1  -0.017899  0  -0.094334  -0.116187  0  3.989114  0
C  C185  1  0.43577481  0.45498118  0.42105954  1  -0.064282  0  -0.09669  -0.085543  0  4.034059  0
C  C186  1  0.32028085  0.50205332  0.44701354  1  -0.073362  0  -0.10221  -0.101421  0  4.040324  0
C  C187  1  0.22523024  0.49590216  0.41835244  1  0.040292  0  -0.090623  -0.097936  0  3.995437  0
C  C188  1  0.24431622  0.44140629  0.36444505  1  -0.026426  0  -0.020841  -0.064165  0  3.958657  0
C  C189  1  0.14083857  0.43432730  0.33512884  1  1.546063  0  0.191292  0.561044  0  4.233115  0
C  C190  1  0.68491643  0.04905167  0.34623227  1  0.968942  0  0.146413  0.140891  0  3.977241  0
C  C191  1  0.75110086  0.87179182  0.31435356  1  0.977245  0  0.164003  0.078321  0  3.891721  0
C  C192  1  0.90126515  0.76864278  0.39268215  1  0.240485  0  -0.049814  -0.143579  0  3.900256  0
C  C193  1  0.99647622  0.79911547  0.41803618  1  0.03018  0  -0.018024  -0.034956  0  3.933791  0
C  C194  1  0.09596249  0.79342350  0.38242225  1  -0.066468  0  -0.00207  0.095943  0  3.947934  0
C  C195  1  0.09919187  0.77240708  0.31841192  1  -0.053084  0  -0.244558  -0.415063  0  3.957904  0
C  C196  1  0.19278452  0.80481972  0.40763790  1  0.027874  0  -0.020103  -0.043346  0  3.954802  0
C  C197  1  0.18689646  0.83278360  0.46661173  1  -0.009635  0  -0.001395  0.094649  0  3.93094  0
C  C198  1  0.08330867  0.84555086  0.50100254  1  0.02123  0  -0.018564  -0.032432  0  3.900932  0
C  C199  1  0.98867768  0.82584156  0.47722938  1  -0.067942  0  -0.004093  0.089088  0  3.928939  0
C  C200  1  0.87966090  0.83256772  0.51380929  1  -0.048262  0  -0.243866  -0.417188  0  3.961346  0
C  C201  1  0.29289287  0.84578990  0.49118752  1  -0.102287  0  -0.2458  -0.419946  0  3.965892  0
C  C202  1  0.30918402  0.77536066  0.37306418  1  0.253326  0  -0.042035  -0.120058  0  3.891935  0
C  C203  1  0.29639922  0.05967195  0.32362434  1  0.987941  0  0.133844  0.124043  0  3.99388  0
C  C204  1  0.40939118  0.87744336  0.30442843  1  0.914675  0  0.15651  0.075297  0  3.860029  0
C  C205  1  0.07511193  0.87655899  0.56416225  1  0.242989  0  -0.052282  -0.139331  0  3.897527  0
C  C206  1  0.05322292  0.72884407  0.63986286  1  0.970287  0  0.162003  0.083341  0  3.897812  0
C  C207  1  0.23785737  0.60893591  0.64392079  1  0.987463  0  0.143896  0.131532  0  3.994756  0
N  N208  1  0.98377403  0.67161303  0.80305979  1  -1.200877  0  -0.350306  -0.312891  0  3.499906  0
N  N209  1  0.98346211  0.76833045  0.88332447  1  -0.703615  0  -0.214028  -0.25379  0  3.16068  0
N  N210  1  0.87101419  0.80976771  0.86231120  1  -0.803252  0  -0.130243  0.166313  0  3.742994  0
N  N211  1  0.99056186  0.39510381  0.79112185  1  -1.211302  0  -0.349366  -0.317085  0  3.482847  0
N  N212  1  0.99550558  0.24849410  0.85603679  1  -0.71156  0  -0.22722  -0.282485  0  3.141024  0
N  N213  1  0.87993855  0.32169974  0.84319571  1  -0.802083  0  -0.133393  0.163422  0  3.71314  0
N  N214  1  0.76931970  0.11865065  0.10307955  1  -0.794535  0  -0.128371  0.182796  0  3.70919  0
N  N215  1  0.69364796  0.23728982  0.10478762  1  -0.693349  0  -0.220548  -0.266033  0  3.091159  0
N  N216  1  0.62730347  0.12633311  0.16651344  1  -1.220186  0  -0.353114  -0.318161  0  3.521527  0
N  N217  1  0.32837629  0.01622273  0.69694594  1  -1.201137  0  -0.350344  -0.312907  0  3.499971  0
N  N218  1  0.23166130  0.01653696  0.61667970  1  -0.704102  0  -0.213983  -0.253726  0  3.160685  0
N  N219  1  0.19022946  0.12898377  0.63769135  1  -0.802949  0  -0.130327  0.16631  0  3.743041  0
N  N220  1  0.60489947  0.00943597  0.70888118  1  -1.211729  0  -0.349414  -0.317169  0  3.482816  0
N  N221  1  0.75150663  0.00449072  0.64396524  1  -0.712094  0  -0.227215  -0.282466  0  3.141085  0
N  N222  1  0.67830200  0.12005792  0.65680562  1  -0.801937  0  -0.133479  0.163208  0  3.713338  0
N  N223  1  0.88135390  0.23067793  0.39692085  1  -0.794485  0  -0.128457  0.182714  0  3.709056  0
N  N224  1  0.76271244  0.30634403  0.39520973  1  -0.693794  0  -0.220513  -0.266016  0  3.091059  0
N  N225  1  0.87367070  0.37269116  0.33348602  1  -1.22016  0  -0.353141  -0.318147  0  3.521508  0
N  N226  1  0.01622033  0.32837078  0.19694836  1  -1.201352  0  -0.350334  -0.312868  0  3.499982  0
N  N227  1  0.01653225  0.23165418  0.11668366  1  -0.704603  0  -0.213968  -0.25373  0  3.160613  0
N  N228  1  0.12898102  0.19022644  0.13769315  1  -0.802872  0  -0.130336  0.166343  0  3.743078  0
N  N229  1  0.00943960  0.60489440  0.20887786  1  -1.211407  0  -0.349406  -0.317064  0  3.483011  0
N  N230  1  0.00449408  0.75150648  0.14396464  1  -0.711741  0  -0.227181  -0.282468  0  3.14104  0
N  N231  1  0.12006202  0.67829883  0.15680445  1  -0.801956  0  -0.133484  0.163309  0  3.713201  0
N  N232  1  0.23067457  0.88135374  0.89692236  1  -0.794431  0  -0.128415  0.182713  0  3.709112  0
N  N233  1  0.30634362  0.76271482  0.89521176  1  -0.693498  0  -0.220486  -0.265884  0  3.091191  0
N  N234  1  0.37269081  0.87366962  0.83348591  1  -1.219875  0  -0.353125  -0.318148  0  3.521431  0
N  N235  1  0.67162964  0.98378026  0.30304917  1  -1.201069  0  -0.350379  -0.312985  0  3.499936  0
N  N236  1  0.76834552  0.98346732  0.38331491  1  -0.704547  0  -0.214054  -0.253931  0  3.160662  0
N  N237  1  0.80977647  0.87101922  0.36230419  1  -0.802774  0  -0.130299  0.166401  0  3.742936  0
N  N238  1  0.39510109  0.99056507  0.29111848  1  -1.211784  0  -0.349406  -0.317144  0  3.482804  0
N  N239  1  0.24849304  0.99550904  0.35603318  1  -0.711941  0  -0.22725  -0.282505  0  3.141074  0
N  N240  1  0.32169856  0.87994312  0.34319274  1  -0.802052  0  -0.133491  0.163167  0  3.713404  0
N  N241  1  0.11865206  0.76931848  0.60307879  1  -0.794517  0  -0.128382  0.182809  0  3.709191  0
N  N242  1  0.23729087  0.69364523  0.60478715  1  -0.693719  0  -0.220537  -0.266036  0  3.091138  0
N  N243  1  0.12633347  0.62730515  0.66651498  1  -1.220057  0  -0.353115  -0.318098  0  3.52143  0
O  O244  1  0.21591833  0.44988993  0.78961137  1  -1.188416  0  -0.346455  -0.579932  0  2.321767  0
O  O245  1  0.38527588  0.35896859  0.73354797  1  -1.200097  0  -0.348329  -0.588194  0  2.120535  0
O  O246  1  0.34417591  0.15760170  0.80518630  1  -1.187348  0  -0.327578  -0.566468  0  2.191535  0
O  O247  1  0.52322342  0.03828388  0.84061332  1  -1.180235  0  -0.338997  -0.571442  0  2.260568  0
O  O248  1  0.55011118  0.78408253  0.71038672  1  -1.188304  0  -0.346449  -0.579943  0  2.321882  0
O  O249  1  0.64102808  0.61472943  0.76645131  1  -1.199988  0  -0.348311  -0.588158  0  2.120712  0
O  O250  1  0.84239986  0.65582306  0.69481278  1  -1.187315  0  -0.327591  -0.566474  0  2.191686  0
O  O251  1  0.96171519  0.47677590  0.65938878  1  -1.180405  0  -0.338995  -0.57139  0  2.260632  0
O  O252  1  0.78408221  0.55011275  0.21038954  1  -1.188308  0  -0.346468  -0.579939  0  2.3218  0
O  O253  1  0.61472376  0.64103610  0.26645161  1  -1.200088  0  -0.34832  -0.588177  0  2.120554  0
O  O254  1  0.65582555  0.84239980  0.19481376  1  -1.187421  0  -0.32755  -0.566526  0  2.191469  0
O  O255  1  0.47677893  0.96171727  0.15938715  1  -1.180273  0  -0.339054  -0.571504  0  2.260499  0
O  O256  1  0.44988850  0.21591475  0.28961307  1  -1.188389  0  -0.346454  -0.579942  0  2.32188  0
O  O257  1  0.35897607  0.38527181  0.23354868  1  -1.20001  0  -0.348241  -0.588083  0  2.120821  0
O  O258  1  0.15760610  0.34417417  0.30518553  1  -1.187433  0  -0.327629  -0.566617  0  2.191603  0
O  O259  1  0.03828629  0.52321902  0.34061146  1  -1.180308  0  -0.339083  -0.571552  0  2.260625  0
