# generated using pymatgen
data_CdH8(C5N7)2
_symmetry_space_group_name_H-M   'P 1'
_cell_length_a   8.23488241
_cell_length_b   8.50128457
_cell_length_c   12.07720786
_cell_angle_alpha   82.61159659
_cell_angle_beta   70.47671629
_cell_angle_gamma   79.98140316
_symmetry_Int_Tables_number   1
_chemical_formula_structural   CdH8(C5N7)2
_chemical_formula_sum   'Cd2 H16 C20 N28'
_cell_volume   782.46357280
_cell_formula_units_Z   2
loop_
 _symmetry_equiv_pos_site_id
 _symmetry_equiv_pos_as_xyz
  1  'x, y, z'
loop_
 _atom_site_type_symbol
 _atom_site_label
 _atom_site_symmetry_multiplicity
 _atom_site_fract_x
 _atom_site_fract_y
 _atom_site_fract_z
 _atom_site_occupancy
 _atom_site_hle17_bader_spin_density
 _atom_site_hle17_ddec_charge
 _atom_site_hle17_ddec_spin_density
 _atom_site_hle17_ddec_sum_bond_order
 _atom_site_hle17_magmom
 _atom_site_hse06_10hf_bader_spin_density
 _atom_site_hse06_10hf_ddec_charge
 _atom_site_hse06_10hf_ddec_spin_density
 _atom_site_hse06_10hf_ddec_sum_bond_order
 _atom_site_hse06_10hf_magmom
 _atom_site_hse06_bader_spin_density
 _atom_site_hse06_ddec_charge
 _atom_site_hse06_ddec_spin_density
 _atom_site_hse06_ddec_sum_bond_order
 _atom_site_hse06_magmom
 _atom_site_pbe_bader_spin_density
 _atom_site_pbe_cm5_charge
 _atom_site_pbe_ddec_charge
 _atom_site_pbe_ddec_spin_density
 _atom_site_pbe_ddec_sum_bond_order
 _atom_site_pbe_magmom
Cd  Cd0  1  0.03918279  0.79156956  0.47804241  1  0  0.999068  0  1.909985  0  0  0.817258  0  2.378521  0  0  0.861938  0  2.341573  0  0  0.794151  0.786095  0  2.403416  0
Cd  Cd1  1  0.96081585  0.20843186  0.52195657  1  0  0.999069  0  1.910004  0  0  0.817256  0  2.378543  0  0  0.861936  0  2.341594  0  0  0.79416  0.786091  0  2.403438  0
H  H2  1  0.16978126  0.82613349  0.19400961  1  0  0.082072  0  0.969824  0  0  0.085257  0  1.044148  0  0  0.0869  0  1.041688  0  0  0.113366  0.083967  0  1.046024  0
H  H3  1  0.83022142  0.17386672  0.80598938  1  0  0.082071  0  0.969831  0  0  0.08528  0  1.044146  0  0  0.086917  0  1.041684  0  0  0.113366  0.083989  0  1.04602  0
H  H4  1  0.43949411  0.84883232  0.02249930  1  0  0.126496  0  0.94223  0  0  0.136226  0  1.001023  0  0  0.139608  0  1.000124  0  0  0.112708  0.13386  0  1.001754  0
H  H5  1  0.56050894  0.15116549  0.97750066  1  0  0.126501  0  0.942244  0  0  0.136235  0  1.001022  0  0  0.139619  0  1.000126  0  0  0.112709  0.133867  0  1.001753  0
H  H6  1  0.72374561  0.80373197  0.27188162  1  0  0.123163  0  0.978596  0  0  0.126991  0  1.04929  0  0  0.129437  0  1.049935  0  0  0.106676  0.125204  0  1.049047  0
H  H7  1  0.27625597  0.19626705  0.72811856  1  0  0.123174  0  0.978596  0  0  0.127004  0  1.049275  0  0  0.129446  0  1.049932  0  0  0.106669  0.125219  0  1.049033  0
H  H8  1  0.43930458  0.78893841  0.43238508  1  0  0.077737  0  0.943623  0  0  0.087404  0  1.007625  0  0  0.089214  0  1.005496  0  0  0.11517  0.086046  0  1.00921  0
H  H9  1  0.56069665  0.21106301  0.56761497  1  0  0.077729  0  0.943642  0  0  0.087395  0  1.007645  0  0  0.089205  0  1.005515  0  0  0.11517  0.086037  0  1.009229  0
H  H10  1  0.90222902  0.70065560  0.76190325  1  0  0.074465  0  0.969171  0  0  0.076802  0  1.04427  0  0  0.078266  0  1.04273  0  0  0.11128  0.075652  0  1.045484  0
H  H11  1  0.09776981  0.29934463  0.23809828  1  0  0.074467  0  0.969164  0  0  0.076803  0  1.04427  0  0  0.078266  0  1.04273  0  0  0.111284  0.075656  0  1.045485  0
H  H12  1  0.64880563  0.59753150  0.91785988  1  0  0.118742  0  0.968675  0  0  0.120011  0  1.043535  0  0  0.124312  0  1.041718  0  0  0.106933  0.116994  0  1.044888  0
H  H13  1  0.35119173  0.40246992  0.08214023  1  0  0.118757  0  0.968696  0  0  0.120014  0  1.043566  0  0  0.124314  0  1.04175  0  0  0.106929  0.116991  0  1.044924  0
H  H14  1  0.38214835  0.66194048  0.65713670  1  0  0.124065  0  0.979773  0  0  0.127913  0  1.050691  0  0  0.130967  0  1.050059  0  0  0.106648  0.125677  0  1.051353  0
H  H15  1  0.61785212  0.33805734  0.34286302  1  0  0.124007  0  0.979785  0  0  0.12785  0  1.050723  0  0  0.130904  0  1.05009  0  0  0.106612  0.125613  0  1.051385  0
H  H16  1  0.64576524  0.76610754  0.51410411  1  0  0.070452  0  0.953348  0  0  0.079541  0  1.018264  0  0  0.081221  0  1.016696  0  0  0.113336  0.078319  0  1.019355  0
H  H17  1  0.35423469  0.23389388  0.48589624  1  0  0.070442  0  0.953379  0  0  0.079535  0  1.018294  0  0  0.081212  0  1.016725  0  0  0.113334  0.078314  0  1.019385  0
C  C18  1  0.29436668  0.82422877  0.20746254  1  0  0.146531  0  3.70572  0  0  0.114896  0  3.959189  0  0  0.12373  0  3.977351  0  0  0.045778  0.109218  0  3.94678  0
C  C19  1  0.70563490  0.17577025  0.79253764  1  0  0.146518  0  3.705648  0  0  0.114809  0  3.959175  0  0  0.123654  0  3.977332  0  0  0.045738  0.109133  0  3.946761  0
C  C20  1  0.44450747  0.83600527  0.11212904  1  0  -0.196873  0  3.693673  0  0  -0.218922  0  3.950017  0  0  -0.227056  0  3.967526  0  0  -0.087351  -0.213777  0  3.938319  0
C  C21  1  0.55549393  0.16399495  0.88787024  1  0  -0.196945  0  3.693767  0  0  -0.21896  0  3.950104  0  0  -0.227103  0  3.967619  0  0  -0.087382  -0.213816  0  3.938405  0
C  C22  1  0.60279153  0.82935874  0.13362900  1  0  0.243502  0  3.839699  0  0  0.240569  0  4.101173  0  0  0.252934  0  4.119255  0  0  0.113251  0.232406  0  4.088779  0
C  C23  1  0.39720969  0.17064268  0.86637104  1  0  0.243629  0  3.839657  0  0  0.240681  0  4.101141  0  0  0.253047  0  4.119224  0  0  0.113306  0.232518  0  4.088748  0
C  C24  1  0.60362873  0.81132804  0.25077343  1  0  -0.218382  0  3.70419  0  0  -0.238603  0  3.955006  0  0  -0.249624  0  3.977136  0  0  -0.099608  -0.231554  0  3.940307  0
C  C25  1  0.39637266  0.18867217  0.74922586  1  0  -0.218447  0  3.70418  0  0  -0.238661  0  3.955007  0  0  -0.249684  0  3.977137  0  0  -0.099621  -0.231611  0  3.94031  0
C  C26  1  0.44641962  0.80204161  0.33999683  1  0  0.151731  0  3.716116  0  0  0.122207  0  3.966641  0  0  0.131416  0  3.984613  0  0  0.045822  0.116276  0  3.954314  0
C  C27  1  0.55358289  0.19795980  0.66000292  1  0  0.151736  0  3.716167  0  0  0.122204  0  3.966675  0  0  0.131415  0  3.98465  0  0  0.045806  0.116273  0  3.954348  0
C  C28  1  0.78405126  0.69230346  0.74262295  1  0  0.149557  0  3.714492  0  0  0.117636  0  3.969384  0  0  0.125972  0  3.988378  0  0  0.043059  0.11226  0  3.956414  0
C  C29  1  0.21594738  0.30769797  0.25737851  1  0  0.149534  0  3.714596  0  0  0.117607  0  3.969494  0  0  0.125944  0  3.988487  0  0  0.043048  0.11223  0  3.956529  0
C  C30  1  0.64347809  0.63561349  0.82941917  1  0  -0.190691  0  3.68484  0  0  -0.209019  0  3.935215  0  0  -0.217787  0  3.953159  0  0  -0.086302  -0.203403  0  3.923258  0
C  C31  1  0.35652202  0.36438674  0.17058124  1  0  -0.190722  0  3.684807  0  0  -0.209021  0  3.935193  0  0  -0.217791  0  3.953134  0  0  -0.086282  -0.203397  0  3.923241  0
C  C32  1  0.49499088  0.62541250  0.80019740  1  0  0.251197  0  3.82594  0  0  0.250477  0  4.07933  0  0  0.262341  0  4.097853  0  0  0.118032  0.242637  0  4.066655  0
C  C33  1  0.50501087  0.37458531  0.19980120  1  0  0.251283  0  3.82579  0  0  0.250508  0  4.079251  0  0  0.262377  0  4.097765  0  0  0.118062  0.242667  0  4.066577  0
C  C34  1  0.49305566  0.67181945  0.68481739  1  0  -0.208286  0  3.704277  0  0  -0.227638  0  3.953881  0  0  -0.237942  0  3.975244  0  0  -0.093501  -0.221027  0  3.939753  0
C  C35  1  0.50694627  0.32817717  0.31518210  1  0  -0.208274  0  3.704114  0  0  -0.227592  0  3.953733  0  0  -0.237899  0  3.975092  0  0  -0.093502  -0.220981  0  3.939604  0
C  C36  1  0.63985298  0.72771713  0.60484110  1  0  0.149693  0  3.729231  0  0  0.119373  0  3.98145  0  0  0.127547  0  4.00068  0  0  0.04339  0.1141  0  3.96832  0
C  C37  1  0.36014731  0.27228189  0.39515938  1  0  0.149688  0  3.729207  0  0  0.119352  0  3.981443  0  0  0.12753  0  4.000667  0  0  0.043414  0.114079  0  3.968313  0
N  N38  1  0.12088449  0.96998080  0.58007014  1  0  -0.619163  0  2.730022  0  0  -0.574499  0  3.031202  0  0  -0.599754  0  3.037671  0  0  -0.335662  -0.557054  0  3.026443  0
N  N39  1  0.87911415  0.03002062  0.41992967  1  0  -0.619221  0  2.729985  0  0  -0.574569  0  3.03117  0  0  -0.599826  0  3.037638  0  0  -0.335691  -0.557122  0  3.026409  0
N  N40  1  0.12476939  0.93943352  0.67963277  1  0  0.401754  0  4.24104  0  0  0.440766  0  4.518657  0  0  0.45709  0  4.547387  0  0  0.077522  0.429814  0  4.4991  0
N  N41  1  0.87522924  0.06056790  0.32036539  1  0  0.401738  0  4.24101  0  0  0.440756  0  4.518625  0  0  0.457081  0  4.547351  0  0  0.077469  0.429804  0  4.499073  0
N  N42  1  0.13236723  0.90988059  0.77509336  1  0  -0.403891  0  2.410911  0  0  -0.419424  0  2.653008  0  0  -0.426275  0  2.663433  0  0  -0.216116  -0.414516  0  2.64606  0
N  N43  1  0.86763270  0.09012082  0.22490616  1  0  -0.403815  0  2.410911  0  0  -0.419344  0  2.653  0  0  -0.426194  0  2.663422  0  0  -0.216035  -0.414434  0  2.646047  0
N  N44  1  0.19080808  0.57779446  0.57079164  1  0  -0.510429  0  2.574132  0  0  -0.494119  0  2.851853  0  0  -0.509805  0  2.86025  0  0  -0.272145  -0.48321  0  2.846001  0
N  N45  1  0.80919056  0.42220696  0.42920817  1  0  -0.510435  0  2.574047  0  0  -0.494133  0  2.851758  0  0  -0.509822  0  2.860158  0  0  -0.272165  -0.483222  0  2.845907  0
N  N46  1  0.12126130  0.46208271  0.60801411  1  0  0.38854  0  4.282505  0  0  0.421369  0  4.56787  0  0  0.437243  0  4.598401  0  0  0.069242  0.410772  0  4.547183  0
N  N47  1  0.87873863  0.53791871  0.39198540  1  0  0.388499  0  4.282519  0  0  0.421357  0  4.567857  0  0  0.43723  0  4.598389  0  0  0.069234  0.410761  0  4.547171  0
N  N48  1  0.05437970  0.34543078  0.64700398  1  0  -0.505063  0  2.579124  0  0  -0.490086  0  2.860732  0  0  -0.506031  0  2.869315  0  0  -0.268188  -0.479108  0  2.854914  0
N  N49  1  0.94562023  0.65457064  0.35299553  1  0  -0.505015  0  2.579231  0  0  -0.490059  0  2.860824  0  0  -0.506003  0  2.869409  0  0  -0.268168  -0.47908  0  2.855006  0
N  N50  1  0.29419427  0.80812783  0.31987436  1  0  -0.334673  0  3.259213  0  0  -0.258135  0  3.522166  0  0  -0.279307  0  3.541875  0  0  -0.335724  -0.243709  0  3.508225  0
N  N51  1  0.70580953  0.19187357  0.68012426  1  0  -0.33462  0  3.25912  0  0  -0.258045  0  3.522082  0  0  -0.279208  0  3.541763  0  0  -0.33567  -0.243619  0  3.508139  0
N  N52  1  0.75171564  0.83919936  0.03480929  1  0  -0.260154  0  2.995576  0  0  -0.24873  0  3.277017  0  0  -0.269272  0  3.294015  0  0  -0.154673  -0.234558  0  3.265077  0
N  N53  1  0.24828576  0.16080085  0.96519165  1  0  -0.260186  0  2.995615  0  0  -0.248768  0  3.277064  0  0  -0.26931  0  3.294061  0  0  -0.154672  -0.234594  0  3.265126  0
N  N54  1  0.89580956  0.82752191  0.04869979  1  0  0.341397  0  3.9969  0  0  0.366517  0  4.308075  0  0  0.378518  0  4.330477  0  0  0.149155  0.358202  0  4.292993  0
N  N55  1  0.10419166  0.17247950  0.95130025  1  0  0.34139  0  3.996904  0  0  0.366521  0  4.308066  0  0  0.378523  0  4.330467  0  0  0.149141  0.358204  0  4.292988  0
N  N56  1  0.03731698  0.81696490  0.04605879  1  0  -0.149246  0  2.413986  0  0  -0.158952  0  2.655019  0  0  -0.155982  0  2.661835  0  0  -0.043961  -0.160756  0  2.650662  0
N  N57  1  0.96268406  0.18303772  0.95394119  1  0  -0.149245  0  2.413895  0  0  -0.158951  0  2.654903  0  0  -0.155979  0  2.661717  0  0  -0.043957  -0.160753  0  2.650546  0
N  N58  1  0.78360713  0.73773447  0.63170891  1  0  -0.348096  0  3.252122  0  0  -0.273332  0  3.514422  0  0  -0.294451  0  3.535451  0  0  -0.337868  -0.25901  0  3.499832  0
N  N59  1  0.21639426  0.26226575  0.36829038  1  0  -0.348064  0  3.252237  0  0  -0.273299  0  3.51455  0  0  -0.294416  0  3.535576  0  0  -0.33787  -0.258977  0  3.499963  0
N  N60  1  0.35620718  0.56706748  0.89050390  1  0  -0.250746  0  3.012858  0  0  -0.235228  0  3.288267  0  0  -0.254703  0  3.303615  0  0  -0.144644  -0.221827  0  3.277503  0
N  N61  1  0.64379035  0.43293274  0.10949628  1  0  -0.250773  0  3.012866  0  0  -0.235235  0  3.288296  0  0  -0.25471  0  3.303641  0  0  -0.14467  -0.221836  0  3.277538  0
N  N62  1  0.22015137  0.55680085  0.87178666  1  0  0.347698  0  3.988386  0  0  0.375367  0  4.295683  0  0  0.388286  0  4.317487  0  0  0.149682  0.366468  0  4.281044  0
N  N63  1  0.77984727  0.44320057  0.12821315  1  0  0.347671  0  3.988381  0  0  0.375333  0  4.295678  0  0  0.388251  0  4.317482  0  0  0.149662  0.366433  0  4.281035  0
N  N64  1  0.08684011  0.53761880  0.86981363  1  0  -0.172167  0  2.403946  0  0  -0.179896  0  2.638987  0  0  -0.178958  0  2.647853  0  0  -0.059454  -0.180465  0  2.633404  0
N  N65  1  0.91315870  0.46238142  0.13018542  1  0  -0.172143  0  2.403941  0  0  -0.17986  0  2.638968  0  0  -0.178921  0  2.647835  0  0  -0.059427  -0.180427  0  2.633382  0
