# generated using pymatgen
data_AgH4C5SN2(OF)3
_symmetry_space_group_name_H-M   'P 1'
_cell_length_a   5.33106233
_cell_length_b   9.75148365
_cell_length_c   18.75913526
_cell_angle_alpha   92.56596082
_cell_angle_beta   90.02915840
_cell_angle_gamma   105.83386486
_symmetry_Int_Tables_number   1
_chemical_formula_structural   AgH4C5SN2(OF)3
_chemical_formula_sum   'Ag4 H16 C20 S4 N8 O12 F12'
_cell_volume   937.18277190
_cell_formula_units_Z   4
loop_
 _symmetry_equiv_pos_site_id
 _symmetry_equiv_pos_as_xyz
  1  'x, y, z'
loop_
 _atom_site_type_symbol
 _atom_site_label
 _atom_site_symmetry_multiplicity
 _atom_site_fract_x
 _atom_site_fract_y
 _atom_site_fract_z
 _atom_site_occupancy
 _atom_site_hle17_bader_spin_density
 _atom_site_hle17_ddec_charge
 _atom_site_hle17_ddec_spin_density
 _atom_site_hle17_ddec_sum_bond_order
 _atom_site_hle17_magmom
 _atom_site_hse06_10hf_bader_spin_density
 _atom_site_hse06_10hf_ddec_charge
 _atom_site_hse06_10hf_ddec_spin_density
 _atom_site_hse06_10hf_ddec_sum_bond_order
 _atom_site_hse06_10hf_magmom
 _atom_site_hse06_bader_spin_density
 _atom_site_hse06_ddec_charge
 _atom_site_hse06_ddec_spin_density
 _atom_site_hse06_ddec_sum_bond_order
 _atom_site_hse06_magmom
 _atom_site_pbe_bader_spin_density
 _atom_site_pbe_cm5_charge
 _atom_site_pbe_ddec_charge
 _atom_site_pbe_ddec_spin_density
 _atom_site_pbe_ddec_sum_bond_order
 _atom_site_pbe_magmom
Ag  Ag0  1  0.66662639  0.55841440  0.78677924  1  0  0.522413  0  1.486893  0  0  0.379975  0  1.958067  0  0  0.40664  0  1.906569  0  0  0.481577  0.362021  0  1.993797  0
Ag  Ag1  1  0.10842711  0.44176873  0.71322079  1  0  0.522405  0  1.48777  0  0  0.380191  0  1.959073  0  0  0.406882  0  1.907547  0  0  0.481874  0.362377  0  1.994564  0
Ag  Ag2  1  0.33336468  0.44158269  0.21321893  1  0  0.522399  0  1.486876  0  0  0.379955  0  1.958039  0  0  0.406623  0  1.90654  0  0  0.481577  0.362003  0  1.993772  0
Ag  Ag3  1  0.89157492  0.55823152  0.28678013  1  0  0.5224  0  1.487801  0  0  0.380162  0  1.95913  0  0  0.406861  0  1.9076  0  0  0.481859  0.362364  0  1.994601  0
H  H4  1  0.54331865  0.77167890  0.68408977  1  0  0.115663  0  0.930148  0  0  0.124315  0  0.991645  0  0  0.126522  0  0.99002  0  0  0.1263  0.122671  0  0.992997  0
H  H5  1  0.77256707  0.22879369  0.81575625  1  0  0.114785  0  0.930951  0  0  0.123429  0  0.99234  0  0  0.125616  0  0.990699  0  0  0.125964  0.12171  0  0.99373  0
H  H6  1  0.45669090  0.22832139  0.31590849  1  0  0.115657  0  0.930102  0  0  0.124282  0  0.991645  0  0  0.126482  0  0.990016  0  0  0.12631  0.122639  0  0.992991  0
H  H7  1  0.22742746  0.77120655  0.18424520  1  0  0.114763  0  0.930985  0  0  0.123437  0  0.992332  0  0  0.125623  0  0.99069  0  0  0.125951  0.121717  0  0.99373  0
H  H8  1  0.62319251  0.83147182  0.55375763  1  0  0.120322  0  0.930197  0  0  0.127845  0  0.991871  0  0  0.131237  0  0.989501  0  0  0.115292  0.125313  0  0.993773  0
H  H9  1  0.79254354  0.16875613  0.94604686  1  0  0.122652  0  0.929009  0  0  0.129272  0  0.991228  0  0  0.132728  0  0.988847  0  0  0.115464  0.126633  0  0.993312  0
H  H10  1  0.37682589  0.16852740  0.44624059  1  0  0.120297  0  0.930209  0  0  0.127847  0  0.991878  0  0  0.131252  0  0.989479  0  0  0.115286  0.125312  0  0.993791  0
H  H11  1  0.20744990  0.83124945  0.05395474  1  0  0.122626  0  0.929066  0  0  0.129261  0  0.991303  0  0  0.13273  0  0.988901  0  0  0.115448  0.126623  0  0.993387  0
H  H12  1  0.95015276  0.72642690  0.48792163  1  0  0.136282  0  0.960843  0  0  0.143109  0  1.023416  0  0  0.146586  0  1.020742  0  0  0.11518  0.140506  0  1.025512  0
H  H13  1  0.22453918  0.27323220  0.01199540  1  0  0.136511  0  0.961075  0  0  0.143728  0  1.023229  0  0  0.147161  0  1.020604  0  0  0.115254  0.141083  0  1.025494  0
H  H14  1  0.04985974  0.27356803  0.51207808  1  0  0.13636  0  0.960813  0  0  0.143176  0  1.023376  0  0  0.146653  0  1.020701  0  0  0.115211  0.140576  0  1.025464  0
H  H15  1  0.77545882  0.72677125  0.98800561  1  0  0.136502  0  0.960961  0  0  0.14371  0  1.023121  0  0  0.147153  0  1.020483  0  0  0.115232  0.141066  0  1.025386  0
H  H16  1  0.16645904  0.57393720  0.55734821  1  0  0.100906  0  0.919634  0  0  0.114351  0  0.974549  0  0  0.115905  0  0.974537  0  0  0.129241  0.113163  0  0.974749  0
H  H17  1  0.59330897  0.42576591  0.94275266  1  0  0.102015  0  0.919165  0  0  0.114911  0  0.974568  0  0  0.11656  0  0.974463  0  0  0.129556  0.113706  0  0.974645  0
H  H18  1  0.83355158  0.42605771  0.44265256  1  0  0.100935  0  0.919536  0  0  0.114412  0  0.974425  0  0  0.115972  0  0.974416  0  0  0.12926  0.113222  0  0.974626  0
H  H19  1  0.40668715  0.57423753  0.05724888  1  0  0.102075  0  0.919131  0  0  0.114957  0  0.974548  0  0  0.116606  0  0.974444  0  0  0.129586  0.113755  0  0.974624  0
C  C20  1  0.67853842  0.73171450  0.65103884  1  0  0.095547  0  3.643543  0  0  0.060377  0  3.902134  0  0  0.064349  0  3.920254  0  0  0.060307  0.057533  0  3.890273  0
C  C21  1  0.94776546  0.26849835  0.84883981  1  0  0.09515  0  3.644808  0  0  0.060044  0  3.903002  0  0  0.064065  0  3.921178  0  0  0.059899  0.057473  0  3.890495  0
C  C22  1  0.32146924  0.26828577  0.34896048  1  0  0.095509  0  3.643533  0  0  0.060336  0  3.902167  0  0  0.064311  0  3.920293  0  0  0.060263  0.057492  0  3.890313  0
C  C23  1  0.05223066  0.73150508  0.15116226  1  0  0.095178  0  3.644824  0  0  0.060062  0  3.903034  0  0  0.064087  0  3.921205  0  0  0.059892  0.057489  0  3.890535  0
C  C24  1  0.72428991  0.76375419  0.57961412  1  0  -0.038684  0  3.661481  0  0  -0.062332  0  3.922766  0  0  -0.063886  0  3.940012  0  0  -0.053148  -0.061576  0  3.911607  0
C  C25  1  0.96143039  0.23635452  0.92026068  1  0  -0.041375  0  3.660205  0  0  -0.064533  0  3.922216  0  0  -0.066221  0  3.939453  0  0  -0.053244  -0.063514  0  3.910583  0
C  C26  1  0.27572285  0.23624502  0.42038464  1  0  -0.038576  0  3.661561  0  0  -0.062269  0  3.92282  0  0  -0.063826  0  3.940075  0  0  -0.053175  -0.061519  0  3.911654  0
C  C27  1  0.03856332  0.76364785  0.07974136  1  0  -0.041349  0  3.660274  0  0  -0.06457  0  3.922331  0  0  -0.066264  0  3.939572  0  0  -0.053209  -0.063548  0  3.910696  0
C  C28  1  0.90162407  0.70665884  0.54346174  1  0  -0.036097  0  3.634124  0  0  -0.055008  0  3.884653  0  0  -0.055459  0  3.90096  0  0  -0.051379  -0.054887  0  3.874186  0
C  C29  1  0.19580523  0.29315470  0.95646695  1  0  -0.036437  0  3.633719  0  0  -0.056419  0  3.885181  0  0  -0.05683  0  3.901538  0  0  -0.052315  -0.056226  0  3.874069  0
C  C30  1  0.09838709  0.29333717  0.45653746  1  0  -0.036351  0  3.634356  0  0  -0.055216  0  3.884893  0  0  -0.05567  0  3.901205  0  0  -0.051409  -0.055087  0  3.874414  0
C  C31  1  0.80418848  0.70684768  0.04353456  1  0  -0.036378  0  3.633577  0  0  -0.056315  0  3.885036  0  0  -0.056738  0  3.901394  0  0  -0.052265  -0.056118  0  3.873922  0
C  C32  1  0.02267557  0.62190327  0.58144645  1  0  0.102844  0  3.642782  0  0  0.071029  0  3.892088  0  0  0.074222  0  3.911249  0  0  0.064362  0.068771  0  3.879435  0
C  C33  1  0.40164093  0.37786655  0.91855762  1  0  0.102097  0  3.644231  0  0  0.070962  0  3.89369  0  0  0.074091  0  3.912822  0  0  0.064712  0.068928  0  3.88042  0
C  C34  1  0.97733236  0.37809377  0.41855439  1  0  0.102956  0  3.642784  0  0  0.071072  0  3.892092  0  0  0.074253  0  3.911266  0  0  0.064396  0.068816  0  3.879434  0
C  C35  1  0.59835332  0.62213690  0.08144338  1  0  0.101983  0  3.644317  0  0  0.070849  0  3.893776  0  0  0.073976  0  3.912913  0  0  0.064672  0.068811  0  3.880508  0
C  C36  1  0.18080181  0.91761410  0.87019877  1  0  0.596252  0  3.668622  0  0  0.525095  0  4.038606  0  0  0.552803  0  4.012508  0  0  0.2857  0.504965  0  4.057948  0
C  C37  1  0.26401150  0.08238063  0.62997877  1  0  0.593698  0  3.673875  0  0  0.523853  0  4.041528  0  0  0.551904  0  4.014772  0  0  0.285258  0.503665  0  4.060981  0
C  C38  1  0.81918979  0.08238407  0.12979890  1  0  0.59615  0  3.668498  0  0  0.525152  0  4.0382  0  0  0.55286  0  4.012097  0  0  0.285697  0.505032  0  4.057532  0
C  C39  1  0.73598679  0.91761964  0.37002055  1  0  0.593541  0  3.674015  0  0  0.523828  0  4.041462  0  0  0.55186  0  4.014739  0  0  0.285233  0.50364  0  4.060914  0
S  S40  1  0.24857523  0.73958877  0.86964430  1  0  1.127626  0  5.817083  0  0  1.025586  0  6.353231  0  0  1.069213  0  6.334681  0  0  0.477333  0.995526  0  6.365314  0
S  S41  1  0.50912357  0.26053861  0.63025644  1  0  1.126474  0  5.82223  0  0  1.02496  0  6.357689  0  0  1.068515  0  6.339072  0  0  0.476541  0.99494  0  6.369662  0
S  S42  1  0.75141744  0.26041152  0.13035449  1  0  1.127638  0  5.817113  0  0  1.025544  0  6.353262  0  0  1.069173  0  6.33471  0  0  0.477313  0.995483  0  6.36534  0
S  S43  1  0.49087793  0.73946058  0.36974392  1  0  1.12647  0  5.822122  0  0  1.024948  0  6.357548  0  0  1.068508  0  6.338928  0  0  0.476546  0.994932  0  6.369516  0
N  N44  1  0.79714460  0.64774673  0.68436882  1  0  -0.155314  0  3.278184  0  0  -0.08279  0  3.552729  0  0  -0.095404  0  3.570563  0  0  -0.22317  -0.074461  0  3.541016  0
N  N45  1  0.15040979  0.35228366  0.81556499  1  0  -0.153959  0  3.276694  0  0  -0.081362  0  3.551295  0  0  -0.094009  0  3.569112  0  0  -0.222974  -0.072972  0  3.538934  0
N  N46  1  0.20285960  0.35225035  0.31562988  1  0  -0.155328  0  3.278181  0  0  -0.08277  0  3.552658  0  0  -0.095382  0  3.570486  0  0  -0.223147  -0.074443  0  3.540952  0
N  N47  1  0.84958527  0.64771764  0.18443649  1  0  -0.153995  0  3.276616  0  0  -0.081416  0  3.551256  0  0  -0.094064  0  3.569068  0  0  -0.22297  -0.073023  0  3.538897  0
N  N48  1  0.97095606  0.59341244  0.64976975  1  0  -0.152088  0  3.250902  0  0  -0.081215  0  3.52123  0  0  -0.093362  0  3.540025  0  0  -0.217952  -0.073192  0  3.508706  0
N  N49  1  0.37851869  0.40644975  0.85023202  1  0  -0.151952  0  3.249156  0  0  -0.081025  0  3.519431  0  0  -0.0932  0  3.538324  0  0  -0.217165  -0.072805  0  3.506456  0
N  N50  1  0.02904947  0.40658354  0.35023052  1  0  -0.15207  0  3.250886  0  0  -0.081164  0  3.521185  0  0  -0.093311  0  3.539984  0  0  -0.217954  -0.07314  0  3.508663  0
N  N51  1  0.62147181  0.59355370  0.14976899  1  0  -0.151899  0  3.249095  0  0  -0.080954  0  3.519347  0  0  -0.093129  0  3.538238  0  0  -0.217169  -0.072734  0  3.506374  0
O  O52  1  0.99316690  0.64061504  0.88391236  1  0  -0.623071  0  2.056599  0  0  -0.574203  0  2.33703  0  0  -0.595585  0  2.323158  0  0  -0.347508  -0.559173  0  2.345555  0
O  O53  1  0.35175731  0.35913877  0.61596775  1  0  -0.622893  0  2.058705  0  0  -0.574849  0  2.33933  0  0  -0.596299  0  2.325688  0  0  -0.34738  -0.559692  0  2.348282  0
O  O54  1  0.00682793  0.35938206  0.11608527  1  0  -0.623073  0  2.05667  0  0  -0.574203  0  2.337114  0  0  -0.595587  0  2.323238  0  0  -0.347487  -0.559176  0  2.345638  0
O  O55  1  0.64824366  0.64085937  0.38403205  1  0  -0.622892  0  2.058639  0  0  -0.57484  0  2.339265  0  0  -0.596291  0  2.325624  0  0  -0.34738  -0.559687  0  2.348219  0
O  O56  1  0.34322317  0.72505979  0.79725594  1  0  -0.635721  0  2.07045  0  0  -0.598726  0  2.358083  0  0  -0.617818  0  2.340597  0  0  -0.344441  -0.585129  0  2.36967  0
O  O57  1  0.61914870  0.27550510  0.70257902  1  0  -0.635073  0  2.072271  0  0  -0.598953  0  2.361241  0  0  -0.618074  0  2.343737  0  0  -0.344729  -0.585488  0  2.372828  0
O  O58  1  0.65677512  0.27494048  0.20274338  1  0  -0.635747  0  2.070415  0  0  -0.598759  0  2.358088  0  0  -0.617849  0  2.340595  0  0  -0.344465  -0.58517  0  2.369683  0
O  O59  1  0.38085521  0.72449517  0.29742083  1  0  -0.63507  0  2.072281  0  0  -0.598932  0  2.361226  0  0  -0.618068  0  2.343748  0  0  -0.344711  -0.585477  0  2.37282  0
O  O60  1  0.43817757  0.75490131  0.92715265  1  0  -0.593815  0  1.975283  0  0  -0.565648  0  2.228671  0  0  -0.584315  0  2.216634  0  0  -0.338374  -0.552461  0  2.236491  0
O  O61  1  0.68285695  0.24505922  0.57266719  1  0  -0.593503  0  1.97588  0  0  -0.564756  0  2.227744  0  0  -0.583464  0  2.215852  0  0  -0.337678  -0.55141  0  2.23533  0
O  O62  1  0.56181134  0.24509896  0.07284720  1  0  -0.593768  0  1.975305  0  0  -0.565586  0  2.228703  0  0  -0.584254  0  2.216668  0  0  -0.338351  -0.552405  0  2.236525  0
O  O63  1  0.31714160  0.75493784  0.42733311  1  0  -0.593483  0  1.97581  0  0  -0.564765  0  2.227702  0  0  -0.583472  0  2.215809  0  0  -0.337699  -0.551417  0  2.235283  0
F  F64  1  0.99537856  0.92062993  0.82138893  1  0  -0.219379  0  1.197963  0  0  -0.180509  0  1.362824  0  0  -0.189768  0  1.347368  0  0  -0.094603  -0.173935  0  1.373715  0
F  F65  1  0.07581795  0.07952918  0.67877550  1  0  -0.218922  0  1.199979  0  0  -0.180179  0  1.364384  0  0  -0.189505  0  1.348772  0  0  -0.094682  -0.17344  0  1.375222  0
F  F66  1  0.00461062  0.07936715  0.17861030  1  0  -0.219393  0  1.197859  0  0  -0.1806  0  1.362681  0  0  -0.189857  0  1.347224  0  0  -0.09464  -0.174026  0  1.373577  0
F  F67  1  0.92417765  0.92047322  0.32122441  1  0  -0.218884  0  1.200014  0  0  -0.180158  0  1.364365  0  0  -0.189476  0  1.348762  0  0  -0.094668  -0.17342  0  1.375207  0
F  F68  1  0.40096555  0.02151797  0.85529706  1  0  -0.232856  0  1.185502  0  0  -0.188501  0  1.346622  0  0  -0.198251  0  1.331482  0  0  -0.09667  -0.181511  0  1.356914  0
F  F69  1  0.38093591  0.97876856  0.64504109  1  0  -0.231911  0  1.187845  0  0  -0.187695  0  1.348339  0  0  -0.197509  0  1.333066  0  0  -0.095835  -0.180514  0  1.358955  0
F  F70  1  0.59902689  0.97847811  0.14469788  1  0  -0.232816  0  1.185467  0  0  -0.188492  0  1.34653  0  0  -0.198241  0  1.331389  0  0  -0.096664  -0.181499  0  1.35682  0
F  F71  1  0.61905995  0.02123060  0.35496140  1  0  -0.23183  0  1.187852  0  0  -0.187668  0  1.348329  0  0  -0.197478  0  1.333063  0  0  -0.09581  -0.180486  0  1.358946  0
F  F72  1  0.09853777  0.95128730  0.93565110  1  0  -0.231031  0  1.222438  0  0  -0.182233  0  1.387065  0  0  -0.193051  0  1.373027  0  0  -0.088371  -0.174439  0  1.396807  0
F  F73  1  0.14782860  0.04830824  0.56454734  1  0  -0.229575  0  1.221079  0  0  -0.182098  0  1.385724  0  0  -0.192997  0  1.371546  0  0  -0.088212  -0.174173  0  1.395559  0
F  F74  1  0.90146589  0.04871621  0.06434618  1  0  -0.230999  0  1.222399  0  0  -0.182201  0  1.386931  0  0  -0.193019  0  1.372889  0  0  -0.088336  -0.174409  0  1.396666  0
F  F75  1  0.85217664  0.95169093  0.43545408  1  0  -0.229524  0  1.221029  0  0  -0.182108  0  1.385657  0  0  -0.193  0  1.371486  0  0  -0.08821  -0.174177  0  1.395487  0
