# generated using pymatgen
data_CdH5C5N2O5
_symmetry_space_group_name_H-M   'P 1'
_cell_length_a   6.96865255
_cell_length_b   9.91117811
_cell_length_c   11.11798239
_cell_angle_alpha   96.47423042
_cell_angle_beta   89.99949258
_cell_angle_gamma   89.99998640
_symmetry_Int_Tables_number   1
_chemical_formula_structural   CdH5C5N2O5
_chemical_formula_sum   'Cd4 H20 C20 N8 O20'
_cell_volume   762.99477889
_cell_formula_units_Z   4
loop_
 _symmetry_equiv_pos_site_id
 _symmetry_equiv_pos_as_xyz
  1  'x, y, z'
loop_
 _atom_site_type_symbol
 _atom_site_label
 _atom_site_symmetry_multiplicity
 _atom_site_fract_x
 _atom_site_fract_y
 _atom_site_fract_z
 _atom_site_occupancy
 _atom_site_hle17_bader_spin_density
 _atom_site_hle17_ddec_charge
 _atom_site_hle17_ddec_spin_density
 _atom_site_hle17_ddec_sum_bond_order
 _atom_site_hle17_magmom
 _atom_site_hse06_10hf_bader_spin_density
 _atom_site_hse06_10hf_ddec_charge
 _atom_site_hse06_10hf_ddec_spin_density
 _atom_site_hse06_10hf_ddec_sum_bond_order
 _atom_site_hse06_10hf_magmom
 _atom_site_hse06_bader_spin_density
 _atom_site_hse06_ddec_charge
 _atom_site_hse06_ddec_spin_density
 _atom_site_hse06_ddec_sum_bond_order
 _atom_site_hse06_magmom
 _atom_site_pbe_bader_spin_density
 _atom_site_pbe_cm5_charge
 _atom_site_pbe_ddec_charge
 _atom_site_pbe_ddec_spin_density
 _atom_site_pbe_ddec_sum_bond_order
 _atom_site_pbe_magmom
Cd  Cd0  1  0.17235233  0.53279750  0.32338733  1  0  1.236583  0  1.593269  0  0  1.052101  0  2.041446  0  0  1.10742  0  1.985914  0  0  0.79289  1.012398  0  2.079998  0
Cd  Cd1  1  0.67234089  0.96719479  0.17661519  1  0  1.236503  0  1.593334  0  0  1.052044  0  2.041504  0  0  1.107359  0  1.985972  0  0  0.792884  1.012339  0  2.080047  0
Cd  Cd2  1  0.82765302  0.46720332  0.67661976  1  0  1.236589  0  1.593294  0  0  1.052151  0  2.041467  0  0  1.107462  0  1.985934  0  0  0.792925  1.012457  0  2.080028  0
Cd  Cd3  1  0.32764724  0.03279704  0.82338100  1  0  1.236639  0  1.593268  0  0  1.052155  0  2.041449  0  0  1.107485  0  1.985914  0  0  0.792898  1.012448  0  2.080002  0
H  H4  1  0.87427544  0.33953936  0.36301911  1  0  0.434914  0  0.859178  0  0  0.401876  0  0.925301  0  0  0.413209  0  0.908706  0  0  0.293619  0.393918  0  0.936948  0
H  H5  1  0.37426505  0.16046789  0.13697951  1  0  0.43482  0  0.859314  0  0  0.40177  0  0.925451  0  0  0.413112  0  0.908844  0  0  0.293557  0.393807  0  0.937107  0
H  H6  1  0.12573134  0.66046973  0.63697901  1  0  0.434804  0  0.859349  0  0  0.401767  0  0.925466  0  0  0.413106  0  0.908863  0  0  0.293565  0.393809  0  0.937112  0
H  H7  1  0.62573169  0.83953402  0.86302231  1  0  0.434835  0  0.859283  0  0  0.40178  0  0.925431  0  0  0.413114  0  0.908836  0  0  0.293553  0.39382  0  0.937081  0
H  H8  1  0.96552206  0.25458474  0.24327346  1  0  0.433637  0  0.858359  0  0  0.402188  0  0.922537  0  0  0.413082  0  0.906543  0  0  0.293019  0.394447  0  0.933857  0
H  H9  1  0.46553004  0.24541332  0.25672182  1  0  0.433658  0  0.858329  0  0  0.402216  0  0.922497  0  0  0.413105  0  0.906509  0  0  0.293029  0.394476  0  0.933822  0
H  H10  1  0.03447611  0.74541620  0.75672554  1  0  0.433639  0  0.858351  0  0  0.402189  0  0.922532  0  0  0.413082  0  0.906538  0  0  0.293012  0.394445  0  0.933855  0
H  H11  1  0.53447100  0.75458349  0.74328212  1  0  0.433679  0  0.858303  0  0  0.402242  0  0.922461  0  0  0.413133  0  0.906469  0  0  0.293059  0.394501  0  0.933781  0
H  H12  1  0.71359389  0.10343554  0.65484609  1  0  0.312154  0  0.925558  0  0  0.292836  0  0.984421  0  0  0.302152  0  0.977021  0  0  0.309985  0.286019  0  0.990007  0
H  H13  1  0.21358479  0.39656290  0.84515419  1  0  0.312127  0  0.925538  0  0  0.292825  0  0.98438  0  0  0.302138  0  0.976987  0  0  0.309983  0.286021  0  0.989935  0
H  H14  1  0.28640141  0.89657567  0.34514596  1  0  0.312178  0  0.925523  0  0  0.292731  0  0.98454  0  0  0.302043  0  0.977139  0  0  0.309969  0.285956  0  0.990051  0
H  H15  1  0.78640621  0.60342879  0.15485188  1  0  0.312152  0  0.925572  0  0  0.292754  0  0.98453  0  0  0.302065  0  0.977131  0  0  0.309953  0.285979  0  0.990035  0
H  H16  1  0.85361098  0.85293421  0.62395215  1  0  0.115831  0  0.96817  0  0  0.12318  0  1.036156  0  0  0.126769  0  1.032502  0  0  0.122068  0.120454  0  1.038933  0
H  H17  1  0.35360298  0.64706226  0.87604617  1  0  0.115815  0  0.968273  0  0  0.123118  0  1.0363  0  0  0.126701  0  1.032657  0  0  0.122071  0.120408  0  1.039063  0
H  H18  1  0.14639293  0.14708099  0.37604575  1  0  0.115952  0  0.967944  0  0  0.1231  0  1.036158  0  0  0.126683  0  1.032514  0  0  0.122041  0.120396  0  1.038911  0
H  H19  1  0.64638945  0.35292747  0.12395428  1  0  0.115917  0  0.968028  0  0  0.123105  0  1.036198  0  0  0.126688  0  1.032554  0  0  0.122045  0.120412  0  1.038931  0
H  H20  1  0.62885864  0.18318794  0.45888242  1  0  0.092322  0  0.972593  0  0  0.101246  0  1.035108  0  0  0.103549  0  1.032875  0  0  0.133281  0.099455  0  1.036934  0
H  H21  1  0.12885670  0.31680635  0.04111432  1  0  0.092395  0  0.972618  0  0  0.101409  0  1.035027  0  0  0.103721  0  1.032778  0  0  0.133307  0.099613  0  1.036855  0
H  H22  1  0.37114384  0.81681827  0.54110368  1  0  0.092418  0  0.97256  0  0  0.101229  0  1.035213  0  0  0.103531  0  1.032984  0  0  0.133304  0.099441  0  1.037035  0
H  H23  1  0.87114578  0.68318231  0.95889051  1  0  0.092416  0  0.972596  0  0  0.101222  0  1.035251  0  0  0.103522  0  1.033024  0  0  0.133284  0.099432  0  1.037077  0
C  C24  1  0.85764238  0.75427694  0.35208040  1  0  0.644547  0  3.961742  0  0  0.593784  0  4.255487  0  0  0.629572  0  4.246859  0  0  0.201697  0.569339  0  4.260775  0
C  C25  1  0.35763610  0.74571927  0.14792062  1  0  0.644619  0  3.961729  0  0  0.593781  0  4.255531  0  0  0.629569  0  4.246902  0  0  0.201659  0.569344  0  4.26081  0
C  C26  1  0.14236009  0.24572498  0.64792141  1  0  0.644677  0  3.961513  0  0  0.593881  0  4.255334  0  0  0.629672  0  4.246697  0  0  0.201809  0.569445  0  4.260616  0
C  C27  1  0.64235776  0.25427660  0.85207782  1  0  0.644662  0  3.96172  0  0  0.593879  0  4.255514  0  0  0.629666  0  4.246877  0  0  0.201747  0.569438  0  4.260804  0
C  C28  1  0.79595271  0.87733190  0.42890143  1  0  -0.014708  0  3.810248  0  0  -0.012425  0  4.06747  0  0  -0.018499  0  4.090764  0  0  0.058985  -0.008611  0  4.051819  0
C  C29  1  0.29594755  0.62266132  0.07109960  1  0  -0.014848  0  3.810381  0  0  -0.012448  0  4.067469  0  0  -0.018521  0  4.090761  0  0  0.059016  -0.008641  0  4.051826  0
C  C30  1  0.20405407  0.12267822  0.57109590  1  0  -0.014648  0  3.810212  0  0  -0.012361  0  4.067452  0  0  -0.018434  0  4.090742  0  0  0.058981  -0.008562  0  4.051822  0
C  C31  1  0.70404918  0.37732735  0.92890433  1  0  -0.014546  0  3.8101  0  0  -0.012277  0  4.067361  0  0  -0.018348  0  4.090649  0  0  0.059086  -0.008476  0  4.05173  0
C  C32  1  0.80431643  0.91085116  0.55302669  1  0  0.032848  0  3.612244  0  0  -0.021059  0  3.881215  0  0  -0.014384  0  3.896354  0  0  0.022585  -0.025135  0  3.870986  0
C  C33  1  0.30430889  0.58914432  0.94697270  1  0  0.032882  0  3.61249  0  0  -0.021012  0  3.881453  0  0  -0.014336  0  3.896595  0  0  0.022566  -0.025098  0  3.871215  0
C  C34  1  0.19568748  0.08916306  0.44696840  1  0  0.032702  0  3.612111  0  0  -0.021103  0  3.881132  0  0  -0.014427  0  3.896268  0  0  0.022597  -0.025188  0  3.870889  0
C  C35  1  0.69568497  0.41084129  0.05303179  1  0  0.032742  0  3.612102  0  0  -0.02107  0  3.881118  0  0  -0.014392  0  3.896257  0  0  0.022553  -0.025162  0  3.870856  0
C  C36  1  0.68595572  0.08310447  0.46675189  1  0  0.24369  0  3.667747  0  0  0.179609  0  3.945373  0  0  0.193864  0  3.95884  0  0  0.146538  0.170326  0  3.935909  0
C  C37  1  0.18595098  0.41689076  0.03324644  1  0  0.243568  0  3.667724  0  0  0.179397  0  3.945358  0  0  0.193651  0  3.958823  0  0  0.146477  0.170115  0  3.935892  0
C  C38  1  0.31404962  0.91690477  0.53323635  1  0  0.243737  0  3.667904  0  0  0.179678  0  3.945495  0  0  0.193936  0  3.958955  0  0  0.146524  0.170396  0  3.936036  0
C  C39  1  0.81405149  0.58309789  0.96675839  1  0  0.243712  0  3.667906  0  0  0.17968  0  3.945507  0  0  0.193937  0  3.958971  0  0  0.146532  0.170395  0  3.936054  0
C  C40  1  0.54444345  0.44320885  0.45387390  1  0  0.559317  0  3.881764  0  0  0.507642  0  4.178874  0  0  0.537811  0  4.173091  0  0  0.214831  0.487161  0  4.182224  0
C  C41  1  0.04442719  0.05679662  0.04612817  1  0  0.559327  0  3.882256  0  0  0.507558  0  4.179444  0  0  0.537756  0  4.173653  0  0  0.214821  0.487065  0  4.182799  0
C  C42  1  0.45557051  0.55679505  0.54613084  1  0  0.559159  0  3.882354  0  0  0.50738  0  4.17955  0  0  0.537567  0  4.173766  0  0  0.214799  0.486903  0  4.182894  0
C  C43  1  0.95555950  0.94320021  0.95387398  1  0  0.559264  0  3.882107  0  0  0.507527  0  4.179277  0  0  0.537704  0  4.173485  0  0  0.214836  0.487045  0  4.182631  0
N  N44  1  0.72169048  0.98671084  0.37702524  1  0  -0.44939  0  3.304793  0  0  -0.374789  0  3.588236  0  0  -0.397349  0  3.607478  0  0  -0.367169  -0.359151  0  3.574611  0
N  N45  1  0.22169326  0.51328246  0.12297441  1  0  -0.449367  0  3.30461  0  0  -0.374795  0  3.588065  0  0  -0.397354  0  3.607305  0  0  -0.36719  -0.359157  0  3.57444  0
N  N46  1  0.27831486  0.01329628  0.62296816  1  0  -0.449445  0  3.304703  0  0  -0.374848  0  3.588152  0  0  -0.397413  0  3.607396  0  0  -0.367169  -0.359208  0  3.574534  0
N  N47  1  0.77831209  0.48670519  0.87702941  1  0  -0.449515  0  3.304739  0  0  -0.37493  0  3.588212  0  0  -0.397492  0  3.607454  0  0  -0.367242  -0.359294  0  3.574603  0
N  N48  1  0.73477934  0.04042292  0.57412451  1  0  -0.281225  0  3.446836  0  0  -0.212362  0  3.686791  0  0  -0.229805  0  3.70167  0  0  -0.372777  -0.20056  0  3.676631  0
N  N49  1  0.23477195  0.45957448  0.92587644  1  0  -0.281137  0  3.446942  0  0  -0.212285  0  3.686926  0  0  -0.229725  0  3.7018  0  0  -0.372753  -0.200492  0  3.676756  0
N  N50  1  0.26522457  0.95959027  0.42587137  1  0  -0.281418  0  3.44704  0  0  -0.212317  0  3.686844  0  0  -0.229749  0  3.701712  0  0  -0.372798  -0.200546  0  3.676641  0
N  N51  1  0.76522478  0.54041420  0.07412659  1  0  -0.281396  0  3.447046  0  0  -0.212358  0  3.686863  0  0  -0.229798  0  3.70174  0  0  -0.372751  -0.200585  0  3.676657  0
O  O52  1  0.92814777  0.65787119  0.40512455  1  0  -0.640932  0  2.005553  0  0  -0.57194  0  2.258749  0  0  -0.601696  0  2.247071  0  0  -0.334941  -0.551275  0  2.266564  0
O  O53  1  0.42813789  0.84212500  0.09487337  1  0  -0.640862  0  2.005534  0  0  -0.571888  0  2.25876  0  0  -0.601642  0  2.247078  0  0  -0.334899  -0.551224  0  2.266571  0
O  O54  1  0.07186332  0.34214088  0.59487840  1  0  -0.640976  0  2.005449  0  0  -0.571979  0  2.258647  0  0  -0.601735  0  2.246965  0  0  -0.334981  -0.551312  0  2.266462  0
O  O55  1  0.57185597  0.15786480  0.90512259  1  0  -0.640998  0  2.005396  0  0  -0.572033  0  2.258639  0  0  -0.601786  0  2.246952  0  0  -0.334986  -0.551361  0  2.266453  0
O  O56  1  0.97867625  0.33627468  0.30243568  1  0  -0.857856  0  1.84073  0  0  -0.795139  0  2.0395  0  0  -0.815957  0  2.002361  0  0  -0.593981  -0.780362  0  2.065341  0
O  O57  1  0.47866931  0.16372534  0.19756424  1  0  -0.857746  0  1.840785  0  0  -0.795042  0  2.039535  0  0  -0.81587  0  2.002423  0  0  -0.593935  -0.78027  0  2.065368  0
O  O58  1  0.02133053  0.66372728  0.69756344  1  0  -0.857731  0  1.840816  0  0  -0.795063  0  2.039616  0  0  -0.815881  0  2.002477  0  0  -0.593937  -0.780279  0  2.065454  0
O  O59  1  0.52133316  0.83627663  0.80243398  1  0  -0.857808  0  1.840735  0  0  -0.795106  0  2.039519  0  0  -0.81593  0  2.002397  0  0  -0.593958  -0.780326  0  2.06536  0
O  O60  1  0.83813582  0.75357172  0.23778188  1  0  -0.64781  0  1.99497  0  0  -0.59141  0  2.235548  0  0  -0.618094  0  2.224121  0  0  -0.322142  -0.572463  0  2.242897  0
O  O61  1  0.33812795  0.74642555  0.26221667  1  0  -0.647872  0  1.994909  0  0  -0.591448  0  2.235579  0  0  -0.618124  0  2.224134  0  0  -0.322163  -0.572504  0  2.242928  0
O  O62  1  0.16185374  0.24642311  0.76221735  1  0  -0.647896  0  1.99494  0  0  -0.591513  0  2.235566  0  0  -0.618195  0  2.224129  0  0  -0.322196  -0.572555  0  2.242921  0
O  O63  1  0.66185731  0.25357431  0.73778671  1  0  -0.647859  0  1.995109  0  0  -0.591457  0  2.235712  0  0  -0.618149  0  2.224308  0  0  -0.322157  -0.572497  0  2.243077  0
O  O64  1  0.44985338  0.40455006  0.35868113  1  0  -0.612252  0  2.049587  0  0  -0.546731  0  2.294066  0  0  -0.57479  0  2.283577  0  0  -0.304186  -0.526849  0  2.300541  0
O  O65  1  0.94983398  0.09545302  0.14131930  1  0  -0.61214  0  2.049758  0  0  -0.546605  0  2.294263  0  0  -0.574666  0  2.283764  0  0  -0.304127  -0.526723  0  2.300734  0
O  O66  1  0.55015340  0.59544766  0.64132921  1  0  -0.61211  0  2.04977  0  0  -0.546552  0  2.294242  0  0  -0.57461  0  2.283747  0  0  -0.304123  -0.526676  0  2.300714  0
O  O67  1  0.05015415  0.90454584  0.85868307  1  0  -0.612211  0  2.049642  0  0  -0.546672  0  2.294154  0  0  -0.574733  0  2.28366  0  0  -0.304203  -0.526792  0  2.300627  0
O  O68  1  0.70566669  0.39573053  0.48071320  1  0  -0.601624  0  2.112113  0  0  -0.528535  0  2.348654  0  0  -0.556762  0  2.339469  0  0  -0.294338  -0.509063  0  2.35503  0
O  O69  1  0.20564505  0.10427581  0.01928896  1  0  -0.601822  0  2.112744  0  0  -0.528587  0  2.349176  0  0  -0.556888  0  2.340038  0  0  -0.294295  -0.509094  0  2.355546  0
O  O70  1  0.29435300  0.60428155  0.51928885  1  0  -0.601666  0  2.112608  0  0  -0.52844  0  2.349067  0  0  -0.556715  0  2.339917  0  0  -0.294267  -0.508962  0  2.355433  0
O  O71  1  0.79434451  0.89571999  0.98071397  1  0  -0.601615  0  2.112592  0  0  -0.52845  0  2.349114  0  0  -0.556686  0  2.339932  0  0  -0.294273  -0.508971  0  2.355482  0
