# generated using pymatgen
data_DyH12C10NO8
_symmetry_space_group_name_H-M   'P 1'
_cell_length_a   9.14333193
_cell_length_b   11.42328393
_cell_length_c   12.71879834
_cell_angle_alpha   89.99991729
_cell_angle_beta   90.00031077
_cell_angle_gamma   100.42779892
_symmetry_Int_Tables_number   1
_chemical_formula_structural   DyH12C10NO8
_chemical_formula_sum   'Dy4 H48 C40 N4 O32'
_cell_volume   1306.49796156
_cell_formula_units_Z   4
loop_
 _symmetry_equiv_pos_site_id
 _symmetry_equiv_pos_as_xyz
  1  'x, y, z'
loop_
 _atom_site_type_symbol
 _atom_site_label
 _atom_site_symmetry_multiplicity
 _atom_site_fract_x
 _atom_site_fract_y
 _atom_site_fract_z
 _atom_site_occupancy
 _atom_site_hle17_bader_spin_density
 _atom_site_hle17_ddec_charge
 _atom_site_hle17_ddec_spin_density
 _atom_site_hle17_ddec_sum_bond_order
 _atom_site_hle17_magmom
 _atom_site_hse06_10hf_bader_spin_density
 _atom_site_hse06_10hf_ddec_charge
 _atom_site_hse06_10hf_ddec_spin_density
 _atom_site_hse06_10hf_ddec_sum_bond_order
 _atom_site_hse06_10hf_magmom
 _atom_site_hse06_bader_spin_density
 _atom_site_hse06_ddec_charge
 _atom_site_hse06_ddec_spin_density
 _atom_site_hse06_ddec_sum_bond_order
 _atom_site_hse06_magmom
 _atom_site_pbe_bader_spin_density
 _atom_site_pbe_cm5_charge
 _atom_site_pbe_ddec_charge
 _atom_site_pbe_ddec_spin_density
 _atom_site_pbe_ddec_sum_bond_order
 _atom_site_pbe_magmom
Dy  Dy0  1  0.56083927  0.58957593  0.22039810  1  0  2.312573  0  1.611953  0  0  2.244477  0  1.935857  0  0  2.289709  0  1.895096  0  0  1.525239  2.133286  0  2.107754  0
Dy  Dy1  1  0.93916306  0.41042004  0.72040138  1  0  2.312503  0  1.612032  0  0  2.244387  0  1.935949  0  0  2.289623  0  1.895185  0  0  1.525181  2.133163  0  2.107917  0
Dy  Dy2  1  0.43916198  0.41042129  0.77960018  1  0  2.312532  0  1.61198  0  0  2.244419  0  1.935893  0  0  2.289649  0  1.895127  0  0  1.525212  2.133221  0  2.107816  0
Dy  Dy3  1  0.06083982  0.58957454  0.27960083  1  0  2.312545  0  1.611968  0  0  2.244446  0  1.935885  0  0  2.289683  0  1.895118  0  0  1.52521  2.133262  0  2.107773  0
H  H4  1  0.61349897  0.87210558  0.41676641  1  0  0.127606  0  0.945418  0  0  0.13254  0  1.011997  0  0  0.137133  0  1.008902  0  0  0.116184  0.128859  0  1.015172  0
H  H5  1  0.88649073  0.12788571  0.91677221  1  0  0.127527  0  0.945509  0  0  0.132418  0  1.012148  0  0  0.13701  0  1.009054  0  0  0.116088  0.128735  0  1.015327  0
H  H6  1  0.38649226  0.12789599  0.58322322  1  0  0.127603  0  0.945466  0  0  0.132507  0  1.01208  0  0  0.137099  0  1.008988  0  0  0.116143  0.128826  0  1.015254  0
H  H7  1  0.11349642  0.87210693  0.08323236  1  0  0.127591  0  0.945397  0  0  0.13251  0  1.011994  0  0  0.137102  0  1.0089  0  0  0.116168  0.12883  0  1.015165  0
H  H8  1  0.06928137  0.98047505  0.32161636  1  0  0.114558  0  0.941708  0  0  0.12339  0  1.002047  0  0  0.126836  0  1.001126  0  0  0.111889  0.120703  0  1.00332  0
H  H9  1  0.43070069  0.01952944  0.82162326  1  0  0.114582  0  0.941506  0  0  0.123286  0  1.001993  0  0  0.126733  0  1.001071  0  0  0.111871  0.120617  0  1.003249  0
H  H10  1  0.93070945  0.01951941  0.67837957  1  0  0.114634  0  0.941581  0  0  0.123404  0  1.001997  0  0  0.126852  0  1.001074  0  0  0.111899  0.120694  0  1.003294  0
H  H11  1  0.56927907  0.98048000  0.17838132  1  0  0.114593  0  0.941715  0  0  0.123374  0  1.002107  0  0  0.126819  0  1.001187  0  0  0.111922  0.120694  0  1.003371  0
H  H12  1  0.78155388  0.66401749  0.04878164  1  0  0.443117  0  0.859805  0  0  0.411382  0  0.924544  0  0  0.423139  0  0.907359  0  0  0.294389  0.402655  0  0.937148  0
H  H13  1  0.71845416  0.33598575  0.54878180  1  0  0.443198  0  0.859705  0  0  0.411442  0  0.924465  0  0  0.423199  0  0.90728  0  0  0.294443  0.402715  0  0.93707  0
H  H14  1  0.21845398  0.33598513  0.95121664  1  0  0.443194  0  0.859699  0  0  0.411445  0  0.92445  0  0  0.423202  0  0.907264  0  0  0.294435  0.402719  0  0.937054  0
H  H15  1  0.28155150  0.66401685  0.45121806  1  0  0.443134  0  0.859793  0  0  0.4114  0  0.924527  0  0  0.423158  0  0.907341  0  0  0.294405  0.402673  0  0.937132  0
H  H16  1  0.65924156  0.74658313  0.03298269  1  0  0.401833  0  0.914924  0  0  0.360319  0  0.99586  0  0  0.372085  0  0.979052  0  0  0.28688  0.351668  0  1.007997  0
H  H17  1  0.84075663  0.25341025  0.53298422  1  0  0.401808  0  0.914966  0  0  0.360313  0  0.995868  0  0  0.372081  0  0.979058  0  0  0.286867  0.351661  0  1.008007  0
H  H18  1  0.34075694  0.25341140  0.96701481  1  0  0.401839  0  0.91493  0  0  0.360331  0  0.995853  0  0  0.372098  0  0.979044  0  0  0.286875  0.35168  0  1.00799  0
H  H19  1  0.15924462  0.74658698  0.46701643  1  0  0.401794  0  0.91499  0  0  0.360291  0  0.995908  0  0  0.372058  0  0.979098  0  0  0.286873  0.351639  0  1.008046  0
H  H20  1  0.06533312  0.18040064  0.40723895  1  0  0.076173  0  0.95262  0  0  0.083842  0  1.019979  0  0  0.086084  0  1.018642  0  0  0.114835  0.081898  0  1.021628  0
H  H21  1  0.43464629  0.81960377  0.90724718  1  0  0.07625  0  0.952484  0  0  0.083849  0  1.019954  0  0  0.086087  0  1.018624  0  0  0.114828  0.081913  0  1.02158  0
H  H22  1  0.93466393  0.81959743  0.59275383  1  0  0.076219  0  0.952502  0  0  0.083821  0  1.019948  0  0  0.086053  0  1.018631  0  0  0.114815  0.081887  0  1.021576  0
H  H23  1  0.56532944  0.18040208  0.09275660  1  0  0.076134  0  0.952578  0  0  0.083827  0  1.019933  0  0  0.086068  0  1.018596  0  0  0.114825  0.081891  0  1.021563  0
H  H24  1  0.62966661  0.07610840  0.50155878  1  0  0.074786  0  0.934433  0  0  0.085557  0  0.993869  0  0  0.088106  0  0.992155  0  0  0.115963  0.083489  0  0.995622  0
H  H25  1  0.87031906  0.92387866  0.00156256  1  0  0.074907  0  0.934309  0  0  0.085635  0  0.993778  0  0  0.088187  0  0.992058  0  0  0.115975  0.083567  0  0.995532  0
H  H26  1  0.37032333  0.92389227  0.49843085  1  0  0.074839  0  0.934453  0  0  0.08563  0  0.993856  0  0  0.08818  0  0.992139  0  0  0.115971  0.083563  0  0.995609  0
H  H27  1  0.12966587  0.07610863  0.99843887  1  0  0.074736  0  0.934458  0  0  0.085504  0  0.993898  0  0  0.088051  0  0.992185  0  0  0.115931  0.083437  0  0.99565  0
H  H28  1  0.27863902  0.51244784  0.09910784  1  0  0.444385  0  0.851854  0  0  0.412499  0  0.916761  0  0  0.4241  0  0.899747  0  0  0.302012  0.403497  0  0.929731  0
H  H29  1  0.22136350  0.48755788  0.59911489  1  0  0.444408  0  0.851826  0  0  0.412529  0  0.916707  0  0  0.42413  0  0.899694  0  0  0.302007  0.403529  0  0.929676  0
H  H30  1  0.72136392  0.48755740  0.90088572  1  0  0.444394  0  0.851847  0  0  0.412525  0  0.916708  0  0  0.424123  0  0.899701  0  0  0.302007  0.403523  0  0.929678  0
H  H31  1  0.77864235  0.51244561  0.40089126  1  0  0.444452  0  0.851767  0  0  0.412572  0  0.916651  0  0  0.424172  0  0.899639  0  0  0.302047  0.40357  0  0.929622  0
H  H32  1  0.39891249  0.55973691  0.00973954  1  0  0.446964  0  0.844532  0  0  0.420252  0  0.900902  0  0  0.42989  0  0.886742  0  0  0.309705  0.41286  0  0.911587  0
H  H33  1  0.10109115  0.44026176  0.50974461  1  0  0.447119  0  0.844338  0  0  0.420402  0  0.900716  0  0  0.430041  0  0.886553  0  0  0.309744  0.41301  0  0.911403  0
H  H34  1  0.60109442  0.44026126  0.99025560  1  0  0.447113  0  0.84434  0  0  0.420399  0  0.900712  0  0  0.430039  0  0.886549  0  0  0.309755  0.413007  0  0.911399  0
H  H35  1  0.89891248  0.55973638  0.49025997  1  0  0.44702  0  0.844457  0  0  0.420304  0  0.900834  0  0  0.429943  0  0.886672  0  0  0.309717  0.412912  0  0.91152  0
H  H36  1  0.29585493  0.29384795  0.45388446  1  0  0.110897  0  0.919377  0  0  0.118508  0  0.978187  0  0  0.121524  0  0.977143  0  0  0.111458  0.116005  0  0.979955  0
H  H37  1  0.20415129  0.70615226  0.95387385  1  0  0.111055  0  0.919443  0  0  0.118573  0  0.978321  0  0  0.12159  0  0.977275  0  0  0.111456  0.11607  0  0.980091  0
H  H38  1  0.70415312  0.70615556  0.54613112  1  0  0.111099  0  0.91928  0  0  0.118557  0  0.978221  0  0  0.121573  0  0.977175  0  0  0.111445  0.116052  0  0.979991  0
H  H39  1  0.79585215  0.29384498  0.04611499  1  0  0.110982  0  0.919355  0  0  0.118595  0  0.978164  0  0  0.12161  0  0.977121  0  0  0.111473  0.116091  0  0.979932  0
H  H40  1  0.41087429  0.17514656  0.32378285  1  0  0.10272  0  0.944316  0  0  0.123683  0  1.004858  0  0  0.125097  0  1.005528  0  0  0.089988  0.122404  0  1.004944  0
H  H41  1  0.08913572  0.82485554  0.82377557  1  0  0.102864  0  0.944239  0  0  0.12379  0  1.004807  0  0  0.125201  0  1.005479  0  0  0.090018  0.122509  0  1.004894  0
H  H42  1  0.58913594  0.82485697  0.67622644  1  0  0.102858  0  0.94427  0  0  0.123808  0  1.0048  0  0  0.125219  0  1.005474  0  0  0.090034  0.122527  0  1.004888  0
H  H43  1  0.91088106  0.17514273  0.17621013  1  0  0.102737  0  0.944457  0  0  0.123673  0  1.005016  0  0  0.125086  0  1.00569  0  0  0.089984  0.122394  0  1.005102  0
H  H44  1  0.41887393  0.29029316  0.22808978  1  0  0.115083  0  0.964217  0  0  0.1296  0  1.035425  0  0  0.132164  0  1.034324  0  0  0.098063  0.128498  0  1.034588  0
H  H45  1  0.08113280  0.70970719  0.72807555  1  0  0.115085  0  0.964146  0  0  0.12955  0  1.035408  0  0  0.132112  0  1.034314  0  0  0.098033  0.128451  0  1.034569  0
H  H46  1  0.58113229  0.70971211  0.77192815  1  0  0.115101  0  0.964159  0  0  0.129564  0  1.035437  0  0  0.132126  0  1.034343  0  0  0.098028  0.128461  0  1.034598  0
H  H47  1  0.91887847  0.29028570  0.27190779  1  0  0.115117  0  0.964136  0  0  0.129605  0  1.035377  0  0  0.132173  0  1.034275  0  0  0.098038  0.128504  0  1.034541  0
H  H48  1  0.24375094  0.20954138  0.26977740  1  0  0.104746  0  0.943006  0  0  0.127548  0  1.000734  0  0  0.12897  0  1.001279  0  0  0.091021  0.126351  0  1.000874  0
H  H49  1  0.25626490  0.79046437  0.76976846  1  0  0.104806  0  0.943163  0  0  0.127632  0  1.000828  0  0  0.129054  0  1.001374  0  0  0.09105  0.126434  0  1.000967  0
H  H50  1  0.75626499  0.79046843  0.73023425  1  0  0.10482  0  0.943169  0  0  0.127625  0  1.000863  0  0  0.129048  0  1.001409  0  0  0.091036  0.126428  0  1.001002  0
H  H51  1  0.74375570  0.20953128  0.23022196  1  0  0.104731  0  0.943032  0  0  0.12755  0  1.000736  0  0  0.12897  0  1.001283  0  0  0.091025  0.126354  0  1.000873  0
C  C52  1  0.83937209  0.78970181  0.31996531  1  0  0.718049  0  3.867976  0  0  0.671195  0  4.163455  0  0  0.706507  0  4.150307  0  0  0.239302  0.646288  0  4.166065  0
C  C53  1  0.66062606  0.21029673  0.81996934  1  0  0.717838  0  3.868203  0  0  0.671092  0  4.163603  0  0  0.706404  0  4.150467  0  0  0.2392  0.646186  0  4.166206  0
C  C54  1  0.16062659  0.21029361  0.68003219  1  0  0.717851  0  3.868254  0  0  0.671058  0  4.163709  0  0  0.70637  0  4.150567  0  0  0.239238  0.646154  0  4.166312  0
C  C55  1  0.33936826  0.78970398  0.18003209  1  0  0.717982  0  3.868071  0  0  0.671097  0  4.163592  0  0  0.706409  0  4.150444  0  0  0.239222  0.64619  0  4.166203  0
C  C56  1  0.84140886  0.91260060  0.36403779  1  0  -0.017892  0  3.710187  0  0  0.003703  0  3.935272  0  0  0.000179  0  3.956398  0  0  0.004479  0.005378  0  3.922884  0
C  C57  1  0.65857976  0.08739782  0.86404433  1  0  -0.017849  0  3.710303  0  0  0.003551  0  3.935549  0  0  2.3e-05  0  3.956682  0  0  0.004384  0.005228  0  3.923169  0
C  C58  1  0.15858453  0.08739566  0.63595498  1  0  -0.017821  0  3.710457  0  0  0.003658  0  3.935657  0  0  0.000131  0  3.95679  0  0  0.00442  0.005334  0  3.923261  0
C  C59  1  0.34140598  0.91260369  0.13596260  1  0  -0.017893  0  3.710339  0  0  0.003742  0  3.935377  0  0  0.000215  0  3.956505  0  0  0.004495  0.005415  0  3.922996  0
C  C60  1  0.71474784  0.93930933  0.41380166  1  0  -0.126678  0  3.706921  0  0  -0.148901  0  3.955259  0  0  -0.153786  0  3.976263  0  0  -0.075102  -0.14591  0  3.942583  0
C  C61  1  0.78524002  0.06068372  0.91380401  1  0  -0.126619  0  3.706694  0  0  -0.148747  0  3.955068  0  0  -0.153631  0  3.976075  0  0  -0.074965  -0.145753  0  3.942388  0
C  C62  1  0.28524573  0.06068782  0.58619505  1  0  -0.12679  0  3.706666  0  0  -0.148968  0  3.955083  0  0  -0.153856  0  3.97609  0  0  -0.075087  -0.145976  0  3.942408  0
C  C63  1  0.21474661  0.93931158  0.08619899  1  0  -0.126723  0  3.706922  0  0  -0.148948  0  3.955287  0  0  -0.153832  0  3.97629  0  0  -0.075098  -0.145955  0  3.942609  0
C  C64  1  0.96983784  0.99995530  0.35989766  1  0  -0.125653  0  3.724578  0  0  -0.149578  0  3.973956  0  0  -0.154379  0  3.995891  0  0  -0.077454  -0.146601  0  3.960122  0
C  C65  1  0.53014511  0.00004751  0.85990617  1  0  -0.125538  0  3.724478  0  0  -0.149269  0  3.97387  0  0  -0.154066  0  3.995806  0  0  -0.077358  -0.146314  0  3.96003  0
C  C66  1  0.03015464  0.00004184  0.64009826  1  0  -0.125689  0  3.724683  0  0  -0.149533  0  3.974065  0  0  -0.154332  0  3.996001  0  0  -0.077424  -0.146537  0  3.96024  0
C  C67  1  0.46983719  0.99995841  0.14010155  1  0  -0.125629  0  3.724511  0  0  -0.149515  0  3.973909  0  0  -0.154313  0  3.995845  0  0  -0.077477  -0.146545  0  3.960075  0
C  C68  1  0.26575663  0.43121321  0.34823361  1  0  0.73172  0  3.797872  0  0  0.681166  0  4.10219  0  0  0.716138  0  4.090942  0  0  0.225447  0.657236  0  4.100698  0
C  C69  1  0.23424463  0.56879323  0.84822880  1  0  0.731771  0  3.798269  0  0  0.681244  0  4.102507  0  0  0.716215  0  4.091264  0  0  0.225494  0.657315  0  4.101009  0
C  C70  1  0.73424997  0.56879384  0.65177333  1  0  0.73156  0  3.798298  0  0  0.681041  0  4.102496  0  0  0.716011  0  4.091254  0  0  0.225387  0.657114  0  4.10099  0
C  C71  1  0.76575427  0.43120841  0.15176712  1  0  0.731484  0  3.798394  0  0  0.681083  0  4.102471  0  0  0.716055  0  4.09123  0  0  0.225399  0.657152  0  4.100977  0
C  C72  1  0.96811331  0.10926480  0.40785009  1  0  0.115326  0  3.728364  0  0  0.085582  0  3.990038  0  0  0.089948  0  4.008827  0  0  0.048875  0.082708  0  3.977702  0
C  C73  1  0.53186890  0.89073797  0.90785745  1  0  0.115161  0  3.728196  0  0  0.085453  0  3.989848  0  0  0.089815  0  4.008638  0  0  0.04884  0.082582  0  3.977522  0
C  C74  1  0.03188155  0.89073325  0.59214583  1  0  0.115247  0  3.728331  0  0  0.085583  0  3.989991  0  0  0.089948  0  4.008776  0  0  0.048875  0.082709  0  3.977654  0
C  C75  1  0.46810993  0.10926703  0.09215106  1  0  0.115309  0  3.728218  0  0  0.085521  0  3.989886  0  0  0.089885  0  4.008677  0  0  0.048855  0.082649  0  3.977557  0
C  C76  1  0.72405470  0.05086218  0.46018164  1  0  0.10516  0  3.734865  0  0  0.078051  0  3.986593  0  0  0.082179  0  4.005404  0  0  0.046685  0.075393  0  3.974234  0
C  C77  1  0.77593038  0.94912637  0.96018358  1  0  0.105189  0  3.73471  0  0  0.07813  0  3.986407  0  0  0.08226  0  4.005216  0  0  0.046784  0.075471  0  3.97405  0
C  C78  1  0.27593850  0.94913318  0.53980799  1  0  0.105218  0  3.73447  0  0  0.078119  0  3.98621  0  0  0.082251  0  4.005015  0  0  0.046759  0.075459  0  3.973856  0
C  C79  1  0.22404983  0.05086443  0.03982020  1  0  0.105212  0  3.734809  0  0  0.078104  0  3.986526  0  0  0.082235  0  4.005334  0  0  0.046709  0.075445  0  3.97417  0
C  C80  1  0.35341078  0.33869202  0.38524991  1  0  -0.242762  0  3.657856  0  0  -0.241313  0  3.89845  0  0  -0.251364  0  3.907428  0  0  -0.090116  -0.234843  0  3.893302  0
C  C81  1  0.14659790  0.66131714  0.88523757  1  0  -0.243152  0  3.658636  0  0  -0.241641  0  3.899038  0  0  -0.251686  0  3.908003  0  0  -0.090153  -0.23517  0  3.893894  0
C  C82  1  0.64659914  0.66132039  0.61476803  1  0  -0.243203  0  3.658552  0  0  -0.241624  0  3.89891  0  0  -0.251667  0  3.907875  0  0  -0.090104  -0.235153  0  3.893762  0
C  C83  1  0.85340776  0.33868546  0.11475049  1  0  -0.242849  0  3.657879  0  0  -0.241453  0  3.898398  0  0  -0.251503  0  3.907371  0  0  -0.090145  -0.234981  0  3.893255  0
C  C84  1  0.51371853  0.38619079  0.41965046  1  0  0.726734  0  3.808494  0  0  0.680161  0  4.106292  0  0  0.713551  0  4.098075  0  0  0.227656  0.656783  0  4.10995  0
C  C85  1  0.98628972  0.61381578  0.91964422  1  0  0.726792  0  3.808968  0  0  0.680433  0  4.10638  0  0  0.713825  0  4.098163  0  0  0.227769  0.657052  0  4.110042  0
C  C86  1  0.48629154  0.61381718  0.58035726  1  0  0.726894  0  3.808747  0  0  0.68054  0  4.106115  0  0  0.713931  0  4.097895  0  0  0.227819  0.657159  0  4.109778  0
C  C87  1  0.01371685  0.38618594  0.08035092  1  0  0.726784  0  3.808578  0  0  0.680246  0  4.10633  0  0  0.713638  0  4.098111  0  0  0.227645  0.656865  0  4.109997  0
C  C88  1  0.35677567  0.24772594  0.29592393  1  0  -0.278036  0  3.662836  0  0  -0.358044  0  3.903821  0  0  -0.360127  0  3.913124  0  0  -0.234029  -0.356141  0  3.897164  0
C  C89  1  0.14323544  0.75228241  0.79590831  1  0  -0.278172  0  3.663014  0  0  -0.358139  0  3.904012  0  0  -0.36022  0  3.913316  0  0  -0.234043  -0.356237  0  3.897355  0
C  C90  1  0.64323496  0.75228470  0.70409558  1  0  -0.278196  0  3.663105  0  0  -0.358178  0  3.904066  0  0  -0.360259  0  3.913371  0  0  -0.234074  -0.356275  0  3.897411  0
C  C91  1  0.85677824  0.24771672  0.20407425  1  0  -0.278059  0  3.662882  0  0  -0.358043  0  3.903875  0  0  -0.360129  0  3.91318  0  0  -0.234009  -0.356141  0  3.897218  0
N  N92  1  0.84839037  0.13403517  0.45813997  1  0  -0.285264  0  3.163216  0  0  -0.223457  0  3.406754  0  0  -0.235386  0  3.422219  0  0  -0.298365  -0.215619  0  3.396882  0
N  N93  1  0.65159199  0.86596135  0.95814389  1  0  -0.285415  0  3.163303  0  0  -0.2236  0  3.406854  0  0  -0.235528  0  3.422318  0  0  -0.298479  -0.215764  0  3.396983  0
N  N94  1  0.15160120  0.86596285  0.54185359  1  0  -0.285268  0  3.163247  0  0  -0.223498  0  3.406821  0  0  -0.235427  0  3.422283  0  0  -0.298391  -0.215662  0  3.396952  0
N  N95  1  0.34838385  0.13403473  0.04185832  1  0  -0.285258  0  3.163233  0  0  -0.223403  0  3.406751  0  0  -0.235332  0  3.422217  0  0  -0.298347  -0.215567  0  3.396882  0
O  O96  1  0.71470698  0.71993836  0.32117277  1  0  -0.738363  0  2.099795  0  0  -0.704798  0  2.370126  0  0  -0.728342  0  2.355342  0  0  -0.410475  -0.675101  0  2.381965  0
O  O97  1  0.78529353  0.28005576  0.82117798  1  0  -0.73821  0  2.099723  0  0  -0.704698  0  2.370042  0  0  -0.72823  0  2.355232  0  0  -0.410392  -0.674998  0  2.381883  0
O  O98  1  0.28529114  0.28005439  0.67882708  1  0  -0.738219  0  2.099747  0  0  -0.70467  0  2.37005  0  0  -0.728196  0  2.355232  0  0  -0.410435  -0.674975  0  2.381891  0
O  O99  1  0.21470643  0.71994057  0.17882502  1  0  -0.738281  0  2.099709  0  0  -0.704738  0  2.370109  0  0  -0.728281  0  2.355328  0  0  -0.410459  -0.675042  0  2.381947  0
O  O100  1  0.96126037  0.76481021  0.28787841  1  0  -0.70806  0  2.008582  0  0  -0.67004  0  2.256577  0  0  -0.69408  0  2.244313  0  0  -0.379705  -0.64197  0  2.267585  0
O  O101  1  0.53873717  0.23518656  0.78787957  1  0  -0.708009  0  2.008726  0  0  -0.669976  0  2.25661  0  0  -0.694023  0  2.24435  0  0  -0.379661  -0.641905  0  2.267624  0
O  O102  1  0.03873555  0.23518252  0.71211908  1  0  -0.708026  0  2.008759  0  0  -0.669988  0  2.256654  0  0  -0.694034  0  2.24439  0  0  -0.379661  -0.641912  0  2.267661  0
O  O103  1  0.46125769  0.76481148  0.21211871  1  0  -0.708016  0  2.008571  0  0  -0.66998  0  2.256557  0  0  -0.69402  0  2.244295  0  0  -0.379638  -0.641911  0  2.267569  0
O  O104  1  0.32495011  0.52001323  0.29230621  1  0  -0.782388  0  2.123318  0  0  -0.74075  0  2.386686  0  0  -0.765991  0  2.375459  0  0  -0.402251  -0.704556  0  2.391653  0
O  O105  1  0.17505619  0.47998797  0.79230758  1  0  -0.782299  0  2.123572  0  0  -0.740655  0  2.386857  0  0  -0.765897  0  2.375634  0  0  -0.402214  -0.704461  0  2.391825  0
O  O106  1  0.67505718  0.47998672  0.70769443  1  0  -0.782223  0  2.123446  0  0  -0.740613  0  2.386788  0  0  -0.765859  0  2.375567  0  0  -0.402231  -0.704417  0  2.391747  0
O  O107  1  0.82494853  0.52001018  0.20769463  1  0  -0.782339  0  2.123452  0  0  -0.740777  0  2.386775  0  0  -0.76602  0  2.375552  0  0  -0.402251  -0.704584  0  2.39174  0
O  O108  1  0.12770268  0.41712478  0.37110815  1  0  -0.707358  0  1.991436  0  0  -0.660234  0  2.229797  0  0  -0.684494  0  2.218341  0  0  -0.360287  -0.635331  0  2.238978  0
O  O109  1  0.37230145  0.58287368  0.87110544  1  0  -0.707361  0  1.99144  0  0  -0.660226  0  2.229732  0  0  -0.684485  0  2.218275  0  0  -0.360346  -0.635322  0  2.238911  0
O  O110  1  0.87230367  0.58287072  0.62889485  1  0  -0.707259  0  1.991475  0  0  -0.660124  0  2.22974  0  0  -0.684381  0  2.218283  0  0  -0.360275  -0.635221  0  2.238919  0
O  O111  1  0.62770180  0.41712268  0.12889049  1  0  -0.707179  0  1.991617  0  0  -0.660098  0  2.229885  0  0  -0.68436  0  2.218431  0  0  -0.360221  -0.635194  0  2.239064  0
O  O112  1  0.68607477  0.68127004  0.07916167  1  0  -0.965831  0  1.916981  0  0  -0.921902  0  2.125418  0  0  -0.942244  0  2.091411  0  0  -0.686565  -0.895998  0  2.156246  0
O  O113  1  0.81393018  0.31872782  0.57916301  1  0  -0.9659  0  1.916939  0  0  -0.921973  0  2.125379  0  0  -0.942316  0  2.091374  0  0  -0.68659  -0.896066  0  2.156216  0
O  O114  1  0.31393143  0.31872989  0.92083740  1  0  -0.965913  0  1.916887  0  0  -0.921991  0  2.125353  0  0  -0.942337  0  2.091347  0  0  -0.686586  -0.896086  0  2.156183  0
O  O115  1  0.18607345  0.68127032  0.42083842  1  0  -0.965837  0  1.916993  0  0  -0.921903  0  2.125413  0  0  -0.942245  0  2.091406  0  0  -0.686577  -0.895999  0  2.156238  0
O  O116  1  0.59473136  0.46674342  0.36341569  1  0  -0.762598  0  2.068577  0  0  -0.710131  0  2.30929  0  0  -0.737317  0  2.299635  0  0  -0.392857  -0.680323  0  2.318342  0
O  O117  1  0.90527845  0.53325699  0.86341081  1  0  -0.762662  0  2.068715  0  0  -0.710232  0  2.309262  0  0  -0.737426  0  2.299614  0  0  -0.39294  -0.680415  0  2.318317  0
O  O118  1  0.40527869  0.53325922  0.63659045  1  0  -0.762693  0  2.068716  0  0  -0.710247  0  2.309251  0  0  -0.737438  0  2.2996  0  0  -0.392941  -0.680437  0  2.318306  0
O  O119  1  0.09472956  0.46674119  0.13658275  1  0  -0.762664  0  2.06873  0  0  -0.710173  0  2.309404  0  0  -0.737359  0  2.299748  0  0  -0.39284  -0.680366  0  2.318461  0
O  O120  1  0.55748162  0.33844854  0.49954020  1  0  -0.599494  0  1.939008  0  0  -0.551993  0  2.159927  0  0  -0.57501  0  2.149486  0  0  -0.295197  -0.535159  0  2.165914  0
O  O121  1  0.94252353  0.66155085  0.99953451  1  0  -0.599378  0  1.939213  0  0  -0.552031  0  2.160088  0  0  -0.575049  0  2.149651  0  0  -0.295196  -0.535197  0  2.166076  0
O  O122  1  0.44252532  0.66155496  0.50046516  1  0  -0.5994  0  1.939005  0  0  -0.552077  0  2.159876  0  0  -0.575093  0  2.149436  0  0  -0.295224  -0.535243  0  2.165867  0
O  O123  1  0.05748116  0.33844197  0.00046299  1  0  -0.599422  0  1.93899  0  0  -0.55198  0  2.159935  0  0  -0.574996  0  2.149494  0  0  -0.295173  -0.535143  0  2.165924  0
O  O124  1  0.38668980  0.54068929  0.08511615  1  0  -0.932124  0  1.896043  0  0  -0.892345  0  2.089382  0  0  -0.910862  0  2.057014  0  0  -0.657678  -0.868441  0  2.118893  0
O  O125  1  0.11331405  0.45931289  0.58512202  1  0  -0.932258  0  1.8959  0  0  -0.892502  0  2.089293  0  0  -0.911017  0  2.056911  0  0  -0.657688  -0.868595  0  2.118809  0
O  O126  1  0.61331624  0.45931508  0.91487899  1  0  -0.932255  0  1.895913  0  0  -0.892504  0  2.08932  0  0  -0.910986  0  2.056874  0  0  -0.657705  -0.868607  0  2.11885  0
O  O127  1  0.88669249  0.54068350  0.41488255  1  0  -0.932222  0  1.895911  0  0  -0.892439  0  2.089273  0  0  -0.910944  0  2.056881  0  0  -0.657713  -0.868537  0  2.118785  0
