# generated using pymatgen
data_Zr6H44C57O32
_symmetry_space_group_name_H-M   'P 1'
_cell_length_a   14.77365144
_cell_length_b   14.78814141
_cell_length_c   14.78127524
_cell_angle_alpha   60.21412219
_cell_angle_beta   59.97661183
_cell_angle_gamma   59.94141162
_symmetry_Int_Tables_number   1
_chemical_formula_structural   Zr6H44C57O32
_chemical_formula_sum   'Zr6 H44 C57 O32'
_cell_volume   2285.73519016
_cell_formula_units_Z   1
loop_
 _symmetry_equiv_pos_site_id
 _symmetry_equiv_pos_as_xyz
  1  'x, y, z'
loop_
 _atom_site_type_symbol
 _atom_site_label
 _atom_site_symmetry_multiplicity
 _atom_site_fract_x
 _atom_site_fract_y
 _atom_site_fract_z
 _atom_site_occupancy
 _atom_site_pbe_bader_charge
 _atom_site_pbe_bader_spin_density
 _atom_site_pbe_cm5_charge
 _atom_site_pbe_ddec_charge
 _atom_site_pbe_ddec_spin_density
 _atom_site_pbe_ddec_sum_bond_order
 _atom_site_pbe_magmom
Zr  Zr0  1  0.87287812  0.88549179  0.61330576  1  2.633082  0  1.624892  2.372558  0  2.748594  0
Zr  Zr1  1  0.11259669  0.12268173  0.37858608  1  2.630081  0  1.636038  2.365606  0  2.785828  0
Zr  Zr2  1  0.11036574  0.88564414  0.61611998  1  2.637394  0  1.632738  2.368721  0  2.772614  0
Zr  Zr3  1  0.87336682  0.12639594  0.37534779  1  2.637941  0  1.625075  2.371855  0  2.746905  0
Zr  Zr4  1  0.11240125  0.88627895  0.37501499  1  2.63696  0  1.629179  2.37315  0  2.757683  0
Zr  Zr5  1  0.87152116  0.12449926  0.61614545  1  2.635422  0  1.627923  2.372678  0  2.755352  0
H  H6  1  0.08712722  0.72347862  0.58641045  1  0.607557  0  0.331193  0.421298  0  0.861097  0
H  H7  1  0.08845973  0.09937168  0.21355724  1  0.599319  0  0.332274  0.424939  0  0.854572  0
H  H8  1  0.08459533  0.09689594  0.59386229  1  0.613113  0  0.330914  0.42098  0  0.861699  0
H  H9  1  0.70917992  0.10066376  0.58929696  1  0.626321  0  0.330839  0.422307  0  0.857089  0
H  H10  1  0.81270539  0.64442740  0.56268119  1  0.072853  0  0.107789  0.114086  0  0.99309  0
H  H11  1  0.16774224  0.54446405  0.41662195  1  0.074983  0  0.103276  0.108467  0  1.014014  0
H  H12  1  0.81881023  0.47090628  0.56363508  1  0.08402  0  0.107659  0.112433  0  0.99501  0
H  H13  1  0.54542354  0.89303755  0.88738995  1  0.070244  0  0.106777  0.112039  0  0.996018  0
H  H14  1  0.63793387  0.07645749  0.95949480  1  0.086811  0  0.105225  0.111517  0  1.013032  0
H  H15  1  0.37779346  0.89864634  0.05922975  1  0.081804  0  0.107121  0.112617  0  0.999467  0
H  H16  1  0.11003402  0.83738113  0.10236164  1  0.092058  0  0.108972  0.116008  0  0.991509  0
H  H17  1  0.85403342  0.15482334  0.07974324  1  0.086203  0  0.104735  0.110893  0  1.014745  0
H  H18  1  0.10404704  0.84371435  0.93215178  1  0.0875  0  0.106414  0.110968  0  1.005258  0
H  H19  1  0.57958436  0.42982651  0.63730061  1  0.087598  0  0.108204  0.114887  0  0.993568  0
H  H20  1  0.59923733  0.43300878  0.33652816  1  0.045171  0  0.104802  0.109564  0  1.022176  0
H  H21  1  0.40972088  0.59993774  0.63101617  1  0.096111  0  0.106147  0.109567  0  1.015602  0
H  H22  1  0.73304114  0.65370272  0.97403841  1  0.056964  0  0.096476  0.108266  0  0.985868  0
H  H23  1  0.80080247  0.56877080  0.88978865  1  0.03444  0  0.096039  0.105795  0  0.984139  0
H  H24  1  0.80193422  0.39851008  0.06034578  1  0.036556  0  0.094139  0.101621  0  0.990323  0
H  H25  1  0.73179747  0.48384524  0.14472680  1  0.048755  0  0.093676  0.102779  0  1.001026  0
H  H26  1  0.57086253  0.15359532  0.35018846  1  0.0976  0  0.107949  0.114605  0  0.992713  0
H  H27  1  0.59126436  0.85695135  0.63034352  1  0.114933  0  0.105985  0.11279  0  1.010929  0
H  H28  1  0.40077105  0.14488628  0.35960688  1  0.085957  0  0.108802  0.112181  0  1.014618  0
H  H29  1  0.27501132  0.37356441  0.39936848  1  0.027315  0  0.089482  0.122415  0  1.000978  0
H  H30  1  0.21952448  0.26406073  0.47355788  1  0.056697  0  0.091628  0.130791  0  1.005557  0
H  H31  1  0.22509850  0.34026056  0.33561894  1  0.056445  0  0.097045  0.139291  0  0.998791  0
H  H32  1  0.47769478  0.17426978  0.10894092  1  0.02346  0  0.093231  0.13011  0  0.988872  0
H  H33  1  0.41015360  0.08386775  0.22945713  1  0.083198  0  0.092621  0.14183  0  1.056785  0
H  H34  1  0.55785855  0.04253675  0.17585212  1  0.02439  0  0.093757  0.1327  0  0.987855  0
H  H35  1  0.77896807  0.25283653  0.94589611  1  0.038479  0  0.087378  0.117911  0  1.007908  0
H  H36  1  0.86082617  0.23635102  0.81277719  1  0.076952  0  0.09649  0.14199  0  0.998847  0
H  H37  1  0.75851311  0.17395848  0.90154896  1  0.054773  0  0.095485  0.135971  0  1.00828  0
H  H38  1  0.34268515  0.61729449  0.32011991  1  0.06412  0  0.095222  0.136652  0  1.009253  0
H  H39  1  0.42714212  0.69939745  0.24791263  1  0.068501  0  0.097802  0.144652  0  0.996472  0
H  H40  1  0.48463593  0.56303360  0.24124608  1  -0.00415  0  0.08715  0.117589  0  1.009829  0
H  H41  1  0.47345872  0.76417154  0.71682938  1  0.034035  0  0.087593  0.118112  0  1.006149  0
H  H42  1  0.33184109  0.84713541  0.72814005  1  0.048982  0  0.096705  0.139542  0  0.994671  0
H  H43  1  0.40888779  0.76871107  0.63881099  1  0.075998  0  0.096644  0.14124  0  1.006697  0
H  H44  1  0.21455756  0.47403170  0.05042706  1  0.051741  0  0.087484  0.120607  0  1.025989  0
H  H45  1  0.12936859  0.40886030  0.17983980  1  0.045378  0  0.096711  0.14341  0  1.006001  0
H  H46  1  0.22964386  0.33364799  0.08882496  1  0.059997  0  0.094585  0.136509  0  0.994357  0
H  H47  1  0.26780166  0.48910958  0.88787441  1  0.028893  0  0.089558  0.123796  0  1.008052  0
H  H48  1  0.21325950  0.59251959  0.78042321  1  0.059301  0  0.091754  0.132824  0  1.033031  0
H  H49  1  0.20104952  0.62963380  0.88300619  1  0.040104  0  0.094227  0.13195  0  0.989523  0
C  C50  1  0.99026682  0.70552638  0.48820969  1  1.558179  0  0.236287  0.641152  0  4.096981  0
C  C51  1  0.30586313  0.99765936  0.19961458  1  1.539064  0  0.238273  0.646042  0  4.085854  0
C  C52  1  0.99279783  0.30997358  0.49485840  1  1.563339  0  0.235282  0.643614  0  4.094876  0
C  C53  1  0.69416386  0.99522788  0.80525659  1  1.547539  0  0.238132  0.643822  0  4.092823  0
C  C54  1  0.99300248  0.70164167  0.79835066  1  1.538604  0  0.235891  0.648668  0  4.094501  0
C  C55  1  0.69167505  0.00610972  0.48896011  1  1.558118  0  0.237029  0.639745  0  4.09661  0
C  C56  1  0.98993287  0.31313327  0.19844852  1  1.511894  0  0.237335  0.650277  0  4.093841  0
C  C57  1  0.29930697  0.99876921  0.49790069  1  1.545065  0  0.235551  0.637404  0  4.099238  0
C  C58  1  0.30319158  0.70775357  0.48848778  1  1.55075  0  0.235487  0.639513  0  4.095446  0
C  C59  1  0.98354250  0.00185858  0.80638603  1  1.549702  0  0.236376  0.641834  0  4.091881  0
C  C60  1  0.69442682  0.31573405  0.49204395  1  1.554263  0  0.238055  0.642048  0  4.09208  0
C  C61  1  0.98766876  0.99991430  0.19672452  1  1.555637  0  0.237524  0.641978  0  4.091355  0
C  C62  1  0.99626713  0.41062978  0.49224288  1  -0.036913  0  -0.013775  -0.098028  0  3.907774  0
C  C63  1  0.99044979  0.60445798  0.48829500  1  -0.01934  0  -0.013058  -0.021596  0  3.987214  0
C  C64  1  0.09745437  0.42906460  0.45053728  1  -0.014048  0  0.00253  0.164999  0  3.930708  0
C  C65  1  0.89115710  0.58433889  0.53121567  1  0.018491  0  -0.085531  -0.105447  0  3.990054  0
C  C66  1  0.09147978  0.52746761  0.44838610  1  -0.025363  0  -0.086045  -0.163065  0  3.936373  0
C  C67  1  0.89481736  0.48814909  0.53206405  1  -0.041375  0  -0.081854  -0.088405  0  3.996726  0
C  C68  1  0.41362202  0.99094498  0.10521123  1  -0.033589  0  -0.013513  -0.099947  0  3.897001  0
C  C69  1  0.59932561  0.98829221  0.91185852  1  -0.0305  0  -0.013771  -0.024619  0  3.989604  0
C  C70  1  0.48901996  0.03884270  0.08065095  1  0.009849  0  0.005923  0.171981  0  3.915383  0
C  C71  1  0.52853835  0.93409161  0.94105271  1  -0.029408  0  -0.087646  -0.108728  0  4.002516  0
C  C72  1  0.57977239  0.03779568  0.98228573  1  -0.032808  0  -0.082882  -0.157013  0  3.923138  0
C  C73  1  0.43620784  0.93692171  0.03636007  1  -0.011646  0  -0.085594  -0.095447  0  4.007226  0
C  C74  1  0.97722467  0.00310502  0.90995909  1  -0.060757  0  -0.014269  -0.102711  0  3.901181  0
C  C75  1  0.98283026  0.99731748  0.09949174  1  -0.040886  0  -0.014781  -0.026429  0  3.986364  0
C  C76  1  0.90333643  0.09297239  0.95126769  1  0.035467  0  0.005925  0.170814  0  3.915092  0
C  C77  1  0.05341524  0.90786988  0.05955698  1  -0.010601  0  -0.084809  -0.101909  0  3.987497  0
C  C78  1  0.90855335  0.08695991  0.04614418  1  -0.066669  0  -0.085126  -0.161259  0  3.929896  0
C  C79  1  0.04982247  0.91165692  0.96558588  1  -0.001493  0  -0.083181  -0.08891  0  3.996823  0
C  C80  1  0.40896038  0.61135226  0.48094997  1  0.013716  0  -0.013896  -0.101913  0  3.897836  0
C  C81  1  0.59777314  0.42095689  0.48746490  1  0.023429  0  -0.013963  -0.023792  0  3.98416  0
C  C82  1  0.46299203  0.56657781  0.39398148  1  -0.037896  0  0.006728  0.172969  0  3.914203  0
C  C83  1  0.54637783  0.46838122  0.57043523  1  -0.028703  0  -0.086012  -0.104194  0  3.991879  0
C  C84  1  0.55663148  0.47111406  0.40054497  1  -0.01827  0  -0.084688  -0.162429  0  3.929768  0
C  C85  1  0.45265695  0.56253521  0.56648575  1  -0.06813  0  -0.083859  -0.090468  0  4.00056  0
C  C86  1  0.99933076  0.59965976  0.89675094  1  -0.054252  0  -0.015653  -0.145403  0  3.945328  0
C  C87  1  0.99340434  0.41395829  0.09873719  1  0.00293  0  -0.015714  -0.147834  0  3.942333  0
C  C88  1  0.91065371  0.55969822  0.95728644  1  -0.022484  0  -0.009151  0.05839  0  3.930253  0
C  C89  1  0.08272231  0.45660549  0.04186746  1  0.014654  0  0.003787  0.103119  0  3.858339  0
C  C90  1  0.90960755  0.46764205  0.05266773  1  -0.008801  0  -0.00881  0.057716  0  3.923538  0
C  C91  1  0.09003719  0.54190437  0.93751051  1  0.040051  0  0.002539  0.100969  0  3.859832  0
C  C92  1  0.79902461  0.57646619  0.96091010  1  0.005148  0  -0.152915  -0.197574  0  3.882603  0
C  C93  1  0.79880516  0.47029430  0.06808413  1  -0.036505  0  -0.152627  -0.194325  0  3.882188  0
C  C94  1  0.40080645  0.99634296  0.49968705  1  -0.030496  0  -0.014664  -0.106065  0  3.900306  0
C  C95  1  0.59079296  0.00450328  0.49021386  1  -0.014035  0  -0.014844  -0.027288  0  3.99245  0
C  C96  1  0.45337220  0.91270325  0.57898674  1  -0.008134  0  0.007728  0.173738  0  3.914332  0
C  C97  1  0.53780984  0.08707385  0.41294453  1  -0.076376  0  -0.084251  -0.102165  0  3.988021  0
C  C98  1  0.54818468  0.91951841  0.57126933  1  -0.054393  0  -0.085193  -0.160593  0  3.928797  0
C  C99  1  0.44377898  0.08200887  0.41848208  1  -0.002862  0  -0.0816  -0.088724  0  4.00087  0
C  C100  1  0.21027365  0.34764630  0.41259403  1  -0.063014  0  -0.239418  -0.411085  0  3.979376  0
C  C101  1  0.48190039  0.08730080  0.15376810  1  -0.030031  0  -0.243714  -0.426065  0  3.965429  0
C  C102  1  0.82108352  0.19467087  0.90013542  1  -0.077667  0  -0.239148  -0.410939  0  3.971606  0
C  C103  1  0.42754608  0.61384629  0.29547563  1  -0.034964  0  -0.23992  -0.413156  0  3.970016  0
C  C104  1  0.41501664  0.81776344  0.67067964  1  -0.06773  0  -0.239444  -0.4117  0  3.969806  0
C  C105  1  0.16928076  0.41612243  0.09212776  1  -0.075202  0  -0.245715  -0.414673  0  3.979769  0
C  C106  1  0.19860353  0.56460320  0.86882092  1  -0.058607  0  -0.244862  -0.410408  0  3.988897  0
O  O107  1  0.91114600  0.74706981  0.56311564  1  -1.176221  0  -0.354726  -0.619001  0  2.277269  0
O  O108  1  0.26119476  0.07782311  0.23646607  1  -1.18207  0  -0.353297  -0.613551  0  2.299944  0
O  O109  1  0.06941107  0.26799911  0.41923946  1  -1.186374  0  -0.353807  -0.613179  0  2.319164  0
O  O110  1  0.73058113  0.92249129  0.76115342  1  -1.179856  0  -0.358839  -0.624323  0  2.27507  0
O  O111  1  0.06387169  0.74862865  0.75960446  1  -1.183679  0  -0.363564  -0.61676  0  2.3505  0
O  O112  1  0.72915175  0.08449262  0.41377859  1  -1.179146  0  -0.353642  -0.616443  0  2.27118  0
O  O113  1  0.91274115  0.27507763  0.23386170  1  -1.175506  0  -0.352071  -0.614676  0  2.253476  0
O  O114  1  0.25609941  0.92481013  0.57445695  1  -1.177334  0  -0.351472  -0.607155  0  2.334595  0
O  O115  1  0.25944560  0.74713164  0.41514422  1  -1.182883  0  -0.351969  -0.605972  0  2.346624  0
O  O116  1  0.90919386  0.07830723  0.76302482  1  -1.181422  0  -0.356519  -0.61259  0  2.342882  0
O  O117  1  0.73058808  0.27338259  0.57206421  1  -1.182913  0  -0.358316  -0.623474  0  2.273086  0
O  O118  1  0.06663129  0.92430156  0.23377555  1  -1.188338  0  -0.355607  -0.62073  0  2.268314  0
O  O119  1  0.06341332  0.92604891  0.76636288  1  -1.18682  0  -0.351293  -0.619211  0  2.274408  0
O  O120  1  0.73266014  0.27449070  0.41673632  1  -1.183321  0  -0.353128  -0.616841  0  2.294228  0
O  O121  1  0.91360157  0.07915049  0.23441054  1  -1.179942  0  -0.356286  -0.620106  0  2.28995  0
O  O122  1  0.26148906  0.74303516  0.56933171  1  -1.186954  0  -0.353111  -0.624533  0  2.283301  0
O  O123  1  0.91610482  0.73787676  0.75979011  1  -1.171904  0  -0.345766  -0.610272  0  2.24375  0
O  O124  1  0.26101876  0.07582746  0.42026937  1  -1.188397  0  -0.353039  -0.625876  0  2.304601  0
O  O125  1  0.06583314  0.26787769  0.24083892  1  -1.17869  0  -0.358551  -0.613859  0  2.361639  0
O  O126  1  0.73206419  0.92914888  0.56494047  1  -1.182456  0  -0.356648  -0.617993  0  2.304909  0
O  O127  1  0.73039814  0.07442763  0.76516884  1  -1.179421  0  -0.351973  -0.61825  0  2.272981  0
O  O128  1  0.07052339  0.74148440  0.41488192  1  -1.184062  0  -0.355562  -0.621948  0  2.271918  0
O  O129  1  0.26294530  0.92478498  0.23433664  1  -1.183562  0  -0.353302  -0.623218  0  2.282503  0
O  O130  1  0.91421666  0.27301704  0.57136981  1  -1.188822  0  -0.348875  -0.620443  0  2.258274  0
O  O131  1  0.78963230  0.07365244  0.56258371  1  -1.254796  0  -0.692474  -1.065294  0  2.353808  0
O  O132  1  0.05835094  0.07131947  0.56541041  1  -1.241317  0  -0.698213  -1.071837  0  2.383218  0
O  O133  1  0.06073711  0.07201716  0.29371764  1  -1.225699  0  -0.695506  -1.071165  0  2.362708  0
O  O134  1  0.05971764  0.80362210  0.56116863  1  -1.235704  0  -0.69597  -1.070701  0  2.375677  0
O  O135  1  0.14163943  0.95468763  0.44676604  1  -1.199043  0  -0.794826  -1.150027  0  2.139658  0
O  O136  1  0.94304506  0.95679580  0.44464073  1  -1.200353  0  -0.79016  -1.146598  0  2.123592  0
O  O137  1  0.94288872  0.15338966  0.44745366  1  -1.199954  0  -0.793148  -1.148096  0  2.140201  0
O  O138  1  0.94138455  0.95558549  0.64392492  1  -1.197349  0  -0.79262  -1.14743  0  2.137892  0
