# generated using pymatgen
data_Ga2P2H13C4N3O8
_symmetry_space_group_name_H-M   'P 1'
_cell_length_a   13.47550457
_cell_length_b   14.21233117
_cell_length_c   14.20997243
_cell_angle_alpha   110.49329052
_cell_angle_beta   108.41863894
_cell_angle_gamma   108.43967261
_symmetry_Int_Tables_number   1
_chemical_formula_structural   Ga2P2H13C4N3O8
_chemical_formula_sum   'Ga12 P12 H78 C24 N18 O48'
_cell_volume   2121.30849359
_cell_formula_units_Z   6
loop_
 _symmetry_equiv_pos_site_id
 _symmetry_equiv_pos_as_xyz
  1  'x, y, z'
loop_
 _atom_site_type_symbol
 _atom_site_label
 _atom_site_symmetry_multiplicity
 _atom_site_fract_x
 _atom_site_fract_y
 _atom_site_fract_z
 _atom_site_occupancy
 _atom_site_pbe_bader_charge
 _atom_site_pbe_bader_spin_density
 _atom_site_pbe_cm5_charge
 _atom_site_pbe_ddec_charge
 _atom_site_pbe_ddec_spin_density
 _atom_site_pbe_ddec_sum_bond_order
 _atom_site_pbe_magmom
Ga  Ga0  1  0.51963581  0.54293661  0.37355817  1  1.898996  0  0.631933  1.451202  0  2.775399  0
Ga  Ga1  1  0.97665650  0.83066928  0.45706687  1  1.899834  0  0.632009  1.451674  0  2.774039  0
Ga  Ga2  1  0.14604515  0.62641532  0.16934777  1  1.895787  0  0.632109  1.451331  0  2.774439  0
Ga  Ga3  1  0.48036509  0.45706413  0.62644258  1  1.899157  0  0.631953  1.451218  0  2.775302  0
Ga  Ga4  1  0.02334447  0.16933316  0.54293521  1  1.899626  0  0.631982  1.451643  0  2.774064  0
Ga  Ga5  1  0.85395498  0.37358541  0.83065557  1  1.895824  0  0.632163  1.451437  0  2.774378  0
Ga  Ga6  1  0.73344801  0.41453272  0.54429939  1  1.842458  0  0.587787  1.291418  0  2.78497  0
Ga  Ga7  1  0.31880774  0.12973283  0.58539508  1  1.841206  0  0.587588  1.290062  0  2.786066  0
Ga  Ga8  1  0.18910948  0.45570245  0.87029153  1  1.841806  0  0.587641  1.291807  0  2.784763  0
Ga  Ga9  1  0.26655203  0.58546631  0.45570122  1  1.842454  0  0.587817  1.291459  0  2.784926  0
Ga  Ga10  1  0.68119073  0.87026619  0.41460365  1  1.841307  0  0.587571  1.290091  0  2.786024  0
Ga  Ga11  1  0.81089341  0.54429915  0.12970941  1  1.841819  0  0.587666  1.29178  0  2.784728  0
P  P12  1  0.45844719  0.33918990  0.39418520  1  3.635624  0  0.415906  1.48363  0  5.528905  0
P  P13  1  0.11921647  0.05488728  0.66078109  1  3.645758  0  0.414801  1.482243  0  5.527969  0
P  P14  1  0.06434321  0.60593074  0.94506491  1  3.636431  0  0.415663  1.481399  0  5.531029  0
P  P15  1  0.54154942  0.66080227  0.60581057  1  3.635544  0  0.415885  1.483671  0  5.529049  0
P  P16  1  0.88076547  0.94510232  0.33919537  1  3.6465  0  0.415165  1.482887  0  5.52759  0
P  P17  1  0.93566571  0.39408627  0.05492565  1  3.635671  0  0.415686  1.481438  0  5.531277  0
P  P18  1  0.39849111  0.68834634  0.33384781  1  3.687695  0  0.456187  1.549108  0  5.4718  0
P  P19  1  0.71011903  0.64547842  0.31156339  1  3.692445  0  0.45699  1.550699  0  5.4704  0
P  P20  1  0.06463688  0.66616454  0.35452805  1  3.677374  0  0.455664  1.550024  0  5.472678  0
P  P21  1  0.60151048  0.31165268  0.66615044  1  3.687792  0  0.456102  1.548998  0  5.472011  0
P  P22  1  0.28988341  0.35452232  0.68843501  1  3.692418  0  0.45701  1.550721  0  5.470312  0
P  P23  1  0.93536211  0.33383705  0.64547315  1  3.677401  0  0.455668  1.550088  0  5.472335  0
H  H24  1  0.71349412  0.23122802  0.39493453  1  0.443181  0  0.311059  0.286453  0  0.95306  0
H  H25  1  0.48227915  0.16371003  0.76860690  1  0.417328  0  0.310642  0.285307  0  0.953079  0
H  H26  1  0.31874652  0.60504965  0.83639526  1  0.428203  0  0.310993  0.285776  0  0.95339  0
H  H27  1  0.28650471  0.76877015  0.60506400  1  0.443243  0  0.311056  0.28643  0  0.953075  0
H  H28  1  0.51772146  0.83629328  0.23139467  1  0.41755  0  0.31066  0.28529  0  0.953155  0
H  H29  1  0.68125203  0.39495108  0.16360551  1  0.428181  0  0.310971  0.285722  0  0.953386  0
H  H30  1  0.58439523  0.23721579  0.34486266  1  0.496628  0  0.299531  0.30186  0  0.979835  0
H  H31  1  0.34722414  0.10771285  0.76277020  1  0.490774  0  0.299436  0.301453  0  0.979561  0
H  H32  1  0.23964371  0.65513634  0.89233596  1  0.504594  0  0.299604  0.301458  0  0.979147  0
H  H33  1  0.41560204  0.76278237  0.65513682  1  0.496728  0  0.299503  0.301837  0  0.979876  0
H  H34  1  0.65277753  0.89228789  0.23722867  1  0.490723  0  0.299445  0.301499  0  0.979405  0
H  H35  1  0.76035129  0.34486354  0.10766416  1  0.50463  0  0.29958  0.301437  0  0.979261  0
H  H36  1  0.76171180  0.54339987  0.45207808  1  0.455745  0  0.311175  0.258756  0  0.965993  0
H  H37  1  0.21817975  0.90866992  0.45649127  1  0.466873  0  0.310778  0.258295  0  0.965564  0
H  H38  1  0.30954755  0.54786999  0.09135808  1  0.45963  0  0.310961  0.259025  0  0.966282  0
H  H39  1  0.23828668  0.45659915  0.54792135  1  0.455792  0  0.311149  0.258797  0  0.965933  0
H  H40  1  0.78182030  0.09132911  0.54351004  1  0.466879  0  0.310775  0.258292  0  0.965594  0
H  H41  1  0.69045455  0.45213160  0.90864192  1  0.459647  0  0.310892  0.258967  0  0.966314  0
H  H42  1  0.86113644  0.56593703  0.76004862  1  0.503513  0  0.303044  0.297808  0  0.989178  0
H  H43  1  0.29501396  0.19408367  0.43400220  1  0.496771  0  0.303691  0.29828  0  0.988435  0
H  H44  1  0.10103692  0.23997915  0.80589369  1  0.487749  0  0.303445  0.297978  0  0.988315  0
H  H45  1  0.13886402  0.43406285  0.23995030  1  0.503507  0  0.303042  0.297812  0  0.989156  0
H  H46  1  0.70498365  0.80591364  0.56599497  1  0.496725  0  0.303714  0.298263  0  0.988481  0
H  H47  1  0.89896320  0.76002158  0.19410683  1  0.487733  0  0.303455  0.297987  0  0.988304  0
H  H48  1  0.74119780  0.58033253  0.70344919  1  0.468241  0  0.308101  0.296897  0  0.960452  0
H  H49  1  0.16066715  0.12295508  0.41956963  1  0.471689  0  0.307965  0.297512  0  0.960162  0
H  H50  1  0.03763104  0.29646972  0.87688318  1  0.465915  0  0.307826  0.297241  0  0.960981  0
H  H51  1  0.25880430  0.41966906  0.29655152  1  0.468059  0  0.308101  0.296874  0  0.960455  0
H  H52  1  0.83933167  0.87704309  0.58042890  1  0.471692  0  0.307982  0.297537  0  0.960145  0
H  H53  1  0.96237193  0.70353358  0.12311909  1  0.465873  0  0.307846  0.297227  0  0.961002  0
H  H54  1  0.72809574  0.27316855  0.25295411  1  0.055458  0  0.113329  0.092505  0  0.950944  0
H  H55  1  0.45478522  0.97978166  0.72675322  1  0.061125  0  0.113483  0.092531  0  0.951949  0
H  H56  1  0.47512300  0.74711397  0.02043472  1  0.063162  0  0.113348  0.092672  0  0.951407  0
H  H57  1  0.27189996  0.72682961  0.74704350  1  0.055439  0  0.113323  0.09248  0  0.95098  0
H  H58  1  0.54521575  0.02022079  0.27324887  1  0.061128  0  0.11349  0.092529  0  0.951967  0
H  H59  1  0.52487753  0.25288762  0.97956482  1  0.063192  0  0.113338  0.092671  0  0.951422  0
H  H60  1  0.64888013  0.35094879  0.27673043  1  0.045623  0  0.115737  0.086368  0  0.987202  0
H  H61  1  0.29777447  0.92581625  0.64897733  1  0.057381  0  0.116039  0.087071  0  0.985712  0
H  H62  1  0.37195653  0.72308229  0.07425617  1  0.045825  0  0.115944  0.087091  0  0.98728  0
H  H63  1  0.35111635  0.64904938  0.72326812  1  0.045698  0  0.115718  0.086357  0  0.987279  0
H  H64  1  0.70222729  0.07418620  0.35102498  1  0.05735  0  0.116037  0.087069  0  0.985719  0
H  H65  1  0.62804437  0.27691845  0.92574459  1  0.04583  0  0.115947  0.087087  0  0.98727  0
H  H66  1  0.96842239  0.68593280  0.57895008  1  0.067108  0  0.110697  0.094088  0  0.986293  0
H  H67  1  0.28237247  0.89305505  0.31396430  1  0.052972  0  0.110662  0.093113  0  0.987141  0
H  H68  1  0.38930939  0.42100141  0.10704579  1  0.052914  0  0.110582  0.093377  0  0.98734  0
H  H69  1  0.03157599  0.31406451  0.42104591  1  0.067511  0  0.110705  0.094086  0  0.986297  0
H  H70  1  0.71762836  0.10694397  0.68603583  1  0.052968  0  0.110671  0.093123  0  0.98712  0
H  H71  1  0.61069392  0.57900104  0.89295487  1  0.052921  0  0.110571  0.093357  0  0.987368  0
H  H72  1  0.98530296  0.59070910  0.63120893  1  0.073972  0  0.11706  0.100649  0  1.00358  0
H  H73  1  0.39451862  0.04054688  0.40921627  1  0.084294  0  0.116876  0.100018  0  1.003608  0
H  H74  1  0.35402413  0.36875442  0.95957027  1  0.068288  0  0.116626  0.099879  0  1.003361  0
H  H75  1  0.01469500  0.40928736  0.36878734  1  0.073971  0  0.117037  0.100633  0  1.003543  0
H  H76  1  0.60547950  0.95945300  0.59078266  1  0.084288  0  0.116862  0.100011  0  1.003602  0
H  H77  1  0.64597718  0.63124717  0.04042951  1  0.068297  0  0.116634  0.099888  0  1.003334  0
H  H78  1  0.86637525  0.48551132  0.35617848  1  0.098811  0  0.112378  0.111053  0  1.005232  0
H  H79  1  0.38069669  0.87065561  0.51440632  1  0.076886  0  0.112174  0.110333  0  1.005371  0
H  H80  1  0.51010247  0.64380459  0.12942518  1  0.087528  0  0.112072  0.109989  0  1.005735  0
H  H81  1  0.13362122  0.51448685  0.64381936  1  0.098799  0  0.112373  0.111034  0  1.005203  0
H  H82  1  0.61930535  0.12934427  0.48559588  1  0.076879  0  0.112181  0.110346  0  1.005396  0
H  H83  1  0.48989885  0.35619700  0.87057459  1  0.087448  0  0.112057  0.109949  0  1.005744  0
H  H84  1  0.90455584  0.42561992  0.44493059  1  0.058946  0  0.114253  0.092394  0  1.02007  0
H  H85  1  0.47885492  0.01929612  0.57432091  1  0.061405  0  0.114273  0.092932  0  1.018884  0
H  H86  1  0.45966129  0.55511765  0.98079425  1  0.068073  0  0.114491  0.092792  0  1.018625  0
H  H87  1  0.09544063  0.57437825  0.55506725  1  0.058995  0  0.114268  0.092399  0  1.020104  0
H  H88  1  0.52114597  0.98070461  0.42567914  1  0.06147  0  0.114274  0.092932  0  1.018901  0
H  H89  1  0.54034002  0.44488394  0.01920553  1  0.067774  0  0.114495  0.092778  0  1.018615  0
H  H90  1  0.95596567  0.73392287  0.76239503  1  0.093922  0  0.116786  0.102305  0  0.952478  0
H  H91  1  0.22198331  0.02853926  0.26604046  1  0.093501  0  0.116963  0.101981  0  0.952667  0
H  H92  1  0.19339611  0.23752992  0.97146993  1  0.083691  0  0.116969  0.102206  0  0.952334  0
H  H93  1  0.04403670  0.26607615  0.23760344  1  0.093932  0  0.116773  0.10229  0  0.952552  0
H  H94  1  0.77801345  0.97145634  0.73395726  1  0.093493  0  0.11696  0.102016  0  0.95272  0
H  H95  1  0.80660678  0.76247168  0.02853171  1  0.083668  0  0.116979  0.102194  0  0.952365  0
H  H96  1  0.82082952  0.69640842  0.64589385  1  0.059192  0  0.114358  0.095227  0  0.972357  0
H  H97  1  0.12428262  0.94944514  0.30343807  1  0.064117  0  0.114647  0.095495  0  0.973005  0
H  H98  1  0.17474006  0.35397438  0.05050304  1  0.082804  0  0.114567  0.095509  0  0.972621  0
H  H99  1  0.17917258  0.30359317  0.35410615  1  0.059175  0  0.114354  0.095257  0  0.972306  0
H  H100  1  0.87571500  0.05055218  0.69656121  1  0.064155  0  0.114667  0.095566  0  0.972997  0
H  H101  1  0.82526204  0.64602721  0.94949838  1  0.082792  0  0.114584  0.095547  0  0.972613  0
C  C102  1  0.71818706  0.33262794  0.31908917  1  0.272239  0  -0.056382  -0.001808  0  3.884762  0
C  C103  1  0.38543006  0.98646024  0.66728888  1  0.271946  0  -0.057267  -0.004095  0  3.886129  0
C  C104  1  0.39905279  0.68087700  0.01364446  1  0.254921  0  -0.056982  -0.00401  0  3.886197  0
C  C105  1  0.28180942  0.66737023  0.68090938  1  0.272174  0  -0.056425  -0.001878  0  3.884819  0
C  C106  1  0.61457205  0.01354135  0.33271324  1  0.271924  0  -0.057278  -0.00411  0  3.886168  0
C  C107  1  0.60094611  0.31912288  0.98635470  1  0.254896  0  -0.056975  -0.003996  0  3.886145  0
C  C108  1  0.83650143  0.44418845  0.40176501  1  0.259284  0  -0.066062  -0.078074  0  3.865416  0
C  C109  1  0.39218357  0.95756852  0.55573842  1  0.28456  0  -0.065517  -0.078059  0  3.866209  0
C  C110  1  0.43468954  0.59821622  0.04249987  1  0.266958  0  -0.065534  -0.076531  0  3.865815  0
C  C111  1  0.16349626  0.55581058  0.59823349  1  0.259189  0  -0.066041  -0.077969  0  3.865305  0
C  C112  1  0.60781733  0.04243221  0.44426374  1  0.284599  0  -0.065518  -0.078065  0  3.866214  0
C  C113  1  0.56531135  0.40178452  0.95749947  1  0.26724  0  -0.065532  -0.076466  0  3.865666  0
C  C114  1  0.92351473  0.61892210  0.59529377  1  0.267435  0  -0.059478  -0.065992  0  3.872405  0
C  C115  1  0.30449408  0.97639727  0.38099700  1  0.277336  0  -0.058805  -0.063477  0  3.872589  0
C  C116  1  0.32809818  0.40465389  0.02367406  1  0.28602  0  -0.058969  -0.063745  0  3.87291  0
C  C117  1  0.07648366  0.38107521  0.40470293  1  0.26724  0  -0.059486  -0.065935  0  3.87251  0
C  C118  1  0.69550440  0.02360175  0.61900314  1  0.277332  0  -0.058798  -0.063404  0  3.872454  0
C  C119  1  0.67190392  0.59534770  0.97632664  1  0.286092  0  -0.058962  -0.063738  0  3.872858  0
C  C120  1  0.87962114  0.66414179  0.67919671  1  0.255615  0  -0.053515  0.007918  0  3.838036  0
C  C121  1  0.21536815  0.01507033  0.33578667  1  0.253212  0  -0.054324  0.00728  0  3.839227  0
C  C122  1  0.20025451  0.32072889  0.98492050  1  0.247074  0  -0.054249  0.006997  0  3.837646  0
C  C123  1  0.12038011  0.33585809  0.32080314  1  0.255479  0  -0.053519  0.007829  0  3.838055  0
C  C124  1  0.78463103  0.98492698  0.66421238  1  0.253231  0  -0.054369  0.007058  0  3.839403  0
C  C125  1  0.79974758  0.67927270  0.01507880  1  0.247045  0  -0.054215  0.007054  0  3.837629  0
N  N126  1  0.67702267  0.28160700  0.38296170  1  -1.186485  0  -0.586168  -0.578004  0  3.362897  0
N  N127  1  0.39538616  0.10137312  0.71831090  1  -1.166393  0  -0.58569  -0.575167  0  3.361474  0
N  N128  1  0.29412681  0.61700622  0.89867969  1  -1.176503  0  -0.586275  -0.576553  0  3.362533  0
N  N129  1  0.32297659  0.71839203  0.61703796  1  -1.18661  0  -0.586152  -0.577941  0  3.362868  0
N  N130  1  0.60460963  0.89862676  0.28169016  1  -1.166567  0  -0.585671  -0.575179  0  3.361474  0
N  N131  1  0.70587549  0.38299109  0.10131886  1  -1.176489  0  -0.58626  -0.576466  0  3.362445  0
N  N132  1  0.81882632  0.51822134  0.48999328  1  -1.118256  0  -0.453211  -0.324384  0  3.511304  0
N  N133  1  0.30049688  0.97176408  0.48168182  1  -1.150178  0  -0.453181  -0.323262  0  3.510825  0
N  N134  1  0.32875884  0.50994670  0.02826270  1  -1.125002  0  -0.453311  -0.325419  0  3.514238  0
N  N135  1  0.18116973  0.48177597  0.51000343  1  -1.118564  0  -0.453169  -0.324457  0  3.511307  0
N  N136  1  0.69950394  0.02823494  0.51831831  1  -1.150237  0  -0.453211  -0.323313  0  3.510835  0
N  N137  1  0.67124326  0.49005489  0.97173800  1  -1.125023  0  -0.453234  -0.325342  0  3.514129  0
N  N138  1  0.80893765  0.56935589  0.69148990  1  -1.204288  0  -0.579273  -0.570708  0  3.318558  0
N  N139  1  0.23943031  0.12208033  0.43057521  1  -1.195379  0  -0.58004  -0.571774  0  3.318415  0
N  N140  1  0.11734783  0.30849194  0.87787414  1  -1.183899  0  -0.579265  -0.570909  0  3.319319  0
N  N141  1  0.19106367  0.43064570  0.30851057  1  -1.203936  0  -0.579266  -0.570647  0  3.318427  0
N  N142  1  0.76056731  0.87791698  0.56942266  1  -1.195389  0  -0.58005  -0.571718  0  3.318532  0
N  N143  1  0.88265428  0.69150966  0.12212727  1  -1.183855  0  -0.579305  -0.570978  0  3.31937  0
O  O144  1  0.59203118  0.43187714  0.47667427  1  -1.473098  0  -0.332094  -0.867933  0  2.411777  0
O  O145  1  0.16002639  0.04452817  0.56802586  1  -1.470933  0  -0.331706  -0.867343  0  2.411682  0
O  O146  1  0.11556104  0.52357039  0.95542369  1  -1.466475  0  -0.331904  -0.867597  0  2.412332  0
O  O147  1  0.40796903  0.56812530  0.52333041  1  -1.473177  0  -0.33212  -0.867966  0  2.411995  0
O  O148  1  0.83997176  0.95547171  0.43197800  1  -1.470782  0  -0.331793  -0.867554  0  2.411213  0
O  O149  1  0.88444200  0.47642520  0.04457940  1  -1.46652  0  -0.33186  -0.86748  0  2.412993  0
O  O150  1  0.41054283  0.39293586  0.32082695  1  -1.400336  0  -0.32878  -0.767322  0  2.205463  0
O  O151  1  0.01740455  0.92784546  0.60705688  1  -1.403388  0  -0.328396  -0.766588  0  2.204833  0
O  O152  1  0.08954915  0.67915213  0.07213639  1  -1.399402  0  -0.328504  -0.766446  0  2.205671  0
O  O153  1  0.58945900  0.60706831  0.67917528  1  -1.400435  0  -0.32875  -0.767294  0  2.205593  0
O  O154  1  0.98259407  0.07215699  0.39294452  1  -1.403229  0  -0.328452  -0.766737  0  2.204559  0
O  O155  1  0.91045099  0.32084861  0.92786836  1  -1.399186  0  -0.328514  -0.766469  0  2.206038  0
O  O156  1  0.39603234  0.34118666  0.47296350  1  -1.399551  0  -0.322126  -0.786359  0  2.294574  0
O  O157  1  0.05501691  0.13181196  0.65886511  1  -1.410924  0  -0.322086  -0.786179  0  2.293881  0
O  O158  1  0.92317628  0.52702631  0.86814184  1  -1.410506  0  -0.322234  -0.785629  0  2.29332  0
O  O159  1  0.60396586  0.65881493  0.52703746  1  -1.399407  0  -0.322128  -0.786359  0  2.294662  0
O  O160  1  0.94498199  0.86818792  0.34113546  1  -1.411003  0  -0.322148  -0.786341  0  2.293623  0
O  O161  1  0.07682220  0.47297271  0.13185830  1  -1.410366  0  -0.322218  -0.785528  0  2.293633  0
O  O162  1  0.43415148  0.22009709  0.32195792  1  -1.474348  0  -0.394729  -0.770884  0  1.992534  0
O  O163  1  0.21409516  0.10168711  0.77985732  1  -1.473882  0  -0.39432  -0.770645  0  1.992173  0
O  O164  1  0.11236331  0.67822671  0.89829967  1  -1.470452  0  -0.394686  -0.770002  0  1.993688  0
O  O165  1  0.56584858  0.77991135  0.67804601  1  -1.474181  0  -0.39478  -0.771019  0  1.992292  0
O  O166  1  0.78591541  0.89831877  0.22015936  1  -1.474767  0  -0.394362  -0.770713  0  1.993091  0
O  O167  1  0.88763047  0.32176117  0.10170924  1  -1.47012  0  -0.394946  -0.770343  0  1.992475  0
O  O168  1  0.41320923  0.57886358  0.29043634  1  -1.429296  0  -0.321982  -0.794785  0  2.306476  0
O  O169  1  0.83432018  0.71149796  0.42105745  1  -1.435305  0  -0.322544  -0.795486  0  2.305835  0
O  O170  1  0.12284217  0.70958016  0.28848024  1  -1.431234  0  -0.322068  -0.795657  0  2.30814  0
O  O171  1  0.58679313  0.42113544  0.70956072  1  -1.429315  0  -0.321975  -0.794773  0  2.306514  0
O  O172  1  0.16567916  0.28850278  0.57894354  1  -1.43522  0  -0.322542  -0.795487  0  2.305834  0
O  O173  1  0.87715952  0.29042057  0.71152356  1  -1.431257  0  -0.322087  -0.795699  0  2.308068  0
O  O174  1  0.31001354  0.67803406  0.22175156  1  -1.421748  0  -0.327666  -0.788555  0  2.237983  0
O  O175  1  0.63187051  0.54367175  0.32180546  1  -1.424006  0  -0.327874  -0.788646  0  2.237156  0
O  O176  1  0.08815145  0.77822446  0.45624809  1  -1.42372  0  -0.326928  -0.788686  0  2.238065  0
O  O177  1  0.68998728  0.32196496  0.77824787  1  -1.421735  0  -0.327644  -0.788511  0  2.238005  0
O  O178  1  0.36812924  0.45632984  0.67819456  1  -1.424058  0  -0.327908  -0.788688  0  2.237141  0
O  O179  1  0.91184781  0.22177456  0.54375228  1  -1.423575  0  -0.326935  -0.788695  0  2.238012  0
O  O180  1  0.51501899  0.79914935  0.39574528  1  -1.470509  0  -0.331821  -0.796386  0  2.333132  0
O  O181  1  0.71581248  0.59657245  0.20074425  1  -1.468887  0  -0.331877  -0.796635  0  2.332019  0
O  O182  1  0.11925610  0.60435110  0.40353632  1  -1.467202  0  -0.331956  -0.796257  0  2.332348  0
O  O183  1  0.48498097  0.20084796  0.60425328  1  -1.470538  0  -0.331786  -0.796378  0  2.333147  0
O  O184  1  0.28419026  0.40342572  0.79925685  1  -1.468814  0  -0.331892  -0.796661  0  2.331918  0
O  O185  1  0.88074524  0.39565050  0.59646768  1  -1.467231  0  -0.331933  -0.796296  0  2.332408  0
O  O186  1  0.34067765  0.68985041  0.41141321  1  -1.461829  0  -0.32576  -0.808519  0  2.398387  0
O  O187  1  0.65091696  0.72161836  0.31011538  1  -1.460554  0  -0.325695  -0.808694  0  2.397904  0
O  O188  1  0.92927279  0.58850514  0.27837020  1  -1.45196  0  -0.325555  -0.809211  0  2.398677  0
O  O189  1  0.65932387  0.31014691  0.58858581  1  -1.461914  0  -0.325735  -0.808492  0  2.398399  0
O  O190  1  0.34908590  0.27838324  0.68988133  1  -1.460507  0  -0.325677  -0.808646  0  2.397929  0
O  O191  1  0.07072925  0.41149474  0.72163200  1  -1.451998  0  -0.325574  -0.809265  0  2.398579  0
