# generated using pymatgen
data_CdH26C24SN8O7
_symmetry_space_group_name_H-M   'P 1'
_cell_length_a   8.50475915
_cell_length_b   12.73543133
_cell_length_c   13.62480000
_cell_angle_alpha   87.28202905
_cell_angle_beta   81.13613606
_cell_angle_gamma   82.26025200
_symmetry_Int_Tables_number   1
_chemical_formula_structural   CdH26C24SN8O7
_chemical_formula_sum   'Cd2 H52 C48 S2 N16 O14'
_cell_volume   1444.28266357
_cell_formula_units_Z   2
loop_
 _symmetry_equiv_pos_site_id
 _symmetry_equiv_pos_as_xyz
  1  'x, y, z'
loop_
 _atom_site_type_symbol
 _atom_site_label
 _atom_site_symmetry_multiplicity
 _atom_site_fract_x
 _atom_site_fract_y
 _atom_site_fract_z
 _atom_site_occupancy
 _atom_site_hle17_bader_spin_density
 _atom_site_hle17_ddec_charge
 _atom_site_hle17_ddec_spin_density
 _atom_site_hle17_ddec_sum_bond_order
 _atom_site_hle17_magmom
 _atom_site_hse06_10hf_bader_spin_density
 _atom_site_hse06_10hf_ddec_charge
 _atom_site_hse06_10hf_ddec_spin_density
 _atom_site_hse06_10hf_ddec_sum_bond_order
 _atom_site_hse06_10hf_magmom
 _atom_site_hse06_bader_spin_density
 _atom_site_hse06_ddec_charge
 _atom_site_hse06_ddec_spin_density
 _atom_site_hse06_ddec_sum_bond_order
 _atom_site_hse06_magmom
 _atom_site_pbe_bader_charge
 _atom_site_pbe_bader_spin_density
 _atom_site_pbe_cm5_charge
 _atom_site_pbe_ddec_charge
 _atom_site_pbe_ddec_spin_density
 _atom_site_pbe_ddec_sum_bond_order
 _atom_site_pbe_magmom
Cd  Cd0  1  0.76576255  0.26647896  0.22308788  1  0  1.053066  0  1.769073  0  0  0.84488  0  2.219732  0  0  0.896209  0  2.177234  0  1.249829  0  0.783482  0.808681  0  2.248631  0
Cd  Cd1  1  0.23423347  0.73352505  0.77691042  1  0  1.053045  0  1.769152  0  0  0.84491  0  2.219744  0  0  0.896238  0  2.177244  0  1.249901  0  0.783506  0.808712  0  2.248644  0
H  H2  1  0.04653057  0.38237998  0.23357696  1  0  0.428283  0  0.824386  0  0  0.407174  0  0.885463  0  0  0.416377  0  0.874751  0  0.634633  0  0.310416  0.40061  0  0.893136  0
H  H3  1  0.95347098  0.61762007  0.76642245  1  0  0.428295  0  0.824341  0  0  0.407195  0  0.885403  0  0  0.416398  0  0.874691  0  0.634638  0  0.310414  0.400632  0  0.893077  0
H  H4  1  0.10917037  0.27211840  0.19167251  1  0  0.420713  0  0.893865  0  0  0.38454  0  0.966551  0  0  0.395917  0  0.950156  0  0.646085  0  0.282765  0.376556  0  0.978021  0
H  H5  1  0.89082881  0.72788165  0.80832492  1  0  0.42069  0  0.893903  0  0  0.38453  0  0.966569  0  0  0.395908  0  0.950174  0  0.646388  0  0.282749  0.376546  0  0.97804  0
H  H6  1  0.60513474  0.79601391  0.91437485  1  0  0.298878  0  0.930245  0  0  0.27805  0  0.997706  0  0  0.285978  0  0.99124  0  0.483337  0  0.305304  0.272371  0  1.002403  0
H  H7  1  0.39486889  0.20398773  0.08562796  1  0  0.298832  0  0.930281  0  0  0.278108  0  0.997602  0  0  0.286029  0  0.991138  0  0.483299  0  0.305343  0.272429  0  1.0023  0
H  H8  1  0.82344965  0.76649445  0.52904669  1  0  0.295953  0  0.938512  0  0  0.276606  0  1.007305  0  0  0.284336  0  1.001282  0  0.515778  0  0.299024  0.271135  0  1.011537  0
H  H9  1  0.17655847  0.23350243  0.47094929  1  0  0.296138  0  0.93814  0  0  0.276719  0  1.007053  0  0  0.28445  0  1.001027  0  0.51572  0  0.299048  0.271247  0  1.011287  0
H  H10  1  0.09005883  0.75402648  0.35839831  1  0  0.088494  0  0.919826  0  0  0.106083  0  0.977756  0  0  0.107649  0  0.976283  0  0.113194  0  0.117478  0.104892  0  0.97891  0
H  H11  1  0.90994956  0.24597515  0.64159890  1  0  0.088505  0  0.919707  0  0  0.106029  0  0.977733  0  0  0.107596  0  0.97626  0  0.113188  0  0.117423  0.104832  0  0.978879  0
H  H12  1  0.10772636  0.81142288  0.47132362  1  0  0.058694  0  0.944519  0  0  0.073088  0  1.01189  0  0  0.072629  0  1.013338  0  0.036205  0  0.100271  0.073451  0  1.010858  0
H  H13  1  0.89228011  0.18857638  0.52867461  1  0  0.058683  0  0.944553  0  0  0.073109  0  1.011884  0  0  0.072651  0  1.013332  0  0.036154  0  0.100264  0.07347  0  1.01085  0
H  H14  1  0.75914844  0.61145505  0.57275927  1  0  0.313455  0  0.928085  0  0  0.291706  0  0.997803  0  0  0.299958  0  0.991282  0  0.537446  0  0.302625  0.285859  0  1.002413  0
H  H15  1  0.24086072  0.38854262  0.42724098  1  0  0.313377  0  0.928111  0  0  0.291598  0  0.997884  0  0  0.299856  0  0.991351  0  0.53741  0  0.302566  0.285751  0  1.002493  0
H  H16  1  0.04557068  0.19623885  0.83999985  1  0  0.109856  0  0.938104  0  0  0.121749  0  0.992258  0  0  0.124837  0  0.99146  0  0.086879  0  0.110172  0.119535  0  0.992977  0
H  H17  1  0.95443150  0.80375803  0.16000111  1  0  0.109907  0  0.938116  0  0  0.121828  0  0.992232  0  0  0.124915  0  0.991433  0  0.086494  0  0.110187  0.119614  0  0.992951  0
H  H18  1  0.73438808  0.92014895  0.88566986  1  0  0.317695  0  0.904947  0  0  0.29923  0  0.966533  0  0  0.307478  0  0.959705  0  0.522272  0  0.311611  0.293378  0  0.971366  0
H  H19  1  0.26561648  0.07984793  0.11433674  1  0  0.3178  0  0.904878  0  0  0.29938  0  0.966405  0  0  0.307608  0  0.959603  0  0.5222  0  0.31169  0.293526  0  0.97124  0
H  H20  1  0.37899843  0.72951862  0.00840950  1  0  0.07251  0  0.952671  0  0  0.086413  0  1.020609  0  0  0.08585  0  1.022818  0  0.096659  0  0.108276  0.086781  0  1.019143  0
H  H21  1  0.62099599  0.27048143  0.99158399  1  0  0.072541  0  0.952714  0  0  0.086452  0  1.020644  0  0  0.0859  0  1.022841  0  0.096056  0  0.108326  0.086822  0  1.019172  0
H  H22  1  0.42546733  0.78256376  0.11680442  1  0  0.085383  0  0.923918  0  0  0.101266  0  0.983549  0  0  0.102839  0  0.982033  0  0.117547  0  0.115357  0.100055  0  0.984733  0
H  H23  1  0.57451353  0.21743867  0.88319174  1  0  0.085446  0  0.923871  0  0  0.101344  0  0.983491  0  0  0.102911  0  0.981986  0  0.117032  0  0.115405  0.100132  0  0.984675  0
H  H24  1  0.15595694  0.98590859  0.40366767  1  0  0.123035  0  0.93197  0  0  0.134881  0  0.985397  0  0  0.138345  0  0.984516  0  0.105963  0  0.112495  0.132363  0  0.986275  0
H  H25  1  0.84404638  0.01409463  0.59632555  1  0  0.122999  0  0.932023  0  0  0.134856  0  0.98544  0  0  0.138321  0  0.984559  0  0.105859  0  0.112516  0.132337  0  0.98632  0
H  H26  1  0.03849965  0.15813102  0.33985160  1  0  0.077505  0  0.970909  0  0  0.082788  0  1.040419  0  0  0.085597  0  1.037066  0  0.140635  0  0.112205  0.080606  0  1.04308  0
H  H27  1  0.96150176  0.84186983  0.66014045  1  0  0.077504  0  0.970898  0  0  0.082782  0  1.040423  0  0  0.085587  0  1.037075  0  0.140693  0  0.112201  0.0806  0  1.043083  0
H  H28  1  0.62773293  0.03858347  0.29151919  1  0  0.096188  0  0.938905  0  0  0.103591  0  1.000597  0  0  0.106719  0  0.997172  0  0.158963  0  0.120671  0.101238  0  1.003191  0
H  H29  1  0.37226656  0.96141500  0.70848415  1  0  0.096212  0  0.938869  0  0  0.103609  0  1.000564  0  0  0.10674  0  0.997137  0  0.158958  0  0.120668  0.101257  0  1.003158  0
H  H30  1  0.82932531  0.47614260  0.32838296  1  0  0.092781  0  0.97873  0  0  0.100622  0  1.042482  0  0  0.104207  0  1.039338  0  0.143162  0  0.112277  0.098062  0  1.044725  0
H  H31  1  0.17067987  0.52385111  0.67161785  1  0  0.092832  0  0.978644  0  0  0.100654  0  1.04242  0  0  0.104223  0  1.039293  0  0.143046  0  0.112249  0.098093  0  1.044664  0
H  H32  1  0.32503166  0.59146652  0.16260429  1  0  0.113092  0  0.928266  0  0  0.127196  0  0.978972  0  0  0.130536  0  0.978366  0  0.080478  0  0.112599  0.124784  0  0.979605  0
H  H33  1  0.67496037  0.40853354  0.83739016  1  0  0.113176  0  0.92821  0  0  0.127281  0  0.978912  0  0  0.130624  0  0.978302  0  0.080548  0  0.112621  0.124868  0  0.979546  0
H  H34  1  0.99731585  0.27934012  0.00779725  1  0  0.069135  0  0.96576  0  0  0.078894  0  1.033542  0  0  0.081031  0  1.031467  0  0.054243  0  0.107405  0.077299  0  1.035149  0
H  H35  1  0.00268451  0.72065993  0.99220007  1  0  0.069164  0  0.965736  0  0  0.078895  0  1.033556  0  0  0.081032  0  1.031482  0  0.054272  0  0.107396  0.0773  0  1.035162  0
H  H36  1  0.89407035  0.45628803  0.06745463  1  0  0.072075  0  0.956006  0  0  0.082882  0  1.018453  0  0  0.084964  0  1.016178  0  0.123602  0  0.111589  0.081251  0  1.020196  0
H  H37  1  0.10592298  0.54371757  0.93254900  1  0  0.0721  0  0.956003  0  0  0.082915  0  1.018436  0  0  0.084994  0  1.016167  0  0.123465  0  0.111607  0.081291  0  1.02017  0
H  H38  1  0.57677943  0.22733663  0.43953408  1  0  0.085641  0  0.950077  0  0  0.090877  0  1.019318  0  0  0.093893  0  1.016549  0  0.108689  0  0.112002  0.088598  0  1.021465  0
H  H39  1  0.42322244  0.77266184  0.56046831  1  0  0.085628  0  0.950089  0  0  0.090855  0  1.01935  0  0  0.093878  0  1.016574  0  0.10869  0  0.111988  0.088579  0  1.021497  0
H  H40  1  0.69431127  0.05993945  0.12516252  1  0  0.103178  0  0.983595  0  0  0.105339  0  1.056324  0  0  0.108868  0  1.05281  0  0.169635  0  0.115901  0.102831  0  1.058749  0
H  H41  1  0.30568579  0.94006535  0.87484078  1  0  0.103154  0  0.983649  0  0  0.105324  0  1.056352  0  0  0.108851  0  1.052847  0  0.169615  0  0.115912  0.102819  0  1.058769  0
H  H42  1  0.79124994  0.63674929  0.00297596  1  0  0.108034  0  0.97298  0  0  0.1143  0  1.040945  0  0  0.117869  0  1.03933  0  0.08244  0  0.103075  0.111698  0  1.042289  0
H  H43  1  0.20874489  0.36325472  0.99702319  1  0  0.108003  0  0.973111  0  0  0.114268  0  1.041066  0  0  0.117835  0  1.039453  0  0.082568  0  0.103052  0.111666  0  1.042409  0
H  H44  1  0.44275514  0.41270882  0.21555113  1  0  0.089778  0  1.003532  0  0  0.092761  0  1.07479  0  0  0.095926  0  1.07129  0  0.186335  0  0.111148  0.090416  0  1.077312  0
H  H45  1  0.55723628  0.58729441  0.78444691  1  0  0.089669  0  1.003632  0  0  0.092744  0  1.074798  0  0  0.095907  0  1.071303  0  0.186385  0  0.111153  0.090401  0  1.077319  0
H  H46  1  0.91008296  0.03816887  0.81769262  1  0  0.105877  0  0.959901  0  0  0.117022  0  1.019681  0  0  0.119268  0  1.019723  0  0.111244  0  0.107219  0.115371  0  1.0198  0
H  H47  1  0.08991984  0.96182484  0.18231062  1  0  0.105885  0  0.960007  0  0  0.117031  0  1.019761  0  0  0.119274  0  1.019808  0  0.111292  0  0.107213  0.115381  0  1.019879  0
H  H48  1  0.52440813  0.30169098  0.61122305  1  0  0.103541  0  0.928245  0  0  0.119812  0  0.974322  0  0  0.122912  0  0.973353  0  0.076681  0  0.111433  0.117555  0  0.975209  0
H  H49  1  0.47559327  0.69830987  0.38877854  1  0  0.103569  0  0.928238  0  0  0.119806  0  0.974349  0  0  0.122904  0  0.973382  0  0.076684  0  0.111432  0.117551  0  0.975234  0
H  H50  1  0.63296125  0.46915236  0.63923022  1  0  0.110568  0  0.945367  0  0  0.122719  0  1.004601  0  0  0.125401  0  1.003306  0  0.098173  0  0.111636  0.120774  0  1.005595  0
H  H51  1  0.36704357  0.53084928  0.36077028  1  0  0.110584  0  0.945278  0  0  0.122728  0  1.004521  0  0  0.12541  0  1.003224  0  0.098182  0  0.111628  0.120781  0  1.005518  0
H  H52  1  0.72706387  0.85900218  0.35670396  1  0  0.116795  0  0.932491  0  0  0.129098  0  0.984063  0  0  0.132841  0  0.982665  0  0.09043  0  0.113999  0.126408  0  0.985245  0
H  H53  1  0.27293825  0.14100104  0.64330112  1  0  0.116749  0  0.932472  0  0  0.129105  0  0.983993  0  0  0.132822  0  0.982627  0  0.090422  0  0.113981  0.126414  0  0.985179  0
C  C54  1  0.02158498  0.79960098  0.42139595  1  0  0.017691  0  3.716724  0  0  -0.046602  0  3.970987  0  0  -0.042333  0  3.981822  0  0.362637  0  -0.052937  -0.049419  0  3.963382  0
C  C55  1  0.97842180  0.20039669  0.57860159  1  0  0.017701  0  3.716763  0  0  -0.046593  0  3.971024  0  0  -0.042323  0  3.981858  0  0.362541  0  -0.052876  -0.049391  0  3.963395  0
C  C56  1  0.96661623  0.16427780  0.90155631  1  0  -0.101192  0  3.778776  0  0  -0.115022  0  4.03525  0  0  -0.118953  0  4.055194  0  0.063176  0  -0.08544  -0.112599  0  4.021912  0
C  C57  1  0.03338579  0.83571987  0.09844756  1  0  -0.101309  0  3.778825  0  0  -0.115173  0  4.035292  0  0  -0.119105  0  4.055235  0  0.063446  0  -0.08551  -0.112748  0  4.021953  0
C  C58  1  0.47800667  0.73902418  0.04917719  1  0  0.010146  0  3.721475  0  0  -0.05464  0  3.976424  0  0  -0.050238  0  3.98664  0  0.328894  0  -0.053136  -0.057455  0  3.969094  0
C  C59  1  0.52198356  0.26097904  0.95082096  1  0  0.009861  0  3.721601  0  0  -0.054931  0  3.976695  0  0  -0.05055  0  3.986912  0  0.330044  0  -0.05334  -0.057746  0  3.96937  0
C  C60  1  0.03827972  0.99269669  0.37976594  1  0  -0.17908  0  3.719253  0  0  -0.19794  0  3.970041  0  0  -0.205994  0  3.99042  0  -0.022108  0  -0.088538  -0.19279  0  3.956469  0
C  C61  1  0.96172509  0.00730495  0.62022795  1  0  -0.179138  0  3.719409  0  0  -0.197979  0  3.970206  0  0  -0.206035  0  3.990589  0  -0.021682  0  -0.088573  -0.192829  0  3.956634  0
C  C62  1  0.97282472  0.09015176  0.34409341  1  0  0.129192  0  3.729669  0  0  0.096132  0  3.991772  0  0  0.104275  0  4.00874  0  0.40871  0  0.036351  0.090814  0  3.980322  0
C  C63  1  0.02717756  0.90985067  0.65589995  1  0  0.129174  0  3.729725  0  0  0.09614  0  3.991782  0  0  0.104282  0  4.008752  0  0.408017  0  0.036371  0.090823  0  3.98033  0
C  C64  1  0.74445686  0.02285978  0.31667273  1  0  0.140356  0  3.691701  0  0  0.109955  0  3.944701  0  0  0.117761  0  3.962416  0  0.421991  0  0.051323  0.104892  0  3.93268  0
C  C65  1  0.25554263  0.97713868  0.68332695  1  0  0.140407  0  3.691624  0  0  0.11  0  3.944649  0  0  0.117808  0  3.962356  0  0.422042  0  0.05137  0.104937  0  3.932629  0
C  C66  1  0.76391085  0.43885761  0.39254176  1  0  0.010275  0  3.675181  0  0  -0.029262  0  3.930412  0  0  -0.025962  0  3.94764  0  0.533314  0  0.029605  -0.031416  0  3.918888  0
C  C67  1  0.23609490  0.56113927  0.60745959  1  0  0.010173  0  3.674989  0  0  -0.029382  0  3.930202  0  0  -0.026057  0  3.947444  0  0.533354  0  0.029648  -0.03155  0  3.918664  0
C  C68  1  0.45222894  0.56474220  0.13903259  1  0  -0.174189  0  3.718169  0  0  -0.190813  0  3.963596  0  0  -0.199829  0  3.985411  0  0.025533  0  -0.08586  -0.185013  0  3.948935  0
C  C69  1  0.54776398  0.43525944  0.86096684  1  0  -0.174325  0  3.718111  0  0  -0.19093  0  3.963593  0  0  -0.199948  0  3.985407  0  0.025628  0  -0.085918  -0.185129  0  3.948934  0
C  C70  1  0.94094327  0.21067832  0.99421029  1  0  0.083589  0  3.750113  0  0  0.044775  0  4.017071  0  0  0.05102  0  4.034594  0  0.428519  0  0.021307  0.040639  0  4.00515  0
C  C71  1  0.05905797  0.78932332  0.00579128  1  0  0.083561  0  3.750052  0  0  0.04475  0  4.017042  0  0  0.050996  0  4.034563  0  0.428536  0  0.021313  0.040613  0  4.005119  0
C  C72  1  0.76812724  0.48917736  0.08533181  1  0  0.126122  0  3.740983  0  0  0.097023  0  3.989385  0  0  0.104447  0  4.009209  0  0.440353  0  0.042578  0.09237  0  3.975741  0
C  C73  1  0.23186624  0.51082745  0.91467036  1  0  0.126102  0  3.740966  0  0  0.097007  0  3.989365  0  0  0.10443  0  4.009189  0  0.440658  0  0.0426  0.092348  0  3.975719  0
C  C74  1  0.62276801  0.29962197  0.45555774  1  0  0.088836  0  3.729976  0  0  0.049944  0  3.99875  0  0  0.056702  0  4.014835  0  0.476504  0  0.023679  0.045522  0  3.9878  0
C  C75  1  0.37723520  0.70037571  0.54444528  1  0  0.088973  0  3.729927  0  0  0.050094  0  3.998675  0  0  0.056846  0  4.014758  0  0.476516  0  0.023753  0.045667  0  3.987731  0
C  C76  1  0.77274402  0.08729240  0.06137715  1  0  0.021986  0  3.645466  0  0  -0.017519  0  3.9065  0  0  -0.013213  0  3.922597  0  0.484471  0  0.034664  -0.020337  0  3.895761  0
C  C77  1  0.22725557  0.91271162  0.93862447  1  0  0.021997  0  3.645497  0  0  -0.017473  0  3.90649  0  0  -0.013169  0  3.922589  0  0.484662  0  0.034681  -0.020293  0  3.895756  0
C  C78  1  0.89373864  0.63749128  0.43601666  1  0  0.710358  0  3.905942  0  0  0.642117  0  4.21454  0  0  0.676414  0  4.211068  0  1.82386  0  0.32062  0.618884  0  4.216012  0
C  C79  1  0.10627233  0.36250322  0.56397915  1  0  0.710372  0  3.905476  0  0  0.642001  0  4.214184  0  0  0.676303  0  4.210708  0  1.824133  0  0.320586  0.618767  0  4.215656  0
C  C80  1  0.71131641  0.58988662  0.05138047  1  0  -0.171555  0  3.71859  0  0  -0.188298  0  3.961553  0  0  -0.197192  0  3.983422  0  -0.063425  0  -0.089743  -0.182577  0  3.946849  0
C  C81  1  0.28867485  0.41011740  0.94862196  1  0  -0.171511  0  3.718662  0  0  -0.188221  0  3.961601  0  0  -0.197113  0  3.983467  0  -0.063655  0  -0.08972  -0.182501  0  3.946899  0
C  C82  1  0.74032459  0.48647338  0.48580064  1  0  0.243106  0  3.797932  0  0  0.240123  0  4.044123  0  0  0.246199  0  4.065859  0  0.331177  0  0.111666  0.235502  0  4.029735  0
C  C83  1  0.25968369  0.51352271  0.51419830  1  0  0.243106  0  3.797904  0  0  0.240234  0  4.043947  0  0  0.246284  0  4.065724  0  0.331167  0  0.111602  0.235662  0  4.029489  0
C  C84  1  0.63658994  0.88681491  0.02948649  1  0  0.711131  0  3.897502  0  0  0.6415  0  4.207746  0  0  0.675478  0  4.204777  0  1.822989  0  0.322034  0.618504  0  4.208953  0
C  C85  1  0.36339521  0.11318990  0.97051795  1  0  0.711437  0  3.896901  0  0  0.641819  0  4.207162  0  0  0.675787  0  4.204188  0  1.823415  0  0.32227  0.618823  0  4.20837  0
C  C86  1  0.51719828  0.46476542  0.16899313  1  0  0.118793  0  3.718256  0  0  0.087122  0  3.974045  0  0  0.094399  0  3.992562  0  0.319131  0  0.034279  0.082456  0  3.961433  0
C  C87  1  0.48279282  0.53523939  0.83100634  1  0  0.118904  0  3.718206  0  0  0.087161  0  3.974016  0  0  0.094438  0  3.992534  0  0.318594  0  0.034283  0.082492  0  3.961408  0
C  C88  1  0.79345031  0.03487114  0.97054079  1  0  0.240257  0  3.788487  0  0  0.23623  0  4.034352  0  0  0.242253  0  4.055392  0  0.442608  0  0.112225  0.231709  0  4.020332  0
C  C89  1  0.20654918  0.96512733  0.02946403  1  0  0.240281  0  3.788288  0  0  0.236186  0  4.03422  0  0  0.242209  0  4.055255  0  0.442551  0  0.11214  0.231668  0  4.020203  0
C  C90  1  0.55042827  0.63007931  0.07967131  1  0  0.140214  0  3.706591  0  0  0.156164  0  3.942711  0  0  0.161725  0  3.963994  0  0.022484  0  0.016184  0.152671  0  3.928099  0
C  C91  1  0.44956269  0.36992629  0.92032740  1  0  0.140334  0  3.706647  0  0  0.156228  0  3.94283  0  0  0.161788  0  3.964117  0  0.023017  0  0.01625  0.152734  0  3.928217  0
C  C92  1  0.89211514  0.07614036  0.88938358  1  0  -0.121479  0  3.682138  0  0  -0.14404  0  3.931541  0  0  -0.144566  0  3.949787  0  -0.093964  0  -0.077628  -0.143442  0  3.919265  0
C  C93  1  0.10788838  0.92385573  0.11062095  1  0  -0.121383  0  3.681992  0  0  -0.143897  0  3.931356  0  0  -0.14442  0  3.949598  0  -0.094015  0  -0.077447  -0.143302  0  3.919084  0
C  C94  1  0.59396536  0.34175208  0.55029471  1  0  -0.102143  0  3.783806  0  0  -0.11517  0  4.041203  0  0  -0.119027  0  4.060712  0  -0.029287  0  -0.086508  -0.112764  0  4.028046  0
C  C95  1  0.40603785  0.65824559  0.44970684  1  0  -0.102254  0  3.783809  0  0  -0.115254  0  4.041226  0  0  -0.11911  0  4.060733  0  -0.029235  0  -0.086549  -0.11285  0  4.028074  0
C  C96  1  0.65375356  0.43469264  0.56596402  1  0  -0.110797  0  3.677894  0  0  -0.137032  0  3.93083  0  0  -0.137318  0  3.948997  0  0.00961  0  -0.074516  -0.13657  0  3.918602  0
C  C97  1  0.34625068  0.56530583  0.43403740  1  0  -0.110825  0  3.677858  0  0  -0.137076  0  3.93073  0  0  -0.13735  0  3.948901  0  0.009541  0  -0.074502  -0.136628  0  3.918487  0
C  C98  1  0.95140689  0.90626677  0.38428311  1  0  0.122298  0  3.716816  0  0  0.138939  0  3.955652  0  0  0.143629  0  3.97752  0  -0.057567  0  0.013659  0.135992  0  3.940738  0
C  C99  1  0.04859808  0.09373408  0.61571373  1  0  0.122357  0  3.716921  0  0  0.13892  0  3.955867  0  0  0.143612  0  3.977728  0  -0.057683  0  0.013621  0.13597  0  3.940952  0
C  C100  1  0.80066642  0.92314624  0.35303700  1  0  -0.15333  0  3.689234  0  0  -0.170587  0  3.932293  0  0  -0.178397  0  3.952576  0  0.006405  0  -0.080578  -0.165651  0  3.918793  0
C  C101  1  0.19933126  0.07685539  0.64696418  1  0  -0.153335  0  3.689183  0  0  -0.170612  0  3.932273  0  0  -0.178401  0  3.952564  0  0.006388  0  -0.080571  -0.165676  0  3.918776  0
S  S102  1  0.34514148  0.22020211  0.28395120  1  0  1.552187  0  5.855347  0  0  1.428895  0  6.4026  0  0  1.483951  0  6.366137  0  3.784176  0  0.550677  1.39075  0  6.426633  0
S  S103  1  0.65486085  0.77979398  0.71604685  1  0  1.552183  0  5.855336  0  0  1.428976  0  6.402557  0  0  1.484032  0  6.366096  0  3.784174  0  0.550748  1.390833  0  6.426588  0
N  N104  1  0.82963967  0.10541724  0.31145450  1  0  -0.356892  0  3.260442  0  0  -0.2811  0  3.529808  0  0  -0.301884  0  3.549816  0  -1.215567  0  -0.337355  -0.266932  0  3.51585  0
N  N105  1  0.17036158  0.89458439  0.68854193  1  0  -0.356857  0  3.260492  0  0  -0.281082  0  3.529869  0  0  -0.301862  0  3.549868  0  -1.215112  0  -0.337355  -0.266914  0  3.515912  0
N  N106  1  0.58573386  0.80275048  0.98989054  1  0  -0.484159  0  3.309114  0  0  -0.422333  0  3.563666  0  0  -0.44434  0  3.57093  0  -1.237608  0  -0.44011  -0.407041  0  3.558279  0
N  N107  1  0.41425621  0.19725354  0.01011053  1  0  -0.48407  0  3.309131  0  0  -0.422363  0  3.563706  0  0  -0.444336  0  3.570944  0  -1.23772  0  -0.440105  -0.40707  0  3.558318  0
N  N108  1  0.90405903  0.73534594  0.47007587  1  0  -0.488982  0  3.300415  0  0  -0.429865  0  3.55493  0  0  -0.451992  0  3.562447  0  -1.261723  0  -0.437267  -0.414411  0  3.549211  0
N  N109  1  0.09594910  0.26465094  0.52992231  1  0  -0.489164  0  3.300115  0  0  -0.429871  0  3.554539  0  0  -0.451999  0  3.562057  0  -1.261807  0  -0.437263  -0.414418  0  3.548812  0
N  N110  1  0.67358102  0.42732586  0.14350024  1  0  -0.344875  0  3.256647  0  0  -0.268791  0  3.524065  0  0  -0.289443  0  3.544354  0  -1.225028  0  -0.337153  -0.254729  0  3.509871  0
N  N111  1  0.32641262  0.57267816  0.85650122  1  0  -0.344859  0  3.256695  0  0  -0.268803  0  3.524191  0  0  -0.289453  0  3.544479  0  -1.22541  0  -0.337144  -0.25474  0  3.509998  0
N  N112  1  0.70700521  0.34805344  0.37905393  1  0  -0.32966  0  3.329544  0  0  -0.249464  0  3.599991  0  0  -0.26785  0  3.621189  0  -1.262832  0  -0.336257  -0.23678  0  3.585237  0
N  N113  1  0.29299903  0.65194502  0.62094749  1  0  -0.329607  0  3.329537  0  0  -0.249426  0  3.59999  0  0  -0.267812  0  3.621185  0  -1.262767  0  -0.336216  -0.236743  0  3.58524  0
N  N114  1  0.84479750  0.17277263  0.07191259  1  0  -0.324131  0  3.290489  0  0  -0.245126  0  3.558712  0  0  -0.262828  0  3.578328  0  -1.256297  0  -0.335298  -0.232922  0  3.545083  0
N  N115  1  0.15520240  0.82722980  0.92808613  1  0  -0.32409  0  3.290392  0  0  -0.245094  0  3.558586  0  0  -0.262794  0  3.578201  0  -1.25637  0  -0.335292  -0.232891  0  3.54496  0
N  N116  1  0.79221466  0.58142984  0.50209255  1  0  -0.498109  0  3.330282  0  0  -0.440708  0  3.571058  0  0  -0.464896  0  3.58067  0  -1.27899  0  -0.404827  -0.423859  0  3.564081  0
N  N117  1  0.20779688  0.41856784  0.49790894  1  0  -0.49798  0  3.330312  0  0  -0.440585  0  3.571101  0  0  -0.464788  0  3.580766  0  -1.279327  0  -0.404765  -0.423754  0  3.564105  0
N  N118  1  0.72035398  0.94729262  0.95685175  1  0  -0.494611  0  3.317819  0  0  -0.436196  0  3.557031  0  0  -0.459791  0  3.565852  0  -1.276363  0  -0.406782  -0.419814  0  3.550647  0
N  N119  1  0.27964281  0.05270743  0.04315252  1  0  -0.494965  0  3.317811  0  0  -0.436585  0  3.557007  0  0  -0.460163  0  3.565853  0  -1.27623  0  -0.406994  -0.420201  0  3.550626  0
O  O120  1  0.27892072  0.33274277  0.30619270  1  0  -0.751512  0  1.93701  0  0  -0.694757  0  2.180393  0  0  -0.715  0  2.162163  0  -1.358235  0  -0.372104  -0.680371  0  2.192527  0
O  O121  1  0.72108978  0.66725411  0.69380378  1  0  -0.751369  0  1.936878  0  0  -0.694759  0  2.180339  0  0  -0.715002  0  2.162114  0  -1.358317  0  -0.372109  -0.680374  0  2.192474  0
O  O122  1  0.51224470  0.21376360  0.22911323  1  0  -0.7569  0  2.013793  0  0  -0.68649  0  2.297045  0  0  -0.710152  0  2.276841  0  -1.356835  0  -0.37864  -0.669654  0  2.310386  0
O  O123  1  0.48775871  0.78622694  0.77088202  1  0  -0.756988  0  2.013895  0  0  -0.686563  0  2.297079  0  0  -0.710225  0  2.276873  0  -1.356788  0  -0.37871  -0.669727  0  2.31042  0
O  O124  1  0.24664501  0.18080610  0.21277429  1  0  -0.765505  0  1.987421  0  0  -0.697916  0  2.224238  0  0  -0.720596  0  2.206856  0  -1.349739  0  -0.367012  -0.681815  0  2.235805  0
O  O125  1  0.75335240  0.81919078  0.78722639  1  0  -0.765454  0  1.987363  0  0  -0.697909  0  2.224184  0  0  -0.720592  0  2.206797  0  -1.349667  0  -0.367035  -0.681807  0  2.235748  0
O  O126  1  0.61119961  0.90568570  0.11944797  1  0  -0.603772  0  1.867647  0  0  -0.562816  0  2.081455  0  0  -0.583429  0  2.073622  0  -1.164592  0  -0.324797  -0.548456  0  2.086379  0
O  O127  1  0.38877256  0.09432466  0.88055234  1  0  -0.60396  0  1.867102  0  0  -0.562994  0  2.08089  0  0  -0.583608  0  2.073058  0  -1.164978  0  -0.325004  -0.548635  0  2.085814  0
O  O128  1  0.02114704  0.33364489  0.18671948  1  0  -0.833605  0  1.844796  0  0  -0.775063  0  2.048491  0  0  -0.79595  0  2.019113  0  -1.265857  0  -0.585846  -0.760209  0  2.068769  0
O  O129  1  0.97885318  0.66635595  0.81327929  1  0  -0.833623  0  1.844802  0  0  -0.775079  0  2.048463  0  0  -0.795967  0  2.019084  0  -1.266164  0  -0.585833  -0.760227  0  2.068743  0
O  O130  1  0.33671073  0.15444327  0.37622563  1  0  -0.714022  0  1.872584  0  0  -0.669103  0  2.111769  0  0  -0.689231  0  2.095268  0  -1.348522  0  -0.36912  -0.654773  0  2.122646  0
O  O131  1  0.66329129  0.84555441  0.62377310  1  0  -0.714038  0  1.872626  0  0  -0.669119  0  2.111764  0  0  -0.689248  0  2.095262  0  -1.348499  0  -0.369121  -0.654793  0  2.122644  0
O  O132  1  0.96837777  0.60272399  0.35585429  1  0  -0.616243  0  1.85675  0  0  -0.575817  0  2.064976  0  0  -0.596258  0  2.056322  0  -1.18243  0  -0.335821  -0.56145  0  2.070403  0
O  O133  1  0.03162694  0.39727210  0.64414866  1  0  -0.616302  0  1.85627  0  0  -0.575831  0  2.064533  0  0  -0.596269  0  2.055876  0  -1.182271  0  -0.335841  -0.561461  0  2.069954  0
