# generated using pymatgen
data_ZnH14C18(NO2)2
_symmetry_space_group_name_H-M   'P 1'
_cell_length_a   5.80090081
_cell_length_b   11.14595420
_cell_length_c   15.14985778
_cell_angle_alpha   113.89176966
_cell_angle_beta   90.00309128
_cell_angle_gamma   105.07051382
_symmetry_Int_Tables_number   1
_chemical_formula_structural   ZnH14C18(NO2)2
_chemical_formula_sum   'Zn2 H28 C36 N4 O8'
_cell_volume   858.62036472
_cell_formula_units_Z   2
loop_
 _symmetry_equiv_pos_site_id
 _symmetry_equiv_pos_as_xyz
  1  'x, y, z'
loop_
 _atom_site_type_symbol
 _atom_site_label
 _atom_site_symmetry_multiplicity
 _atom_site_fract_x
 _atom_site_fract_y
 _atom_site_fract_z
 _atom_site_occupancy
 _atom_site_hle17_bader_spin_density
 _atom_site_hle17_ddec_charge
 _atom_site_hle17_ddec_spin_density
 _atom_site_hle17_ddec_sum_bond_order
 _atom_site_hle17_magmom
 _atom_site_hse06_10hf_bader_spin_density
 _atom_site_hse06_10hf_ddec_charge
 _atom_site_hse06_10hf_ddec_spin_density
 _atom_site_hse06_10hf_ddec_sum_bond_order
 _atom_site_hse06_10hf_magmom
 _atom_site_hse06_bader_spin_density
 _atom_site_hse06_ddec_charge
 _atom_site_hse06_ddec_spin_density
 _atom_site_hse06_ddec_sum_bond_order
 _atom_site_hse06_magmom
 _atom_site_pbe_bader_spin_density
 _atom_site_pbe_cm5_charge
 _atom_site_pbe_ddec_charge
 _atom_site_pbe_ddec_spin_density
 _atom_site_pbe_ddec_sum_bond_order
 _atom_site_pbe_magmom
Zn  Zn0  1  0.59387283  0.99998118  0.75003799  1  0  0.976569  0  1.86778  0  0  0.779529  0  2.343492  0  0  0.827842  0  2.288646  0  0  0.694317  0.745842  0  2.381234  0
Zn  Zn1  1  0.40605913  0.99998956  0.24995041  1  0  0.976504  0  1.867718  0  0  0.779421  0  2.343382  0  0  0.827747  0  2.288525  0  0  0.694284  0.745728  0  2.381121  0
H  H2  1  0.40381031  0.53712088  0.44369701  1  0  0.092305  0  0.963724  0  0  0.101505  0  1.027699  0  0  0.10484  0  1.025778  0  0  0.100865  0.099079  0  1.029181  0
H  H3  1  0.86635248  0.46243698  0.05618275  1  0  0.09228  0  0.96389  0  0  0.101384  0  1.028088  0  0  0.104649  0  1.026237  0  0  0.100749  0.099054  0  1.029472  0
H  H4  1  0.59610647  0.46283939  0.55629579  1  0  0.092243  0  0.963534  0  0  0.101439  0  1.027533  0  0  0.104779  0  1.025612  0  0  0.10081  0.099013  0  1.029018  0
H  H5  1  0.13356921  0.53756761  0.94381150  1  0  0.09231  0  0.963469  0  0  0.101393  0  1.027724  0  0  0.104656  0  1.025886  0  0  0.100766  0.099058  0  1.029113  0
H  H6  1  0.90639938  0.68980122  0.63880769  1  0  0.10559  0  0.959599  0  0  0.111411  0  1.026761  0  0  0.114856  0  1.025319  0  0  0.100461  0.108962  0  1.027769  0
H  H7  1  0.21636338  0.31036068  0.86118814  1  0  0.104192  0  0.960187  0  0  0.110264  0  1.027099  0  0  0.113666  0  1.025713  0  0  0.100164  0.10788  0  1.028096  0
H  H8  1  0.09350139  0.31015462  0.36117861  1  0  0.105638  0  0.959323  0  0  0.11145  0  1.026533  0  0  0.114927  0  1.025037  0  0  0.100391  0.108996  0  1.02755  0
H  H9  1  0.78360422  0.68964608  0.13880867  1  0  0.104254  0  0.960149  0  0  0.110252  0  1.02716  0  0  0.113669  0  1.02574  0  0  0.100129  0.107871  0  1.028149  0
H  H10  1  0.06938562  0.03783722  0.85453267  1  0  0.097984  0  0.948144  0  0  0.104983  0  1.012792  0  0  0.107867  0  1.010156  0  0  0.120413  0.102782  0  1.014885  0
H  H11  1  0.03126216  0.96233587  0.64547547  1  0  0.09845  0  0.947603  0  0  0.105268  0  1.012207  0  0  0.108176  0  1.009549  0  0  0.120699  0.103064  0  1.014233  0
H  H12  1  0.93061982  0.96223836  0.14543987  1  0  0.098172  0  0.94847  0  0  0.105116  0  1.013084  0  0  0.107993  0  1.010454  0  0  0.120566  0.10292  0  1.015175  0
H  H13  1  0.96869659  0.03763595  0.35449337  1  0  0.098552  0  0.947322  0  0  0.105247  0  1.012034  0  0  0.108162  0  1.009369  0  0  0.120708  0.103085  0  1.014008  0
H  H14  1  0.22813849  0.91443373  0.93545326  1  0  0.108783  0  0.932719  0  0  0.121068  0  0.985345  0  0  0.124053  0  0.985467  0  0  0.111532  0.118955  0  0.985404  0
H  H15  1  0.31321466  0.08600074  0.56465756  1  0  0.108811  0  0.932905  0  0  0.120796  0  0.985863  0  0  0.123753  0  0.986  0  0  0.111684  0.118653  0  0.985964  0
H  H16  1  0.77206665  0.08572752  0.06453920  1  0  0.108788  0  0.932817  0  0  0.121052  0  0.985514  0  0  0.123962  0  0.985726  0  0  0.111654  0.118983  0  0.985524  0
H  H17  1  0.68671621  0.91397738  0.43531563  1  0  0.108892  0  0.932735  0  0  0.120923  0  0.985654  0  0  0.123881  0  0.98579  0  0  0.111711  0.118778  0  0.985755  0
H  H18  1  0.96058578  0.69983308  0.93487895  1  0  0.109878  0  0.96673  0  0  0.119089  0  1.027859  0  0  0.122277  0  1.025104  0  0  0.108658  0.116666  0  1.029974  0
H  H19  1  0.26009352  0.30078514  0.56558434  1  0  0.11001  0  0.966078  0  0  0.119013  0  1.027409  0  0  0.122185  0  1.024697  0  0  0.108758  0.116617  0  1.029419  0
H  H20  1  0.03972238  0.30032730  0.06517933  1  0  0.110065  0  0.966388  0  0  0.119211  0  1.027604  0  0  0.122392  0  1.02487  0  0  0.10878  0.116791  0  1.029709  0
H  H21  1  0.73985617  0.69919268  0.43440000  1  0  0.110072  0  0.966008  0  0  0.119023  0  1.027389  0  0  0.12219  0  1.024682  0  0  0.108789  0.116631  0  1.029398  0
H  H22  1  0.53947369  0.60746570  0.84508975  1  0  0.101866  0  0.964673  0  0  0.112597  0  1.021341  0  0  0.114903  0  1.02247  0  0  0.105052  0.110906  0  1.020841  0
H  H23  1  0.93094404  0.39283453  0.65528884  1  0  0.101642  0  0.963388  0  0  0.112429  0  1.020109  0  0  0.114701  0  1.021246  0  0  0.104712  0.110736  0  1.019601  0
H  H24  1  0.46077765  0.39262236  0.15501697  1  0  0.102073  0  0.964247  0  0  0.112651  0  1.021084  0  0  0.114956  0  1.022217  0  0  0.105061  0.111001  0  1.020534  0
H  H25  1  0.06901440  0.60715390  0.34470432  1  0  0.10157  0  0.963669  0  0  0.112407  0  1.020329  0  0  0.114676  0  1.021467  0  0  0.104763  0.110717  0  1.019813  0
H  H26  1  0.40702248  0.74286114  0.76762132  1  0  0.078392  0  0.955286  0  0  0.086882  0  1.01798  0  0  0.088867  0  1.01719  0  0  0.116921  0.085422  0  1.018536  0
H  H27  1  0.66306650  0.25706431  0.73243333  1  0  0.078982  0  0.955367  0  0  0.087695  0  1.017801  0  0  0.08959  0  1.017104  0  0  0.117064  0.08617  0  1.018513  0
H  H28  1  0.59307991  0.25712552  0.23243941  1  0  0.078226  0  0.955371  0  0  0.086849  0  1.01796  0  0  0.088838  0  1.017163  0  0  0.116853  0.08539  0  1.018512  0
H  H29  1  0.33687948  0.74290610  0.26756089  1  0  0.079056  0  0.955478  0  0  0.087622  0  1.018028  0  0  0.089592  0  1.017247  0  0  0.117118  0.086081  0  1.01877  0
C  C30  1  0.17410260  0.62694291  0.54624075  1  0  -0.06355  0  3.764688  0  0  -0.040439  0  3.994185  0  0  -0.047401  0  4.017359  0  0  -0.020084  -0.035945  0  3.978553  0
C  C31  1  0.54689876  0.37293001  0.95368899  1  0  -0.063285  0  3.763687  0  0  -0.040985  0  3.994075  0  0  -0.047772  0  4.016951  0  0  -0.020483  -0.036373  0  3.978504  0
C  C32  1  0.82579624  0.37300560  0.45375678  1  0  -0.064198  0  3.764975  0  0  -0.040931  0  3.994408  0  0  -0.047904  0  4.017599  0  0  -0.020082  -0.036419  0  3.978746  0
C  C33  1  0.45307829  0.62704739  0.04628863  1  0  -0.063687  0  3.762322  0  0  -0.041369  0  3.992865  0  0  -0.048133  0  4.015732  0  0  -0.020621  -0.036766  0  3.977293  0
C  C34  1  0.22577995  0.51997172  0.46753187  1  0  -0.084626  0  3.759958  0  0  -0.105906  0  4.008914  0  0  -0.106951  0  4.028487  0  0  -0.0871  -0.105169  0  3.995759  0
C  C35  1  0.70563471  0.47975016  0.03240485  1  0  -0.085174  0  3.761211  0  0  -0.10638  0  4.010524  0  0  -0.10737  0  4.030053  0  0  -0.087443  -0.105534  0  3.997158  0
C  C36  1  0.77416019  0.48001113  0.53246837  1  0  -0.084408  0  3.759727  0  0  -0.105785  0  4.008705  0  0  -0.106825  0  4.028279  0  0  -0.087113  -0.105052  0  3.995547  0
C  C37  1  0.29431905  0.52020823  0.96757422  1  0  -0.084936  0  3.760327  0  0  -0.106165  0  4.009625  0  0  -0.10717  0  4.02916  0  0  -0.087343  -0.105308  0  3.996245  0
C  C38  1  0.94663584  0.60599145  0.57853067  1  0  -0.07247  0  3.731412  0  0  -0.095488  0  3.981883  0  0  -0.095831  0  4.00097  0  0  -0.087355  -0.095045  0  3.968866  0
C  C39  1  0.34043813  0.39409902  0.92150878  1  0  -0.070578  0  3.730329  0  0  -0.093251  0  3.980588  0  0  -0.093602  0  3.999632  0  0  -0.086404  -0.093031  0  3.967628  0
C  C40  1  0.05329580  0.39398131  0.42146881  1  0  -0.072473  0  3.731139  0  0  -0.095607  0  3.981679  0  0  -0.095952  0  4.000757  0  0  -0.087389  -0.095168  0  3.968656  0
C  C41  1  0.65955925  0.60587420  0.07848223  1  0  -0.070545  0  3.730079  0  0  -0.093237  0  3.980471  0  0  -0.093602  0  3.999529  0  0  -0.086397  -0.093009  0  3.967507  0
C  C42  1  0.36416356  0.76107055  0.59648664  1  0  0.613958  0  3.954149  0  0  0.567198  0  4.244971  0  0  0.600799  0  4.237897  0  0  0.192143  0.544514  0  4.248728  0
C  C43  1  0.60266447  0.23882176  0.90337870  1  0  0.613918  0  3.954989  0  0  0.567445  0  4.245454  0  0  0.601007  0  4.238356  0  0  0.193013  0.544674  0  4.249362  0
C  C44  1  0.63574532  0.23887736  0.40350148  1  0  0.614468  0  3.953662  0  0  0.567671  0  4.24451  0  0  0.601277  0  4.237424  0  0  0.192433  0.544985  0  4.248268  0
C  C45  1  0.39725163  0.76121990  0.09664541  1  0  0.61363  0  3.953213  0  0  0.567126  0  4.243825  0  0  0.600686  0  4.236744  0  0  0.192787  0.544353  0  4.24773  0
C  C46  1  0.95848777  0.94183637  0.85354525  1  0  0.143885  0  3.659756  0  0  0.108075  0  3.914444  0  0  0.11642  0  3.930823  0  0  0.056031  0.102706  0  3.903454  0
C  C47  1  0.01601745  0.05828165  0.64640414  1  0  0.141935  0  3.660828  0  0  0.106775  0  3.91484  0  0  0.115097  0  3.931272  0  0  0.055723  0.101409  0  3.903803  0
C  C48  1  0.04153664  0.05820819  0.14642944  1  0  0.143925  0  3.66056  0  0  0.108208  0  3.915221  0  0  0.116557  0  3.931578  0  0  0.056038  0.102833  0  3.904249  0
C  C49  1  0.98395775  0.94167823  0.35356675  1  0  0.142001  0  3.660486  0  0  0.106985  0  3.914368  0  0  0.115301  0  3.930803  0  0  0.055806  0.101595  0  3.903308  0
C  C50  1  0.04589666  0.87224982  0.89791974  1  0  -0.114859  0  3.722793  0  0  -0.126899  0  3.975948  0  0  -0.135132  0  3.998184  0  0  -0.077687  -0.121704  0  3.960965  0
C  C51  1  0.17300523  0.12805097  0.60214288  1  0  -0.112703  0  3.722883  0  0  -0.124576  0  3.975966  0  0  -0.132755  0  3.998187  0  0  -0.077243  -0.119341  0  3.960985  0
C  C52  1  0.95424169  0.12783988  0.10208568  1  0  -0.114775  0  3.723007  0  0  -0.126828  0  3.976268  0  0  -0.134997  0  3.99851  0  0  -0.077873  -0.121672  0  3.961269  0
C  C53  1  0.82692144  0.87189460  0.39782413  1  0  -0.11278  0  3.722477  0  0  -0.124743  0  3.975531  0  0  -0.132926  0  3.997767  0  0  -0.077268  -0.119507  0  3.960561  0
C  C54  1  0.89620515  0.75090850  0.89616691  1  0  0.002947  0  3.692198  0  0  -0.015706  0  3.933913  0  0  -0.011524  0  3.952354  0  0  -0.061382  -0.018054  0  3.921402  0
C  C55  1  0.14441994  0.24945929  0.60408217  1  0  0.001715  0  3.692235  0  0  -0.01695  0  3.934272  0  0  -0.012789  0  3.952687  0  0  -0.061359  -0.019272  0  3.921578  0
C  C56  1  0.10398114  0.24919432  0.10387114  1  0  0.002451  0  3.692234  0  0  -0.016196  0  3.933968  0  0  -0.012011  0  3.952393  0  0  -0.061684  -0.018547  0  3.921478  0
C  C57  1  0.85555155  0.75048973  0.39589171  1  0  0.001511  0  3.692119  0  0  -0.017139  0  3.93423  0  0  -0.012977  0  3.952652  0  0  -0.061469  -0.019466  0  3.921535  0
C  C58  1  0.66339525  0.70121028  0.84778050  1  0  -0.125068  0  3.750998  0  0  -0.131672  0  3.990034  0  0  -0.140353  0  4.013987  0  0  -0.08453  -0.12618  0  3.974127  0
C  C59  1  0.96122125  0.29903546  0.65249673  1  0  -0.12401  0  3.750696  0  0  -0.130615  0  3.989603  0  0  -0.139238  0  4.013515  0  0  -0.084372  -0.125156  0  3.973612  0
C  C60  1  0.33676574  0.29887639  0.15228819  1  0  -0.125  0  3.749852  0  0  -0.131418  0  3.9889  0  0  -0.140093  0  4.012854  0  0  -0.084394  -0.125966  0  3.972979  0
C  C61  1  0.03875163  0.70092668  0.34747807  1  0  -0.123712  0  3.751097  0  0  -0.13036  0  3.989927  0  0  -0.138985  0  4.013856  0  0  -0.084346  -0.1249  0  3.973934  0
C  C62  1  0.58794661  0.77579669  0.80501307  1  0  0.115122  0  3.71486  0  0  0.086004  0  3.956492  0  0  0.092381  0  3.976691  0  0  0.043325  0.081927  0  3.942737  0
C  C63  1  0.81111103  0.22423035  0.69505307  1  0  0.114084  0  3.716211  0  0  0.084784  0  3.957773  0  0  0.091226  0  3.97801  0  0  0.042911  0.080635  0  3.944243  0
C  C64  1  0.41213937  0.22421235  0.19502003  1  0  0.114968  0  3.714116  0  0  0.085747  0  3.955796  0  0  0.092125  0  3.976001  0  0  0.043221  0.081667  0  3.942048  0
C  C65  1  0.18884586  0.77572049  0.30493387  1  0  0.114199  0  3.716824  0  0  0.084978  0  3.958307  0  0  0.091355  0  3.978507  0  0  0.042902  0.080836  0  3.94481  0
N  N66  1  0.73206255  0.89463853  0.80854798  1  0  -0.334288  0  3.32377  0  0  -0.245686  0  3.601356  0  0  -0.265608  0  3.615095  0  0  -0.331189  -0.232346  0  3.592082  0
N  N67  1  0.83669966  0.10540558  0.69144352  1  0  -0.333551  0  3.324197  0  0  -0.245142  0  3.60168  0  0  -0.265096  0  3.615415  0  0  -0.331065  -0.231869  0  3.592492  0
N  N68  1  0.26790994  0.10536422  0.19144906  1  0  -0.334092  0  3.323525  0  0  -0.245565  0  3.601189  0  0  -0.265489  0  3.614941  0  0  -0.33101  -0.232221  0  3.591905  0
N  N69  1  0.16327312  0.89453223  0.30852798  1  0  -0.334029  0  3.324731  0  0  -0.245489  0  3.601949  0  0  -0.26544  0  3.6157  0  0  -0.331171  -0.23222  0  3.592777  0
O  O70  1  0.30164020  0.85488911  0.66910520  1  0  -0.653131  0  2.048995  0  0  -0.578537  0  2.318977  0  0  -0.607057  0  2.304281  0  0  -0.33654  -0.55844  0  2.328135  0
O  O71  1  0.44599905  0.14495740  0.83095640  1  0  -0.653145  0  2.049978  0  0  -0.578647  0  2.319602  0  0  -0.607145  0  2.304937  0  0  -0.336685  -0.558574  0  2.328904  0
O  O72  1  0.69834283  0.14506919  0.33088838  1  0  -0.653196  0  2.048845  0  0  -0.578597  0  2.318772  0  0  -0.607113  0  2.304075  0  0  -0.3366  -0.558505  0  2.327934  0
O  O73  1  0.55409345  0.85505782  0.16904733  1  0  -0.652972  0  2.048775  0  0  -0.578458  0  2.31834  0  0  -0.606965  0  2.303705  0  0  -0.336608  -0.558382  0  2.32763  0
O  O74  1  0.57053685  0.77689155  0.57051137  1  0  -0.611478  0  1.945036  0  0  -0.568679  0  2.177837  0  0  -0.591727  0  2.170566  0  0  -0.317084  -0.552293  0  2.181994  0
O  O75  1  0.79364460  0.22304851  0.92904762  1  0  -0.611425  0  1.944729  0  0  -0.568568  0  2.177317  0  0  -0.591719  0  2.170203  0  0  -0.317253  -0.552265  0  2.181727  0
O  O76  1  0.42938485  0.22306476  0.42949819  1  0  -0.611784  0  1.944699  0  0  -0.568921  0  2.177402  0  0  -0.592035  0  2.170255  0  0  -0.317332  -0.552534  0  2.181562  0
O  O77  1  0.20621747  0.77690576  0.07094553  1  0  -0.610939  0  1.944696  0  0  -0.568035  0  2.177264  0  0  -0.59119  0  2.17016  0  0  -0.316802  -0.551731  0  2.18167  0
