# generated using pymatgen
data_Al6H80C105O34
_symmetry_space_group_name_H-M   'P 1'
_cell_length_a   13.13345876
_cell_length_b   13.38908130
_cell_length_c   27.50008750
_cell_angle_alpha   90.95444437
_cell_angle_beta   90.38631433
_cell_angle_gamma   59.96710519
_symmetry_Int_Tables_number   1
_chemical_formula_structural   Al6H80C105O34
_chemical_formula_sum   'Al6 H80 C105 O34'
_cell_volume   4185.90678492
_cell_formula_units_Z   1
loop_
 _symmetry_equiv_pos_site_id
 _symmetry_equiv_pos_as_xyz
  1  'x, y, z'
loop_
 _atom_site_type_symbol
 _atom_site_label
 _atom_site_symmetry_multiplicity
 _atom_site_fract_x
 _atom_site_fract_y
 _atom_site_fract_z
 _atom_site_occupancy
 _atom_site_pbe_bader_charge
 _atom_site_pbe_bader_spin_density
 _atom_site_pbe_cm5_charge
 _atom_site_pbe_ddec_charge
 _atom_site_pbe_ddec_spin_density
 _atom_site_pbe_ddec_sum_bond_order
 _atom_site_pbe_magmom
Al  Al0  1  0.84941023  0.56345850  0.49786256  1  2.491756  0  0.394251  1.688587  0  2.557525  0
Al  Al1  1  0.59578704  0.58331435  0.49737009  1  2.479108  0  0.504797  1.660491  0  2.51155  0
Al  Al2  1  0.60377034  0.80269038  0.49903430  1  2.476035  0  0.504525  1.660374  0  2.513835  0
Al  Al3  1  0.83085106  0.08390773  0.98490222  1  2.494755  0  0.393044  1.687824  0  2.559549  0
Al  Al4  1  0.08174956  0.07183621  0.98174950  1  2.480007  0  0.504572  1.661714  0  2.510201  0
Al  Al5  1  0.08107503  0.84898710  0.98487814  1  2.47588  0  0.504669  1.661018  0  2.508241  0
H  H6  1  0.41276154  0.94630987  0.19202271  1  0.04729  0  0.09403  0.093553  0  0.997506  0
H  H7  1  0.93946350  0.66363458  0.19257112  1  0.03515  0  0.09532  0.094158  0  1.040618  0
H  H8  1  0.68713692  0.32492655  0.18803687  1  0.034874  0  0.09299  0.090793  0  1.001163  0
H  H9  1  0.54152451  0.79669889  0.27131721  1  0.033457  0  0.095677  0.097471  0  0.98289  0
H  H10  1  0.78035701  0.70199538  0.27145108  1  0.046934  0  0.097963  0.100041  0  0.979146  0
H  H11  1  0.65823798  0.47721018  0.26967005  1  0.026682  0  0.097041  0.099403  0  0.99419  0
H  H12  1  0.51632676  0.79750227  0.18720370  1  0.059577  0  0.100301  0.108981  0  0.978068  0
H  H13  1  0.78465219  0.73980499  0.18901164  1  0.052591  0  0.103331  0.114898  0  0.971053  0
H  H14  1  0.70079468  0.44968990  0.18706731  1  0.102102  0  0.101282  0.110395  0  0.995528  0
H  H15  1  0.29965060  0.69536532  0.19687309  1  0.054941  0  0.103273  0.044619  0  0.975019  0
H  H16  1  0.74653710  0.03070420  0.21239893  1  0.029338  0  0.100767  0.036804  0  0.984912  0
H  H17  1  0.02551883  0.29195736  0.21084683  1  0.044815  0  0.104377  0.04395  0  0.981607  0
H  H18  1  0.29668708  0.00654126  0.86357274  1  0.097076  0  0.110919  0.117005  0  0.996174  0
H  H19  1  0.04257301  0.68576929  0.86222819  1  0.104259  0  0.107413  0.112671  0  1.002791  0
H  H20  1  0.71825845  0.25133739  0.85968148  1  0.107379  0  0.11519  0.125262  0  0.990806  0
H  H21  1  0.44025897  0.93408533  0.62413502  1  0.094228  0  0.110363  0.116917  0  1.003994  0
H  H22  1  0.95134652  0.61801958  0.62373466  1  0.10564  0  0.116166  0.127529  0  0.990928  0
H  H23  1  0.61837089  0.41456166  0.62389284  1  0.091517  0  0.106457  0.112489  0  1.005308  0
H  H24  1  0.36644986  0.06323729  0.79049860  1  0.05025  0  0.104325  0.104417  0  0.991584  0
H  H25  1  0.10132732  0.56364949  0.78670011  1  0.053576  0  0.101532  0.100694  0  0.997255  0
H  H26  1  0.58624934  0.31283892  0.78719430  1  0.059467  0  0.102705  0.102228  0  0.995506  0
H  H27  1  0.41420878  0.03957308  0.70272233  1  0.065944  0  0.101653  0.101713  0  1.00644  0
H  H28  1  0.07010380  0.54041703  0.69917691  1  0.078191  0  0.103512  0.104303  0  0.995439  0
H  H29  1  0.55077605  0.36980795  0.70071986  1  0.067225  0  0.099985  0.099493  0  1.002101  0
H  H30  1  0.23687614  0.71897756  0.85559261  1  0.077671  0  0.110099  0.116571  0  1.003866  0
H  H31  1  0.73249005  0.02111657  0.86375310  1  0.10908  0  0.117187  0.128744  0  0.991102  0
H  H32  1  0.06561119  0.20467661  0.84950982  1  0.100848  0  0.106138  0.111828  0  1.00893  0
H  H33  1  0.26495850  0.61209239  0.77705126  1  0.059559  0  0.101254  0.100558  0  1.01059  0
H  H34  1  0.61554420  0.09996051  0.78794406  1  0.07306  0  0.102769  0.102877  0  1.000469  0
H  H35  1  0.14006567  0.23143165  0.77026778  1  0.053924  0  0.097903  0.098467  0  1.012713  0
H  H36  1  0.31469355  0.58711426  0.68952124  1  0.086977  0  0.104219  0.104766  0  0.992771  0
H  H37  1  0.58542172  0.07763662  0.70027540  1  0.049822  0  0.100387  0.098794  0  1.000049  0
H  H38  1  0.10456753  0.28865929  0.68388982  1  0.061568  0  0.103375  0.104703  0  0.992543  0
H  H39  1  0.42582881  0.94075026  0.27709942  1  0.006673  0  0.092201  0.08527  0  1.001451  0
H  H40  1  0.93366821  0.64300909  0.27674082  1  0.059596  0  0.094697  0.090029  0  0.988668  0
H  H41  1  0.65364215  0.34803152  0.27230037  1  0.020411  0  0.094016  0.091742  0  0.977863  0
H  H42  1  0.38302387  0.64492466  0.61617112  1  0.114805  0  0.111513  0.118567  0  0.994784  0
H  H43  1  0.64323710  0.95473810  0.62484935  1  0.076328  0  0.107043  0.113822  0  1.002401  0
H  H44  1  0.96616672  0.36677948  0.61344384  1  0.129268  0  0.116419  0.128384  0  0.987657  0
H  H45  1  0.22127703  0.98627467  0.29347205  1  0.058668  0  0.099759  0.042177  0  0.979098  0
H  H46  1  0.01991707  0.76217099  0.30084278  1  0.074035  0  0.106147  0.048771  0  0.956687  0
H  H47  1  0.83201756  0.16310172  0.29134178  1  0.060884  0  0.096329  0.034837  0  0.987932  0
H  H48  1  0.19866478  0.00962856  0.21013939  1  0.03277  0  0.095855  0.102734  0  0.987438  0
H  H49  1  0.04676667  0.77507905  0.21861295  1  0.060455  0  0.101491  0.112043  0  0.972941  0
H  H50  1  0.86464237  0.13053860  0.20838839  1  0.025177  0  0.096364  0.100152  0  0.9953  0
H  H51  1  0.15035182  0.90741330  0.20916615  1  0.046704  0  0.098698  0.104932  0  1.006452  0
H  H52  1  0.96371504  0.92691710  0.22473130  1  0.046635  0  0.102401  0.111817  0  0.997111  0
H  H53  1  0.00399665  0.11846022  0.21686149  1  0.076276  0  0.101583  0.11106  0  1.005791  0
H  H54  1  0.49082359  0.63437016  0.26613773  1  0.052963  0  0.100025  0.107569  0  1.00459  0
H  H55  1  0.64772134  0.92393912  0.27467844  1  0.053373  0  0.102923  0.115075  0  0.991355  0
H  H56  1  0.85470360  0.47115332  0.27620174  1  0.10635  0  0.103495  0.116475  0  0.980462  0
H  H57  1  0.34545730  0.66592334  0.27913832  1  0.070885  0  0.101817  0.118282  0  0.973173  0
H  H58  1  0.70796394  0.01077301  0.29345087  1  0.037231  0  0.094056  0.097488  0  1.004187  0
H  H59  1  0.98311044  0.34157620  0.29250338  1  0.048949  0  0.097743  0.105758  0  0.984416  0
H  H60  1  0.08952085  0.92588465  0.29987589  1  0.629422  0  0.294135  0.33256  0  0.990302  0
H  H61  1  0.91884547  0.93408594  0.34397200  1  0.592263  0  0.326923  0.353647  0  0.891151  0
H  H62  1  0.98740958  0.15626180  0.33664995  1  0.593855  0  0.322598  0.350572  0  0.899237  0
H  H63  1  0.54135604  0.54705753  0.11639217  1  0.052137  0  0.106262  0.078607  0  0.958154  0
H  H64  1  0.38689913  0.64165271  0.11643549  1  0.046348  0  0.093959  0.058123  0  1.019988  0
H  H65  1  0.51557669  0.41320326  0.17099489  1  -0.00238  0  0.084907  0.074168  0  1.022642  0
H  H66  1  0.36222017  0.50677451  0.17087287  1  0.005294  0  0.082802  0.065277  0  1.029698  0
H  H67  1  0.35640133  0.47754717  0.08008624  1  0.008685  0  0.090224  0.120763  0  0.99236  0
H  H68  1  0.42214720  0.34282611  0.10973486  1  0.016286  0  0.08459  0.107236  0  1.026355  0
H  H69  1  0.51166778  0.38651692  0.07920168  1  0.027869  0  0.092809  0.124973  0  0.99221  0
H  H70  1  0.50626334  0.05530653  0.14928291  1  0.065102  0  0.107558  0.078562  0  0.958137  0
H  H71  1  0.59477471  0.11883120  0.16178328  1  0.013633  0  0.094911  0.054016  0  0.978809  0
H  H72  1  0.45337311  0.07311631  0.23809328  1  0.015764  0  0.088353  0.07951  0  1.007361  0
H  H73  1  0.53664095  0.14101909  0.25005946  1  0.007351  0  0.090021  0.08374  0  0.989034  0
H  H74  1  0.40734637  0.30350099  0.19506909  1  0.013351  0  0.08736  0.113366  0  1.032083  0
H  H75  1  0.32170624  0.28716334  0.24044728  1  0.047922  0  0.089796  0.119848  0  0.994845  0
H  H76  1  0.32539345  0.23499532  0.18025014  1  0.022687  0  0.088009  0.113632  0  1.007396  0
H  H77  1  0.93049922  0.53492923  0.13813443  1  0.055268  0  0.106434  0.078444  0  0.967266  0
H  H78  1  0.00810225  0.38225056  0.13221158  1  0.053993  0  0.093158  0.056042  0  1.00348  0
H  H79  1  0.05100515  0.50965745  0.21633608  1  0.011434  0  0.087371  0.078921  0  1.01095  0
H  H80  1  0.13962113  0.36381483  0.19989435  1  -0.000367  0  0.08478  0.069281  0  1.029491  0
H  H81  1  0.19281923  0.41939057  0.12060453  1  0.027276  0  0.090562  0.119212  0  0.995973  0
H  H82  1  0.22885117  0.47941757  0.17107656  1  0.020645  0  0.083961  0.109629  0  1.046127  0
H  H83  1  0.10155468  0.56739135  0.13613113  1  0.042664  0  0.086585  0.112733  0  1.010368  0
H  H84  1  0.04334663  0.48250791  0.46935873  1  0.584251  0  0.290131  0.382158  0  0.924567  0
H  H85  1  0.63840114  0.17739699  0.01582899  1  0.563045  0  0.2875  0.377739  0  0.933808  0
C  C86  1  0.77589026  0.76804018  0.43195461  1  1.662902  0  0.277047  0.721422  0  4.155522  0
C  C87  1  0.76312789  0.44203803  0.42937644  1  1.681696  0  0.277093  0.720282  0  4.154149  0
C  C88  1  0.46733523  0.76181998  0.42856318  1  1.611337  0  0.282325  0.734264  0  4.133975  0
C  C89  1  0.37275616  0.71067478  0.20599492  1  0.456334  0  0.012604  0.143214  0  3.79055  0
C  C90  1  0.74344647  0.95049472  0.21736429  1  0.490629  0  0.010652  0.140763  0  3.807209  0
C  C91  1  0.93051421  0.35077309  0.21632801  1  0.471561  0  0.010622  0.143242  0  3.802525  0
C  C92  1  0.39746401  0.69801951  0.26115367  1  -0.033795  0  -0.156235  -0.253601  0  3.824194  0
C  C93  1  0.72484305  0.93476355  0.27157821  1  -0.039155  0  -0.162585  -0.269563  0  3.85365  0
C  C94  1  0.90234474  0.37710828  0.27081654  1  -0.082565  0  -0.157234  -0.25573  0  3.840146  0
C  C95  1  0.30790022  0.85395007  0.13950569  1  -0.588005  0  0.001193  0.018374  0  3.979786  0
C  C96  1  0.88139376  0.85802225  0.14894636  1  -0.58152  0  -0.013875  -0.008955  0  4.021742  0
C  C97  1  0.88725787  0.26678010  0.14411592  1  -0.192818  0  -0.008057  0.000115  0  4.007706  0
C  C98  1  0.39477303  0.79995824  0.33728355  1  -0.538693  0  0.001375  0.028524  0  3.972535  0
C  C99  1  0.81573596  0.81400335  0.34333141  1  -0.2828  0  -0.020145  -0.031867  0  4.052724  0
C  C100  1  0.80245047  0.35396444  0.34035236  1  0.133845  0  -0.021265  -0.035671  0  4.055887  0
C  C101  1  0.41939026  0.78704771  0.38033192  1  0.310115  0  -0.052964  -0.23907  0  3.953581  0
C  C102  1  0.80070407  0.80032246  0.38570778  1  -0.00869  0  -0.051296  -0.219707  0  3.972936  0
C  C103  1  0.78589459  0.38304003  0.38298747  1  -0.443891  0  -0.05103  -0.218982  0  3.973469  0
C  C104  1  0.91367508  0.18877797  0.91058030  1  1.556981  0  0.272838  0.638752  0  4.086031  0
C  C105  1  0.21831821  0.88874443  0.91507540  1  1.538072  0  0.277442  0.649492  0  4.070225  0
C  C106  1  0.91257564  0.87755343  0.91800479  1  1.55462  0  0.273594  0.639915  0  4.087742  0
C  C107  1  0.91876314  0.20671458  0.05119028  1  1.652334  0  0.277969  0.722431  0  4.157218  0
C  C108  1  0.22294660  0.89574215  0.05002101  1  1.611636  0  0.282042  0.731178  0  4.142276  0
C  C109  1  0.91657472  0.89123432  0.05742081  1  1.6418  0  0.276141  0.723878  0  4.150182  0
C  C110  1  0.41388961  0.87861886  0.64209141  1  -0.033076  0  -0.073477  -0.133052  0  3.913925  0
C  C111  1  0.89315921  0.69706364  0.64391515  1  -0.036309  0  -0.072012  -0.132711  0  3.911632  0
C  C112  1  0.70339084  0.38740085  0.64087230  1  -0.055217  0  -0.077933  -0.139458  0  3.932783  0
C  C113  1  0.38494591  0.89474186  0.69165631  1  -0.026209  0  -0.002891  0.079302  0  4.03145  0
C  C114  1  0.91370960  0.70948533  0.69303474  1  -0.008195  0  -0.005938  0.075356  0  4.043177  0
C  C115  1  0.72364511  0.34988668  0.68907530  1  -0.020351  0  -0.007145  0.074455  0  4.04049  0
C  C116  1  0.32846123  0.92276529  0.79283358  1  0.104297  0  -0.00336  0.076833  0  4.032778  0
C  C117  1  0.94986724  0.73645730  0.79354696  1  -0.001776  0  -0.006274  0.075513  0  4.039776  0
C  C118  1  0.76443421  0.28420950  0.78849214  1  0.022828  0  -0.005798  0.076407  0  4.039856  0
C  C119  1  0.77110314  0.76185086  0.56950685  1  1.552692  0  0.271624  0.638216  0  4.091334  0
C  C120  1  0.76343166  0.44799292  0.56574523  1  1.54056  0  0.27256  0.637501  0  4.090246  0
C  C121  1  0.45926144  0.76513669  0.56463851  1  1.522273  0  0.278993  0.650697  0  4.068317  0
C  C122  1  0.36198510  0.99641090  0.76887408  1  -0.069551  0  -0.085435  -0.127182  0  4.01221  0
C  C123  1  0.02791192  0.63276164  0.76711487  1  0.004343  0  -0.08931  -0.133591  0  4.027  0
C  C124  1  0.65460699  0.31438572  0.76541799  1  -0.053204  0  -0.08835  -0.129436  0  4.02016  0
C  C125  1  0.38848224  0.98328928  0.72046874  1  -0.020627  0  -0.085705  -0.124879  0  4.005996  0
C  C126  1  0.01074972  0.61984973  0.71896172  1  -0.099454  0  -0.088216  -0.127644  0  4.013243  0
C  C127  1  0.63509807  0.34572858  0.71782048  1  -0.073856  0  -0.090708  -0.131691  0  4.02227  0
C  C128  1  0.29722340  0.93702438  0.84215591  1  -0.11777  0  -0.073561  -0.133487  0  3.919184  0
C  C129  1  0.96714810  0.75247832  0.84276046  1  0.005985  0  -0.078578  -0.14195  0  3.937984  0
C  C130  1  0.78539064  0.25401285  0.83753585  1  -0.064583  0  -0.07359  -0.135392  0  3.918015  0
C  C131  1  0.26432296  0.86391583  0.86438464  1  0.027796  0  -0.015824  -0.047075  0  4.013654  0
C  C132  1  0.88889163  0.85469291  0.86733339  1  -0.050793  0  -0.01656  -0.043455  0  4.022815  0
C  C133  1  0.89299370  0.22664170  0.85913009  1  0.035398  0  -0.017748  -0.045224  0  4.024302  0
C  C134  1  0.38172793  0.71483802  0.63756292  1  -0.01763  0  -0.072973  -0.133911  0  3.915624  0
C  C135  1  0.71842864  0.88787346  0.64437872  1  -0.021467  0  -0.079308  -0.144317  0  3.937133  0
C  C136  1  0.90057609  0.36023240  0.63511377  1  -0.033796  0  -0.072698  -0.136074  0  3.912864  0
C  C137  1  0.35071310  0.72887449  0.68693770  1  0.012704  0  -0.002822  0.079012  0  4.029788  0
C  C138  1  0.73619128  0.90431494  0.69349337  1  -0.012196  0  -0.006418  0.07605  0  4.038601  0
C  C139  1  0.92476886  0.32154506  0.68307333  1  0.021679  0  -0.005619  0.075649  0  4.0412  0
C  C140  1  0.35330231  0.81903556  0.71466406  1  -0.034915  0  0.010137  0.009008  0  3.894227  0
C  C141  1  0.83409412  0.81372701  0.71846427  1  -0.021613  0  0.008806  0.008359  0  3.900689  0
C  C142  1  0.83487672  0.31810661  0.71087570  1  0.027138  0  0.007921  0.010877  0  3.896937  0
C  C143  1  0.31797353  0.65474842  0.71099715  1  -0.070518  0  -0.08623  -0.127736  0  4.005827  0
C  C144  1  0.65842705  0.00819352  0.71988624  1  0.022516  0  -0.08924  -0.131307  0  4.024515  0
C  C145  1  0.03580387  0.28810708  0.70576287  1  -0.072857  0  -0.088882  -0.131271  0  4.016334  0
C  C146  1  0.29056244  0.66848867  0.75934005  1  -0.033147  0  -0.085396  -0.123099  0  4.004036  0
C  C147  1  0.67510381  0.02070110  0.76812340  1  -0.090001  0  -0.088046  -0.128337  0  4.013306  0
C  C148  1  0.05525536  0.25680294  0.75339246  1  -0.039925  0  -0.090729  -0.131586  0  4.018926  0
C  C149  1  0.29325196  0.75755058  0.78811368  1  0.010856  0  -0.003278  0.07833  0  4.028592  0
C  C150  1  0.77178147  0.93085544  0.79413077  1  -0.079033  0  -0.005075  0.077196  0  4.039661  0
C  C151  1  0.96546988  0.25604343  0.78257630  1  -0.005863  0  -0.005999  0.077318  0  4.036193  0
C  C152  1  0.44955388  0.85580474  0.26133273  1  -0.001011  0  -0.151183  -0.185878  0  3.854479  0
C  C153  1  0.85270196  0.71799268  0.26344605  1  -0.068881  0  -0.149136  -0.177091  0  3.848405  0
C  C154  1  0.70730457  0.38493967  0.26020958  1  0.001268  0  -0.150959  -0.178069  0  3.851305  0
C  C155  1  0.32524580  0.83297289  0.76508197  1  -0.019058  0  0.01076  0.011169  0  3.894359  0
C  C156  1  0.85186965  0.82697073  0.76860680  1  0.016621  0  0.007787  0.008452  0  3.90026  0
C  C157  1  0.85510044  0.28564910  0.76046235  1  0.017208  0  0.007738  0.006371  0  3.900225  0
C  C158  1  0.26371678  0.77412895  0.83766289  1  -0.021583  0  -0.073091  -0.131153  0  3.909572  0
C  C159  1  0.79136993  0.94255814  0.84344029  1  -0.028273  0  -0.071492  -0.133187  0  3.909039  0
C  C160  1  0.98221252  0.22759831  0.83195262  1  -0.11058  0  -0.078677  -0.139804  0  3.929599  0
C  C161  1  0.41350812  0.78877547  0.61532182  1  -0.005396  0  -0.015988  -0.04642  0  4.014532  0
C  C162  1  0.79563457  0.78483373  0.62003831  1  0.020254  0  -0.017577  -0.043941  0  4.026019  0
C  C163  1  0.79030679  0.39441516  0.61450978  1  -0.000591  0  -0.018197  -0.045187  0  4.026031  0
C  C164  1  0.24112404  0.90419324  0.27567558  1  0.492522  0  0.003694  0.192153  0  3.82417  0
C  C165  1  0.94334385  0.83839231  0.28538572  1  0.439938  0  0.008478  0.187034  0  3.795876  0
C  C166  1  0.88813170  0.19677870  0.27830633  1  0.465839  0  0.004742  0.188465  0  3.810987  0
C  C167  1  0.22315232  0.92113141  0.21996810  1  -0.043668  0  -0.156794  -0.265184  0  3.825238  0
C  C168  1  0.96170525  0.84704743  0.23078771  1  -0.048672  0  -0.152025  -0.253368  0  3.820221  0
C  C169  1  0.90942064  0.17508160  0.22319438  1  -0.056177  0  -0.152637  -0.24755  0  3.811109  0
C  C170  1  0.27731690  0.87151286  0.09712742  1  0.351911  0  -0.049693  -0.23588  0  3.948465  0
C  C171  1  0.89874372  0.86606567  0.10622220  1  0.317161  0  -0.04946  -0.220929  0  3.963254  0
C  C172  1  0.90259361  0.24817576  0.10062280  1  -0.091344  0  -0.047552  -0.223222  0  3.957438  0
C  C173  1  0.37141431  0.81355885  0.28533787  1  0.14408  0  0.001161  0.113087  0  3.880323  0
C  C174  1  0.83256573  0.82688989  0.29232400  1  0.120218  0  -0.005856  0.104182  0  3.92224  0
C  C175  1  0.82443616  0.32870018  0.28882535  1  0.10228  0  -0.005253  0.102196  0  3.922444  0
C  C176  1  0.43486265  0.86103932  0.20543223  1  -0.035502  0  -0.155463  -0.188576  0  3.851143  0
C  C177  1  0.85983414  0.73517977  0.20857603  1  0.014961  0  -0.155965  -0.193266  0  3.834505  0
C  C178  1  0.73195540  0.36702037  0.20509807  1  -0.06059  0  -0.156279  -0.191156  0  3.846192  0
C  C179  1  0.33563259  0.83643067  0.19099624  1  0.123138  0  -0.002182  0.106596  0  3.895407  0
C  C180  1  0.86217750  0.84770274  0.20002115  1  0.13453  0  -0.000716  0.116326  0  3.905449  0
C  C181  1  0.86520894  0.28964426  0.19576468  1  0.136714  0  -0.003317  0.106657  0  3.914201  0
C  C182  1  0.46070701  0.57645908  0.13789464  1  0.417591  0  -0.073477  0.021904  0  3.923998  0
C  C183  1  0.44218558  0.47549724  0.14860763  1  -0.000816  0  -0.175746  -0.144691  0  4.009915  0
C  C184  1  0.43252304  0.41743075  0.10188350  1  -0.031778  0  -0.241928  -0.355397  0  3.968447  0
C  C185  1  0.55928028  0.06684334  0.17759716  1  0.447648  0  -0.068424  0.027852  0  3.94226  0
C  C186  1  0.48341591  0.12873901  0.22206230  1  -0.006916  0  -0.173785  -0.143858  0  3.994302  0
C  C187  1  0.37871892  0.24496938  0.20882400  1  -0.074664  0  -0.243823  -0.35432  0  3.975618  0
C  C188  1  0.97878152  0.45453052  0.15857252  1  0.413093  0  -0.074646  0.020358  0  3.934515  0
C  C189  1  0.08351828  0.45005244  0.18480894  1  0.002876  0  -0.177739  -0.151925  0  4.011942  0
C  C190  1  0.15546176  0.48072273  0.15131782  1  -0.082857  0  -0.245197  -0.353712  0  3.968569  0
O  O191  1  0.83686445  0.47051923  0.44336574  1  -1.211728  0  -0.210184  -0.559657  0  2.290169  0
O  O192  1  0.48753554  0.66627129  0.44689038  1  -1.25344  0  -0.230244  -0.594726  0  2.239584  0
O  O193  1  0.68001641  0.84311282  0.45323623  1  -1.255354  0  -0.241251  -0.601828  0  2.232446  0
O  O194  1  0.84109917  0.98819394  0.04109406  1  -1.218015  0  -0.212463  -0.566335  0  2.28896  0
O  O195  1  0.01320948  0.18809429  0.02895047  1  -1.256503  0  -0.245879  -0.609364  0  2.216211  0
O  O196  1  0.19965496  0.82078000  0.03156564  1  -1.248187  0  -0.232292  -0.597333  0  2.239519  0
O  O197  1  0.84713622  0.66781438  0.44652966  1  -1.224837  0  -0.210766  -0.563985  0  2.287125  0
O  O198  1  0.66707634  0.46497500  0.45128820  1  -1.251922  0  -0.24289  -0.604944  0  2.229351  0
O  O199  1  0.49166829  0.83410784  0.44896443  1  -1.243133  0  -0.231743  -0.596833  0  2.240839  0
O  O200  1  0.83983944  0.46570271  0.54637798  1  -1.249006  0  -0.211221  -0.553116  0  2.354559  0
O  O201  1  0.47686890  0.67158864  0.54365862  1  -1.260739  0  -0.234081  -0.597002  0  2.294995  0
O  O202  1  0.67522566  0.83962514  0.54937741  1  -1.280197  0  -0.251483  -0.616504  0  2.283067  0
O  O203  1  0.84306022  0.66591259  0.55022404  1  -1.250165  0  -0.213403  -0.562953  0  2.368964  0
O  O204  1  0.66170199  0.47722832  0.54729478  1  -1.272568  0  -0.249184  -0.615698  0  2.292845  0
O  O205  1  0.48514830  0.83632541  0.54562216  1  -1.266957  0  -0.234268  -0.598987  0  2.306156  0
O  O206  1  0.68130222  0.65089507  0.49753377  1  -1.607103  0  -0.39164  -1.269215  0  2.291333  0
O  O207  1  0.83805154  0.97149227  0.93785695  1  -1.248987  0  -0.211452  -0.560044  0  2.373724  0
O  O208  1  0.00914892  0.17382876  0.93108616  1  -1.27721  0  -0.251357  -0.619502  0  2.28378  0
O  O209  1  0.19390325  0.81754890  0.93500115  1  -1.258682  0  -0.234022  -0.596772  0  2.304052  0
O  O210  1  0.83845185  0.17008772  0.93037823  1  -1.245677  0  -0.211026  -0.551616  0  2.353241  0
O  O211  1  0.19936254  0.98382500  0.93503676  1  -1.2604  0  -0.236213  -0.600251  0  2.300821  0
O  O212  1  0.01069728  0.80247015  0.93772257  1  -1.275328  0  -0.250772  -0.614897  0  2.269921  0
O  O213  1  0.00010547  0.00060490  0.98442270  1  -1.611547  0  -0.391598  -1.268008  0  2.288934  0
O  O214  1  0.84074572  0.18731951  0.03421389  1  -1.214302  0  -0.210725  -0.56737  0  2.307662  0
O  O215  1  0.19676915  0.99215391  0.03099612  1  -1.247929  0  -0.229168  -0.591909  0  2.252018  0
O  O216  1  0.01001093  0.81410569  0.03509618  1  -1.26562  0  -0.247038  -0.614485  0  2.230571  0
O  O217  1  0.17076196  0.86233961  0.29607990  1  -1.157935  0  -0.414064  -0.520929  0  2.271466  0
O  O218  1  0.92970042  0.94089326  0.30932754  1  -1.100277  0  -0.383402  -0.490994  0  2.255159  0
O  O219  1  0.00039542  0.13714374  0.30198054  1  -1.109288  0  -0.393522  -0.497609  0  2.225034  0
O  O220  1  0.47746103  0.62779921  0.18142806  1  -1.043376  0  -0.230423  -0.26438  0  2.456631  0
O  O221  1  0.65348177  0.95326587  0.18714843  1  -1.056277  0  -0.228125  -0.258357  0  2.476788  0
O  O222  1  0.89382346  0.45645961  0.19165563  1  -1.053778  0  -0.231586  -0.259561  0  2.447622  0
O  O223  1  0.00379879  0.48282498  0.49891205  1  -1.373442  0  -0.582217  -1.002616  0  1.793545  0
O  O224  1  0.67615374  0.16087040  0.98434357  1  -1.355439  0  -0.583604  -1.003016  0  1.794556  0
