# generated using pymatgen
data_Zn4H9C27O16F9
_symmetry_space_group_name_H-M   'P 1'
_cell_length_a   18.30187353
_cell_length_b   18.37372343
_cell_length_c   18.45490893
_cell_angle_alpha   90.06429439
_cell_angle_beta   120.11346666
_cell_angle_gamma   119.38566875
_symmetry_Int_Tables_number   1
_chemical_formula_structural   Zn4H9C27O16F9
_chemical_formula_sum   'Zn8 H18 C54 O32 F18'
_cell_volume   4418.65448110
_cell_formula_units_Z   2
loop_
 _symmetry_equiv_pos_site_id
 _symmetry_equiv_pos_as_xyz
  1  'x, y, z'
loop_
 _atom_site_type_symbol
 _atom_site_label
 _atom_site_symmetry_multiplicity
 _atom_site_fract_x
 _atom_site_fract_y
 _atom_site_fract_z
 _atom_site_occupancy
 _atom_site_pbe_bader_charge
 _atom_site_pbe_bader_spin_density
 _atom_site_pbe_cm5_charge
 _atom_site_pbe_ddec_charge
 _atom_site_pbe_ddec_spin_density
 _atom_site_pbe_ddec_sum_bond_order
 _atom_site_pbe_magmom
Zn  Zn0  1  0.88906700  0.85273179  0.93146195  1  1.301244  0  0.67518  0.961217  0  2.389565  0
Zn  Zn1  1  0.06279817  0.02379683  0.93097818  1  1.327633  0  0.674871  0.964187  0  2.375063  0
Zn  Zn2  1  0.06237879  0.02427553  0.10427385  1  1.303294  0  0.672762  0.95919  0  2.389272  0
Zn  Zn3  1  0.88785699  0.02669798  0.93067630  1  1.317018  0  0.674604  0.965776  0  2.365167  0
Zn  Zn4  1  0.06110462  0.61254514  0.51672767  1  1.300554  0  0.673846  0.970363  0  2.343355  0
Zn  Zn5  1  0.88604050  0.43420781  0.51543905  1  1.319771  0  0.676086  0.970726  0  2.353779  0
Zn  Zn6  1  0.06349508  0.43809213  0.51577429  1  1.330439  0  0.679386  0.973154  0  2.361224  0
Zn  Zn7  1  0.88928095  0.43951627  0.34594219  1  1.312126  0  0.680886  0.968233  0  2.392641  0
H  H8  1  0.09286358  0.89108936  0.77316194  1  0.110832  0  0.114353  0.122222  0  0.983398  0
H  H9  1  0.08634779  0.79101338  0.67422433  1  0.11354  0  0.114308  0.121633  0  0.986829  0
H  H10  1  0.85048655  0.66319658  0.76737818  1  0.110458  0  0.119793  0.146892  0  0.978668  0
H  H11  1  0.09870545  0.89357362  0.29240623  1  0.108689  0  0.112823  0.11993  0  0.986697  0
H  H12  1  0.09507977  0.79430990  0.38569377  1  0.12974  0  0.113822  0.120736  0  0.987347  0
H  H13  1  0.84555756  0.66537999  0.05856386  1  0.100916  0  0.119756  0.14717  0  0.97822  0
H  H14  1  0.56479862  0.89586699  0.77741927  1  0.115233  0  0.113733  0.120926  0  0.98551  0
H  H15  1  0.37268212  0.79524630  0.68069714  1  0.113155  0  0.113821  0.120936  0  0.985639  0
H  H16  1  0.57782711  0.66926525  0.76092069  1  0.126193  0  0.119999  0.146929  0  0.976679  0
H  H17  1  0.38042346  0.18679327  0.29269259  1  0.100159  0  0.113442  0.120775  0  0.98542  0
H  H18  1  0.57276098  0.28240845  0.38642064  1  0.116223  0  0.115183  0.122967  0  0.982104  0
H  H19  1  0.37842460  0.16847949  0.05915790  1  0.121531  0  0.119288  0.145701  0  0.978035  0
H  H20  1  0.86180046  0.18960293  0.77211397  1  0.114372  0  0.114199  0.122189  0  0.984173  0
H  H21  1  0.86539759  0.28446831  0.67481864  1  0.120228  0  0.113485  0.122526  0  0.989421  0
H  H22  1  0.09629205  0.18323096  0.77732722  1  0.14064  0  0.118093  0.144835  0  0.980045  0
H  H23  1  0.08721591  0.17816874  0.29414334  1  0.102513  0  0.113659  0.121033  0  0.9857  0
H  H24  1  0.08727054  0.27747995  0.38769034  1  0.08623  0  0.114549  0.124361  0  0.985018  0
H  H25  1  0.87300305  0.19716276  0.06001038  1  0.152327  0  0.118818  0.145227  0  0.978612  0
C  C26  1  0.97506764  0.84201640  0.83565096  1  1.570967  0  0.231761  0.604888  0  4.162759  0
C  C27  1  0.97259897  0.78344785  0.77679248  1  -0.006392  0  -0.006468  -0.003911  0  3.968604  0
C  C28  1  0.03895536  0.81961971  0.75026037  1  -0.055883  0  -0.076516  -0.095657  0  3.96235  0
C  C29  1  0.03520651  0.76415252  0.69535914  1  0.020185  0  -0.073058  -0.068774  0  3.962694  0
C  C30  1  0.96581853  0.67178857  0.66504862  1  0.006093  0  -0.010177  -0.119157  0  3.906248  0
C  C31  1  0.96722610  0.61655181  0.60626922  1  1.593641  0  0.231774  0.624349  0  4.149251  0
C  C32  1  0.89970176  0.63705094  0.69248706  1  0.374587  0  0.092242  0.267625  0  3.971521  0
C  C33  1  0.90272522  0.69172115  0.74750273  1  0.076485  0  -0.080756  -0.193412  0  3.926238  0
C  C34  1  0.84418069  0.49608426  0.71094448  1  2.316356  0  0.377876  0.883478  0  4.068838  0
C  C35  1  0.97456347  0.84322610  0.11296062  1  1.543331  0  0.231439  0.605988  0  4.160119  0
C  C36  1  0.97276234  0.78556316  0.16990374  1  0.014559  0  -0.007509  -0.004531  0  3.974  0
C  C37  1  0.04293954  0.82224137  0.26228998  1  0.014385  0  -0.077642  -0.096524  0  3.968663  0
C  C38  1  0.04077376  0.76725161  0.31382806  1  -0.058717  0  -0.073845  -0.070869  0  3.969529  0
C  C39  1  0.96909085  0.67509769  0.27548460  1  0.031348  0  -0.009757  -0.116866  0  3.909432  0
C  C40  1  0.97342696  0.61981830  0.33522760  1  1.564403  0  0.231029  0.621108  0  4.156544  0
C  C41  1  0.89800643  0.63997482  0.18257133  1  0.386095  0  0.093633  0.267814  0  3.970755  0
C  C42  1  0.90025906  0.69417466  0.13025895  1  0.082234  0  -0.081432  -0.19399  0  3.932425  0
C  C43  1  0.72890321  0.51470737  0.11522184  1  2.305579  0  0.378654  0.88263  0  4.066543  0
C  C44  1  0.69802238  0.84685179  0.83429955  1  1.509094  0  0.231485  0.605115  0  4.161973  0
C  C45  1  0.58328218  0.78888933  0.77558520  1  0.008545  0  -0.007675  -0.005266  0  3.969101  0
C  C46  1  0.52547834  0.82461077  0.75253613  1  0.050333  0  -0.076288  -0.094515  0  3.964959  0
C  C47  1  0.41896045  0.76878567  0.69885516  1  -0.033352  0  -0.073479  -0.071625  0  3.964585  0
C  C48  1  0.36710130  0.67668365  0.66620567  1  -0.013352  0  -0.009184  -0.115655  0  3.906515  0
C  C49  1  0.25190055  0.62038267  0.61091614  1  1.598815  0  0.231109  0.622434  0  4.153013  0
C  C50  1  0.42702937  0.64259562  0.68872816  1  0.314991  0  0.092614  0.26755  0  3.962076  0
C  C51  1  0.53343614  0.69748415  0.74338371  1  0.078762  0  -0.081092  -0.19228  0  3.923976  0
C  C52  1  0.36829546  0.51762888  0.58561038  1  2.316618  0  0.378471  0.881661  0  4.0672  0
C  C53  1  0.25293006  0.11639505  0.11303258  1  1.533278  0  0.231855  0.605706  0  4.164861  0
C  C54  1  0.36758544  0.17207354  0.17027140  1  0.000525  0  -0.008341  -0.007233  0  3.975096  0
C  C55  1  0.42234593  0.20372744  0.26267741  1  -0.01968  0  -0.076035  -0.094369  0  3.963448  0
C  C56  1  0.52891046  0.25663803  0.31452642  1  -0.006301  0  -0.072384  -0.069034  0  3.959841  0
C  C57  1  0.58367317  0.27925993  0.27631790  1  0.023809  0  -0.009026  -0.116194  0  3.910575  0
C  C58  1  0.69848029  0.33955846  0.33602469  1  1.60452  0  0.230277  0.619883  0  4.15933  0
C  C59  1  0.52692289  0.24513613  0.18338735  1  0.355789  0  0.092747  0.265313  0  3.967203  0
C  C60  1  0.42040681  0.19291127  0.13085236  1  0.095043  0  -0.08141  -0.191808  0  3.929886  0
C  C61  1  0.59017199  0.20659884  0.11689166  1  2.32021  0  0.3777  0.877769  0  4.074837  0
C  C62  1  0.97689843  0.12233101  0.83746986  1  1.539768  0  0.232428  0.606824  0  4.159458  0
C  C63  1  0.97866539  0.18041060  0.78069448  1  -0.018616  0  -0.007792  -0.005691  0  3.969633  0
C  C64  1  0.91361453  0.20917269  0.75198937  1  0.020636  0  -0.075397  -0.093833  0  3.960914  0
C  C65  1  0.91559610  0.26167479  0.69795274  1  -0.011618  0  -0.072009  -0.068011  0  3.955811  0
C  C66  1  0.98168157  0.28707329  0.67099162  1  -0.052638  0  -0.009525  -0.116793  0  3.903909  0
C  C67  1  0.97736583  0.34227100  0.61095561  1  1.577948  0  0.231393  0.622001  0  4.149152  0
C  C68  1  0.04723895  0.25820658  0.70161725  1  0.402292  0  0.091844  0.265994  0  3.974005  0
C  C69  1  0.04559588  0.20534654  0.75530907  1  0.0556  0  -0.082413  -0.194489  0  3.932909  0
C  C70  1  0.21194580  0.34644387  0.73007833  1  2.313287  0  0.377952  0.883003  0  4.0715  0
C  C71  1  0.97700648  0.12104722  0.11419692  1  1.581226  0  0.231557  0.607089  0  4.162234  0
C  C72  1  0.97933835  0.18084389  0.17144457  1  -0.029805  0  -0.008206  -0.006848  0  3.97614  0
C  C73  1  0.04059545  0.20400984  0.26396580  1  0.001867  0  -0.076353  -0.09491  0  3.96236  0
C  C74  1  0.04066495  0.25904966  0.31569928  1  0.02917  0  -0.071119  -0.067409  0  3.954226  0
C  C75  1  0.98055966  0.29254023  0.27714245  1  0.020513  0  -0.009171  -0.115202  0  3.911207  0
C  C76  1  0.97994196  0.34753322  0.33655898  1  1.59037  0  0.230674  0.619424  0  4.158359  0
C  C77  1  0.92198317  0.27039572  0.18419028  1  0.386145  0  0.092771  0.265604  0  3.972098  0
C  C78  1  0.92017900  0.21447720  0.13177304  1  0.006659  0  -0.082446  -0.193253  0  3.936897  0
C  C79  1  0.89921538  0.37419378  0.11848172  1  2.312509  0  0.378114  0.877144  0  4.072428  0
O  O80  1  0.97540530  0.98241706  0.97413329  1  -1.210969  0  -0.571346  -1.030159  0  2.538982  0
O  O81  1  0.03693250  0.92524852  0.85697419  1  -1.170709  0  -0.310808  -0.542325  0  2.333286  0
O  O82  1  0.91486259  0.80353420  0.85941276  1  -1.170431  0  -0.311079  -0.539183  0  2.337442  0
O  O83  1  0.89876148  0.53380008  0.57306677  1  -1.168952  0  -0.312239  -0.542787  0  2.382988  0
O  O84  1  0.03834289  0.65854344  0.59455957  1  -1.1663  0  -0.312568  -0.545424  0  2.320773  0
O  O85  1  0.82355780  0.54608484  0.66050467  1  -1.083887  0  -0.172116  -0.348665  0  2.52923  0
O  O86  1  0.03937376  0.92639579  0.15280771  1  -1.178373  0  -0.311724  -0.543266  0  2.340224  0
O  O87  1  0.91113263  0.80431148  0.02926619  1  -1.165092  0  -0.310977  -0.539172  0  2.336599  0
O  O88  1  0.92448717  0.53720391  0.29930189  1  -1.151323  0  -0.308561  -0.532514  0  2.388833  0
O  O89  1  0.02786161  0.66113219  0.41810177  1  -1.171133  0  -0.312596  -0.547091  0  2.315944  0
O  O90  1  0.82551483  0.54868966  0.13896565  1  -1.083511  0  -0.167994  -0.342  0  2.550682  0
O  O91  1  0.74075928  0.93024858  0.85759182  1  -1.150876  0  -0.310669  -0.541972  0  2.325194  0
O  O92  1  0.74329494  0.80747312  0.85596331  1  -1.160194  0  -0.311525  -0.54038  0  2.345561  0
O  O93  1  0.20713089  0.53787990  0.59845682  1  -1.151898  0  -0.309787  -0.536648  0  2.382607  0
O  O94  1  0.20856669  0.66119553  0.58223207  1  -1.158771  0  -0.312913  -0.547113  0  2.314694  0
O  O95  1  0.38152849  0.55131173  0.65998838  1  -1.077718  0  -0.169039  -0.34579  0  2.533853  0
O  O96  1  0.20889120  0.09691202  0.15277887  1  -1.183389  0  -0.311309  -0.541362  0  2.342072  0
O  O97  1  0.20897912  0.09316922  0.02935286  1  -1.153759  0  -0.311493  -0.540425  0  2.334626  0
O  O98  1  0.74488512  0.37853429  0.30080619  1  -1.160906  0  -0.308897  -0.533908  0  2.383804  0
O  O99  1  0.74023420  0.34815188  0.41837587  1  -1.170112  0  -0.310908  -0.542562  0  2.312299  0
O  O100  1  0.57558081  0.26607455  0.13988669  1  -1.087586  0  -0.167062  -0.33905  0  2.545595  0
O  O101  1  0.91454174  0.10132768  0.85887687  1  -1.170776  0  -0.311136  -0.542262  0  2.329726  0
O  O102  1  0.03783284  0.09843418  0.85928854  1  -1.160157  0  -0.312087  -0.541983  0  2.338848  0
O  O103  1  0.02442593  0.35310679  0.57525066  1  -1.160425  0  -0.310919  -0.538404  0  2.371959  0
O  O104  1  0.92473249  0.37317336  0.60000387  1  -1.149272  0  -0.31104  -0.543646  0  2.332465  0
O  O105  1  0.11211344  0.27681382  0.67464081  1  -1.080944  0  -0.173423  -0.349558  0  2.527123  0
O  O106  1  0.03696481  0.09640187  0.15384449  1  -1.170248  0  -0.311457  -0.541799  0  2.341213  0
O  O107  1  0.91529960  0.09982430  0.03053275  1  -1.174252  0  -0.312903  -0.543423  0  2.337405  0
O  O108  1  0.90590938  0.35634050  0.30120905  1  -1.163784  0  -0.31028  -0.536542  0  2.384375  0
O  O109  1  0.05323963  0.37926617  0.41884797  1  -1.163447  0  -0.309071  -0.539724  0  2.328661  0
O  O110  1  0.85964453  0.30077632  0.14045358  1  -1.075908  0  -0.168643  -0.34228  0  2.551487  0
O  O111  1  0.97685901  0.48302581  0.47594560  1  -1.216046  0  -0.573903  -1.034342  0  2.541592  0
F  F112  1  0.93957692  0.51493716  0.74659133  1  -0.612394  0  -0.107912  -0.242428  0  1.258447  0
F  F113  1  0.77383548  0.41043684  0.65887882  1  -0.611623  0  -0.101312  -0.223664  0  1.242198  0
F  F114  1  0.83725520  0.50580956  0.78045154  1  -0.605526  0  -0.120898  -0.259021  0  1.216952  0
F  F115  1  0.72708084  0.53812890  0.18431612  1  -0.60748  0  -0.115281  -0.249436  0  1.237467  0
F  F116  1  0.67553535  0.42626916  0.08422255  1  -0.598927  0  -0.091853  -0.209222  0  1.298028  0
F  F117  1  0.67892765  0.54192183  0.04997684  1  -0.610892  0  -0.120984  -0.261936  0  1.224929  0
F  F118  1  0.32264951  0.54343075  0.51676598  1  -0.614313  0  -0.11231  -0.246922  0  1.247115  0
F  F119  1  0.30905737  0.42880506  0.56112651  1  -0.614719  0  -0.095659  -0.216646  0  1.268972  0
F  F120  1  0.45907208  0.54217890  0.59882419  1  -0.607846  0  -0.122402  -0.261818  0  1.220387  0
F  F121  1  0.64182850  0.18513686  0.18712682  1  -0.614931  0  -0.115229  -0.24715  0  1.239522  0
F  F122  1  0.64423593  0.24204256  0.08258472  1  -0.605117  0  -0.091577  -0.208068  0  1.302309  0
F  F123  1  0.49971412  0.12826044  0.05441250  1  -0.612865  0  -0.123493  -0.264867  0  1.227524  0
F  F124  1  0.22316341  0.42337843  0.75406367  1  -0.607318  0  -0.110845  -0.241937  0  1.248974  0
F  F125  1  0.25668931  0.35668199  0.68772620  1  -0.607298  0  -0.09655  -0.216305  0  1.280084  0
F  F126  1  0.26444303  0.33298265  0.80738357  1  -0.614274  0  -0.119934  -0.26001  0  1.225893  0
F  F127  1  0.98896670  0.44548101  0.19009830  1  -0.612849  0  -0.114858  -0.246688  0  1.240909  0
F  F128  1  0.82961456  0.39390688  0.08079457  1  -0.609622  0  -0.092493  -0.208569  0  1.295292  0
F  F129  1  0.92015932  0.36220490  0.05946078  1  -0.608132  0  -0.121578  -0.261669  0  1.227513  0
