# generated using pymatgen
data_Zr3H43C62N3O16
_symmetry_space_group_name_H-M   'P 1'
_cell_length_a   14.91324210
_cell_length_b   23.56040549
_cell_length_c   40.71765557
_cell_angle_alpha   86.14033186
_cell_angle_beta   82.21918992
_cell_angle_gamma   90.04409706
_symmetry_Int_Tables_number   1
_chemical_formula_structural   Zr3H43C62N3O16
_chemical_formula_sum   'Zr6 H86 C124 N6 O32'
_cell_volume   14142.06360625
_cell_formula_units_Z   2
loop_
 _symmetry_equiv_pos_site_id
 _symmetry_equiv_pos_as_xyz
  1  'x, y, z'
loop_
 _atom_site_type_symbol
 _atom_site_label
 _atom_site_symmetry_multiplicity
 _atom_site_fract_x
 _atom_site_fract_y
 _atom_site_fract_z
 _atom_site_occupancy
 _atom_site_pbe_bader_charge
 _atom_site_pbe_bader_spin_density
 _atom_site_pbe_cm5_charge
 _atom_site_pbe_ddec_charge
 _atom_site_pbe_ddec_spin_density
 _atom_site_pbe_ddec_sum_bond_order
 _atom_site_pbe_magmom
Zr  Zr0  1  0.95155423  0.08174355  0.04136742  1  2.631193  0  1.581314  2.37052  0  2.775192  0
Zr  Zr1  1  0.98732705  0.91754155  0.96628879  1  2.630342  0  1.583158  2.371956  0  2.768781  0
Zr  Zr2  1  0.06985317  0.95138421  0.04151409  1  2.621396  0  1.5733  2.381096  0  2.754582  0
Zr  Zr3  1  0.86932442  0.04806173  0.96769791  1  2.60013  0  1.558013  2.347946  0  2.787761  0
Zr  Zr4  1  0.10799642  0.04734620  0.96937607  1  2.616565  0  1.543656  2.381469  0  2.780856  0
Zr  Zr5  1  0.83374432  0.94923580  0.03714792  1  2.62172  0  1.561004  2.378092  0  2.733317  0
H  H6  1  0.98678147  0.14075752  0.97209194  1  0.590846  0  0.323145  0.419077  0  0.876236  0
H  H7  1  0.17077145  0.93552998  0.97717687  1  0.606141  0  0.328643  0.422564  0  0.860279  0
H  H8  1  0.79722657  0.93933359  0.96992833  1  0.607038  0  0.33168  0.427848  0  0.852243  0
H  H9  1  0.91611321  0.98661321  0.08919107  1  0.577052  0  0.326923  0.418614  0  0.864248  0
H  H10  1  0.26607933  0.06831911  0.99395402  1  0.597881  0  0.323026  0.411486  0  0.878222  0
H  H11  1  0.01668853  0.90451010  0.10680543  1  0.609004  0  0.323076  0.403853  0  0.882962  0
H  H12  1  0.81840161  0.85416628  0.07580177  1  0.591127  0  0.295495  0.387956  0  0.916112  0
H  H13  1  0.15703609  0.14144174  0.93111722  1  0.594822  0  0.284061  0.389607  0  0.916362  0
H  H14  1  0.86175306  0.09279641  0.90531362  1  0.639087  0  0.325465  0.415207  0  0.885953  0
H  H15  1  0.69262579  0.07181139  0.97908459  1  0.592399  0  0.296566  0.387785  0  0.917499  0
H  H16  1  0.65729178  0.93583609  0.01841246  1  0.605509  0  0.320352  0.404998  0  0.883267  0
H  H17  1  0.18173127  0.02688406  0.90724211  1  0.619615  0  0.318669  0.418104  0  0.873487  0
H  H18  1  0.14466148  0.96209837  0.92136076  1  0.661704  0  0.281404  0.400168  0  0.940445  0
H  H19  1  0.86489651  0.09130196  0.10344149  1  0.593846  0  0.292835  0.382189  0  0.925199  0
H  H20  1  0.69440619  0.00943663  0.06899440  1  0.608743  0  0.316289  0.408168  0  0.886903  0
H  H21  1  0.83431956  0.14430372  0.92847598  1  0.645578  0  0.329817  0.415496  0  0.877253  0
H  H22  1  0.12548934  0.87394533  0.92842586  1  0.592973  0  0.290515  0.380086  0  0.929718  0
H  H23  1  0.24698028  0.92570871  0.03344673  1  0.587208  0  0.295719  0.384955  0  0.918556  0
H  H24  1  0.23863914  0.00292123  0.00834044  1  0.639977  0  0.277824  0.402948  0  0.940576  0
H  H25  1  0.69967647  0.99990924  0.00126020  1  0.629198  0  0.271644  0.402988  0  0.944981  0
H  H26  1  0.93795865  0.88729574  0.08479866  1  0.633569  0  0.279859  0.403804  0  0.93842  0
H  H27  1  0.78357156  0.03821447  0.08082954  1  0.654975  0  0.279459  0.405579  0  0.934918  0
H  H28  1  0.63318041  0.50285160  0.00071166  1  0.023357  0  0.101653  0.106249  0  1.007372  0
H  H29  1  0.29912713  0.49737292  0.00774534  1  0.080801  0  0.102428  0.108288  0  1.003652  0
H  H30  1  0.36300450  0.99125256  0.49809027  1  0.038655  0  0.10129  0.103078  0  1.019841  0
H  H31  1  0.68518252  0.00556402  0.50944092  1  0.09227  0  0.101047  0.104443  0  1.013137  0
H  H32  1  0.33753517  0.90116190  0.51571613  1  0.050129  0  0.102084  0.103932  0  1.001811  0
H  H33  1  0.19974360  0.86393589  0.55101533  1  0.032272  0  0.103662  0.104375  0  0.991252  0
H  H34  1  0.42771629  0.97487195  0.59983661  1  0.047998  0  0.096123  0.098882  0  1.057514  0
H  H35  1  0.33808350  0.95923268  0.65535066  1  0.048797  0  0.103386  0.106302  0  0.990143  0
H  H36  1  0.19100794  0.93153795  0.68939265  1  0.100861  0  0.104921  0.107815  0  1.009074  0
H  H37  1  0.09562027  0.86595616  0.60427349  1  0.066821  0  0.104784  0.105556  0  1.015723  0
H  H38  1  0.87858746  0.82748425  0.61640605  1  0.067552  0  0.104031  0.106195  0  1.002297  0
H  H39  1  0.77390484  0.83412891  0.57374732  1  0.066735  0  0.10266  0.103331  0  0.994009  0
H  H40  1  0.74499131  0.96679846  0.66521732  1  0.073599  0  0.105056  0.108663  0  1.001691  0
H  H41  1  0.62622192  0.02061101  0.63814272  1  0.047995  0  0.102859  0.103736  0  0.993092  0
H  H42  1  0.54372941  0.03827406  0.58977465  1  0.041485  0  0.103384  0.104611  0  0.991904  0
H  H43  1  0.66145494  0.88940900  0.54627173  1  0.048996  0  0.102135  0.106511  0  0.999338  0
H  H44  1  0.02865963  0.99172446  0.39099130  1  0.098612  0  0.104457  0.107986  0  1.007605  0
H  H45  1  0.90167451  0.96017128  0.43453794  1  0.037263  0  0.10271  0.10401  0  0.992562  0
H  H46  1  0.85976346  0.11864814  0.35007988  1  0.062797  0  0.105752  0.109512  0  0.998158  0
H  H47  1  0.70425902  0.13592554  0.38149327  1  0.065811  0  0.103185  0.104334  0  0.991967  0
H  H48  1  0.58463642  0.10971910  0.42775125  1  0.083282  0  0.101029  0.105202  0  1.011979  0
H  H49  1  0.74752883  0.97206650  0.46119146  1  0.055369  0  0.100388  0.102129  0  1.012722  0
H  H50  1  0.35000141  0.01323802  0.31268976  1  0.0814  0  0.104543  0.107379  0  0.995605  0
H  H51  1  0.46735723  0.99141041  0.34934179  1  0.062807  0  0.10298  0.106173  0  0.99392  0
H  H52  1  0.20762810  0.11447002  0.38659061  1  0.075384  0  0.106201  0.107731  0  1.008948  0
H  H53  1  0.26992472  0.13090564  0.43740752  1  0.06428  0  0.105701  0.10744  0  0.987209  0
H  H54  1  0.37117604  0.09747728  0.47827062  1  0.06556  0  0.102695  0.106282  0  0.995839  0
H  H55  1  0.51443086  0.99123891  0.40695503  1  0.083601  0  0.103951  0.112009  0  0.994677  0
H  H56  1  0.84154236  0.24606659  0.04704463  1  0.099234  0  0.111641  0.121195  0  0.991509  0
H  H57  1  0.76508780  0.33952136  0.05317195  1  0.055649  0  0.103032  0.104446  0  0.994139  0
H  H58  1  0.69205628  0.21187842  0.96731853  1  0.058735  0  0.099215  0.099256  0  1.015188  0
H  H59  1  0.58046925  0.28231167  0.94966277  1  0.047631  0  0.103026  0.103665  0  0.991582  0
H  H60  1  0.49802903  0.37229021  0.95786698  1  0.069064  0  0.102678  0.105888  0  1.00052  0
H  H61  1  0.65099471  0.40835611  0.03665692  1  0.055505  0  0.102034  0.10613  0  1.002148  0
H  H62  1  0.09612828  0.75808399  0.06268345  1  0.069478  0  0.108521  0.115362  0  0.986699  0
H  H63  1  0.17180582  0.66465107  0.06973953  1  0.057175  0  0.101661  0.101783  0  0.996776  0
H  H64  1  0.22720133  0.78080235  0.96174223  1  0.036407  0  0.102137  0.10386  0  1.001834  0
H  H65  1  0.34905645  0.71415118  0.94148377  1  0.042144  0  0.103304  0.104285  0  0.991615  0
H  H66  1  0.43734232  0.62696080  0.95092539  1  0.059847  0  0.102107  0.105442  0  0.994841  0
H  H67  1  0.28202532  0.59332914  0.04743396  1  0.029208  0  0.100884  0.105252  0  1.00042  0
H  H68  1  0.46529509  0.63096552  0.04788719  1  0.050633  0  0.101058  0.104206  0  1.008458  0
H  H69  1  0.54293678  0.72122927  0.05429914  1  0.065279  0  0.104053  0.104739  0  0.989305  0
H  H70  1  0.66544165  0.59561063  0.96525575  1  0.038277  0  0.101619  0.105609  0  1.003049  0
H  H71  1  0.79194896  0.66397748  0.94704994  1  0.067296  0  0.102698  0.103896  0  0.993867  0
H  H72  1  0.86968057  0.75535309  0.95354418  1  0.120581  0  0.110622  0.119017  0  0.991048  0
H  H73  1  0.66892174  0.79043763  0.03557511  1  0.083923  0  0.103235  0.106942  0  1.00774  0
H  H74  1  0.43965051  0.36296275  0.05310309  1  0.072975  0  0.102021  0.105556  0  1.000132  0
H  H75  1  0.35528428  0.27193044  0.06442157  1  0.078394  0  0.104262  0.105158  0  0.991778  0
H  H76  1  0.28787320  0.40988793  0.97279978  1  0.046844  0  0.100138  0.103315  0  1.003965  0
H  H77  1  0.17457527  0.34291945  0.95791345  1  0.048344  0  0.10187  0.101489  0  0.996122  0
H  H78  1  0.09735018  0.24902442  0.96662424  1  0.034951  0  0.101671  0.100874  0  0.994404  0
H  H79  1  0.24036244  0.20465946  0.04989072  1  0.061951  0  0.107044  0.112658  0  0.988767  0
H  H80  1  0.77178471  0.02411506  0.86550391  1  0.067935  0  0.101103  0.101675  0  1.005256  0
H  H81  1  0.76733777  0.01386453  0.80531475  1  0.062473  0  0.10229  0.103308  0  0.993779  0
H  H82  1  0.96963214  0.89200242  0.86773023  1  0.098149  0  0.11212  0.122358  0  0.998929  0
H  H83  1  0.02959410  0.84753234  0.81583481  1  0.066582  0  0.106705  0.109095  0  0.986042  0
H  H84  1  0.03812001  0.84455074  0.75443367  1  0.090711  0  0.104764  0.107413  0  1.004958  0
H  H85  1  0.82611027  0.96809616  0.75286652  1  0.080298  0  0.105601  0.109993  0  1.001193  0
H  H86  1  0.97341420  0.13752158  0.26143996  1  0.092884  0  0.103615  0.105425  0  1.007793  0
H  H87  1  0.95062704  0.14194489  0.20184726  1  0.065885  0  0.104003  0.105077  0  0.990562  0
H  H88  1  0.21095203  0.03581413  0.24047879  1  0.112853  0  0.105402  0.10845  0  1.008894  0
H  H89  1  0.25160452  0.00134750  0.18378503  1  0.057612  0  0.104255  0.10608  0  0.990542  0
H  H90  1  0.21280099  0.99235862  0.12659258  1  0.106121  0  0.108782  0.116831  0  0.991438  0
H  H91  1  0.99203952  0.10809011  0.14519626  1  0.039286  0  0.105403  0.108995  0  1.004268  0
C  C92  1  0.12018916  0.16367925  0.01138988  1  1.586354  0  0.23501  0.645202  0  4.130873  0
C  C93  1  0.81830256  0.16796796  0.00407871  1  1.528554  0  0.225997  0.628347  0  4.129431  0
C  C94  1  0.07257488  0.04024893  0.09963450  1  1.556457  0  0.227985  0.63001  0  4.136908  0
C  C95  1  0.11042137  0.83025884  0.00797367  1  1.567092  0  0.229855  0.637368  0  4.13164  0
C  C96  1  0.82057910  0.83291469  0.99822035  1  1.547004  0  0.231263  0.635568  0  4.114013  0
C  C97  1  0.87840704  0.96487217  0.90562985  1  1.545701  0  0.233543  0.641077  0  4.112643  0
C  C98  1  0.51571726  0.44896996  0.00270490  1  -0.059881  0  -0.008307  0.02443  0  3.98044  0
C  C99  1  0.41997489  0.44720490  0.00640456  1  0.023154  0  -0.006728  0.029915  0  3.982814  0
C  C100  1  0.37281078  0.49852920  0.00607692  1  -0.049114  0  -0.089655  -0.175776  0  3.973492  0
C  C101  1  0.41696139  0.55129081  0.00372848  1  -0.0455  0  -0.00603  0.029444  0  3.984739  0
C  C102  1  0.51197469  0.55295949  0.00335573  1  -0.026624  0  -0.008237  0.022759  0  3.983633  0
C  C103  1  0.55953161  0.50169181  0.00213383  1  0.015608  0  -0.089061  -0.17323  0  3.967635  0
C  C104  1  0.10204055  0.08076754  0.29004306  1  1.028774  0  0.25507  0.386161  0  3.989237  0
C  C105  1  0.18539623  0.06769307  0.33243863  1  1.102512  0  0.257411  0.391473  0  4.014268  0
C  C106  1  0.03113504  0.07041824  0.34296890  1  1.07116  0  0.258285  0.391223  0  4.028376  0
C  C107  1  0.94409002  0.90404788  0.71372847  1  1.072011  0  0.257092  0.389219  0  4.005566  0
C  C108  1  0.89030639  0.89668114  0.66485333  1  1.086851  0  0.254824  0.386504  0  4.01048  0
C  C109  1  0.04190593  0.89228946  0.66677265  1  1.067901  0  0.256607  0.388948  0  4.029965  0
C  C110  1  0.49318155  0.01783817  0.47350066  1  0.068834  0  -0.006542  0.029875  0  3.973722  0
C  C111  1  0.58673774  0.01943298  0.47577307  1  -0.046228  0  -0.005462  0.032915  0  3.975157  0
C  C112  1  0.61393522  0.00112704  0.50651544  1  -0.055351  0  -0.091689  -0.181372  0  3.968822  0
C  C113  1  0.55483732  0.97887263  0.53406853  1  -0.042802  0  -0.004423  0.033187  0  3.963618  0
C  C114  1  0.46234972  0.97211927  0.53061515  1  0.026096  0  -0.007061  0.027255  0  3.970874  0
C  C115  1  0.43476043  0.99359661  0.50060401  1  -0.106678  0  -0.090835  -0.179642  0  3.980812  0
C  C116  1  0.39107048  0.94327437  0.55497605  1  0.033979  0  -0.007414  0.080105  0  4.000471  0
C  C117  1  0.32604859  0.90956193  0.54195192  1  -0.068826  0  -0.094298  -0.136268  0  4.007276  0
C  C118  1  0.24964787  0.88841443  0.56157841  1  0.061032  0  -0.089435  -0.125826  0  4.01695  0
C  C119  1  0.23305344  0.89923388  0.59571932  1  -0.021256  0  -0.007086  0.074614  0  4.015764  0
C  C120  1  0.30126572  0.92864944  0.60985987  1  -0.033625  0  -0.003774  0.091318  0  3.994468  0
C  C121  1  0.37918041  0.95013770  0.58888217  1  -0.063051  0  -0.089568  -0.182834  0  3.92888  0
C  C122  1  0.28538253  0.93818766  0.64428814  1  -0.0343  0  -0.090995  -0.136738  0  3.993112  0
C  C123  1  0.20428128  0.92296835  0.66321486  1  -0.062245  0  -0.086884  -0.107513  0  3.991419  0
C  C124  1  0.13396951  0.89800631  0.64840909  1  0.04017  0  -0.011732  0.000944  0  3.994639  0
C  C125  1  0.14986739  0.88504058  0.61541621  1  -0.04004  0  -0.075566  -0.140864  0  3.928545  0
C  C126  1  0.81785185  0.89716619  0.64329772  1  0.028776  0  -0.006759  0.012904  0  3.993071  0
C  C127  1  0.82541104  0.85923093  0.61731764  1  -0.034443  0  -0.087365  -0.110409  0  4.01044  0
C  C128  1  0.76810013  0.86340165  0.59357899  1  -0.03795  0  -0.092234  -0.135556  0  4.011362  0
C  C129  1  0.70352544  0.90767059  0.59334651  1  -0.000981  0  -0.004966  0.087817  0  4.004372  0
C  C130  1  0.69423444  0.94530202  0.61987230  1  0.002637  0  -0.006995  0.076406  0  3.999223  0
C  C131  1  0.75072312  0.93785007  0.64521555  1  -0.069138  0  -0.077076  -0.149419  0  3.917954  0
C  C132  1  0.63325102  0.99139709  0.61826580  1  -0.059848  0  -0.08899  -0.128451  0  4.001858  0
C  C133  1  0.58665081  0.00096540  0.59140375  1  -0.023811  0  -0.093157  -0.138187  0  4.013806  0
C  C134  1  0.59593329  0.96401779  0.56491167  1  -0.016883  0  -0.006495  0.080854  0  4.011845  0
C  C135  1  0.65271687  0.91777846  0.56658091  1  -0.033117  0  -0.088573  -0.186757  0  3.946574  0
C  C136  1  0.95087656  0.05671679  0.36782372  1  -0.025589  0  -0.007331  0.01039  0  3.991489  0
C  C137  1  0.96290566  0.01213915  0.39221250  1  -0.00912  0  -0.088447  -0.111644  0  4.009277  0
C  C138  1  0.89309625  0.99524070  0.41634772  1  -0.054951  0  -0.092372  -0.134849  0  4.01805  0
C  C139  1  0.80915536  0.02397189  0.41858533  1  -0.021747  0  -0.007135  0.085823  0  4.022054  0
C  C140  1  0.79716088  0.07009854  0.39474565  1  0.00388  0  -0.007418  0.072996  0  3.999936  0
C  C141  1  0.86876303  0.08447874  0.36878959  1  -0.022771  0  -0.077448  -0.150788  0  3.922613  0
C  C142  1  0.71396369  0.09994758  0.39894884  1  -0.02743  0  -0.090074  -0.127612  0  3.995748  0
C  C143  1  0.64662246  0.08507654  0.42480179  1  -0.099405  0  -0.092607  -0.13211  0  3.998514  0
C  C144  1  0.65706782  0.03812392  0.44791362  1  -0.019633  0  -0.009237  0.074859  0  4.017145  0
C  C145  1  0.73790646  0.00861224  0.44411701  1  -0.005206  0  -0.090685  -0.185727  0  3.953496  0
C  C146  1  0.26962511  0.06432717  0.34798499  1  -0.040384  0  -0.009838  0.006842  0  3.990333  0
C  C147  1  0.34593222  0.03128758  0.33680695  1  0.019221  0  -0.086394  -0.109183  0  3.99291  0
C  C148  1  0.41119432  0.01923717  0.35729824  1  -0.063154  0  -0.092049  -0.142837  0  3.995147  0
C  C149  1  0.40466691  0.04021590  0.38954482  1  -0.045772  0  -0.004905  0.088342  0  3.995138  0
C  C150  1  0.33257337  0.07862418  0.39902838  1  -0.017321  0  -0.010508  0.073899  0  4.020277  0
C  C151  1  0.26624146  0.08918080  0.37799917  1  -0.012919  0  -0.076896  -0.145736  0  3.94867  0
C  C152  1  0.32379626  0.10072733  0.43082096  1  -0.029241  0  -0.088802  -0.124263  0  4.01674  0
C  C153  1  0.37950968  0.08208461  0.45338410  1  -0.086196  0  -0.09551  -0.143834  0  4.023866  0
C  C154  1  0.44782297  0.04112280  0.44525741  1  -0.015544  0  -0.007372  0.07775  0  4.014916  0
C  C155  1  0.46170368  0.02222731  0.41344516  1  -0.019773  0  -0.084991  -0.184467  0  3.934411  0
C  C156  1  0.77137731  0.22377098  0.00655904  1  -0.024809  0  -0.025571  -0.05029  0  4.000156  0
C  C157  1  0.79185536  0.26021271  0.03105398  1  -0.002174  0  -0.085179  -0.090567  0  3.985407  0
C  C158  1  0.74932690  0.31168670  0.03431583  1  -0.067331  0  -0.091421  -0.141105  0  4.006128  0
C  C159  1  0.68354256  0.32938451  0.01367682  1  -0.03606  0  -0.004599  0.091663  0  4.004373  0
C  C160  1  0.66265344  0.29257458  0.98897460  1  -0.005052  0  -0.008979  0.07174  0  4.007001  0
C  C161  1  0.70815164  0.24015124  0.98590618  1  -0.027388  0  -0.083315  -0.141162  0  3.959109  0
C  C162  1  0.59573755  0.30981040  0.96876119  1  0.006595  0  -0.089589  -0.126338  0  4.005071  0
C  C163  1  0.54990078  0.35985476  0.97331876  1  -0.047222  0  -0.090925  -0.129003  0  4.00173  0
C  C164  1  0.56883866  0.39626003  0.99816753  1  -0.07519  0  -0.006006  0.079402  0  4.02386  0
C  C165  1  0.63612341  0.38115189  0.01735315  1  0.008528  0  -0.090421  -0.192621  0  3.947706  0
C  C166  1  0.15631660  0.77417948  0.01142037  1  -0.001482  0  -0.016648  -0.024293  0  3.988165  0
C  C167  1  0.14189663  0.74173228  0.04236800  1  -0.030824  0  -0.087113  -0.10002  0  3.995949  0
C  C168  1  0.18463254  0.69044530  0.04626826  1  -0.013654  0  -0.09293  -0.139232  0  4.009792  0
C  C169  1  0.24805661  0.67085824  0.02032275  1  -0.059877  0  -0.007292  0.083735  0  4.011075  0
C  C170  1  0.26596096  0.70513741  0.98960960  1  0.003844  0  -0.007721  0.076759  0  4.010528  0
C  C171  1  0.21603074  0.75559912  0.98545883  1  -0.061251  0  -0.085073  -0.15409  0  3.956501  0
C  C172  1  0.33460594  0.68785069  0.96472784  1  -0.025278  0  -0.090313  -0.128493  0  4.008478  0
C  C173  1  0.38353094  0.63935811  0.96991479  1  -0.043067  0  -0.092656  -0.132942  0  4.007495  0
C  C174  1  0.36418559  0.60409847  0.99983490  1  0.022364  0  -0.009257  0.07474  0  4.036864  0
C  C175  1  0.29649525  0.61967007  0.02418682  1  -0.009977  0  -0.091129  -0.193218  0  3.958985  0
C  C176  1  0.56018499  0.60719243  0.00580252  1  -0.04066  0  -0.006443  0.080322  0  4.023558  0
C  C177  1  0.52621434  0.64366327  0.03109745  1  0.002535  0  -0.091121  -0.129332  0  3.999183  0
C  C178  1  0.56954721  0.69388482  0.03471412  1  -0.0447  0  -0.088227  -0.123331  0  4.002236  0
C  C179  1  0.64949676  0.71100884  0.01326556  1  -0.02488  0  -0.00897  0.071165  0  4.00959  0
C  C180  1  0.68489103  0.67447426  0.98785070  1  0.024041  0  -0.003982  0.088907  0  4.006635  0
C  C181  1  0.63880000  0.62284616  0.98489967  1  -0.003317  0  -0.090555  -0.190756  0  3.947365  0
C  C182  1  0.76495421  0.69163976  0.96640873  1  -0.097218  0  -0.091846  -0.139972  0  4.00363  0
C  C183  1  0.80819115  0.74207841  0.96984691  1  -0.004253  0  -0.085425  -0.091716  0  3.989382  0
C  C184  1  0.77325584  0.77820672  0.99502624  1  -0.01495  0  -0.024232  -0.049639  0  3.99704  0
C  C185  1  0.69528120  0.76255901  0.01625831  1  -0.080003  0  -0.080743  -0.137564  0  3.944134  0
C  C186  1  0.36900447  0.39267666  0.01202496  1  0.007361  0  -0.010372  0.071492  0  4.038581  0
C  C187  1  0.38761747  0.35270069  0.03799565  1  -0.087878  0  -0.091349  -0.128431  0  4.007098  0
C  C188  1  0.34069438  0.30201351  0.04429206  1  -0.015932  0  -0.090075  -0.130471  0  4.009538  0
C  C189  1  0.27338980  0.28759845  0.02466096  1  -0.057878  0  -0.006084  0.08221  0  4.011019  0
C  C190  1  0.25426330  0.32751525  0.99835969  1  0.011582  0  -0.009603  0.078433  0  4.017956  0
C  C191  1  0.30229158  0.37993057  0.99303377  1  -0.056127  0  -0.091888  -0.191254  0  3.95764  0
C  C192  1  0.18914877  0.31262442  0.97793789  1  -0.053671  0  -0.091503  -0.13221  0  4.016604  0
C  C193  1  0.14610048  0.26047020  0.98285572  1  -0.02667  0  -0.092617  -0.115909  0  4.022858  0
C  C194  1  0.16465731  0.22116237  0.00900910  1  -0.01644  0  -0.014675  -0.013208  0  3.990016  0
C  C195  1  0.22611841  0.23485118  0.02975436  1  0.004591  0  -0.086228  -0.16258  0  3.95173  0
C  C196  1  0.87142527  0.95812914  0.86991312  1  -0.033258  0  -0.020654  -0.041304  0  3.99278  0
C  C197  1  0.81425301  0.99313341  0.85219354  1  0.010589  0  -0.092842  -0.107036  0  4.022888  0
C  C198  1  0.81183685  0.98728660  0.81888803  1  -0.091907  0  -0.090679  -0.134471  0  4.001768  0
C  C199  1  0.86812767  0.94743875  0.80137819  1  -0.050379  0  -0.002744  0.080986  0  3.99584  0
C  C200  1  0.92657012  0.91250708  0.81935502  1  -0.015576  0  -0.003979  0.078236  0  4.002415  0
C  C201  1  0.92553398  0.91809973  0.85371394  1  0.006707  0  -0.070667  -0.124965  0  3.908268  0
C  C202  1  0.98603604  0.87428571  0.80195134  1  -0.007771  0  -0.085255  -0.125795  0  4.001951  0
C  C203  1  0.99027028  0.87213906  0.76818195  1  0.005773  0  -0.087126  -0.1132  0  4.004446  0
C  C204  1  0.93203724  0.90624666  0.75026407  1  -0.073173  0  -0.005686  0.016861  0  3.989612  0
C  C205  1  0.87053595  0.94211167  0.76679150  1  -0.01889  0  -0.077753  -0.153147  0  3.92044  0
C  C206  1  0.09410798  0.08638871  0.25420673  1  0.052278  0  -0.006712  0.013923  0  3.990106  0
C  C207  1  0.01991094  0.11655895  0.24320820  1  -0.013379  0  -0.086576  -0.108668  0  4.000811  0
C  C208  1  0.00711564  0.11839379  0.21036482  1  -0.064806  0  -0.088459  -0.129372  0  4.00132  0
C  C209  1  0.06479724  0.08790341  0.18716276  1  -0.026413  0  -0.00521  0.078411  0  4.004235  0
C  C210  1  0.13975731  0.05730442  0.19819455  1  -0.034007  0  -0.004031  0.080332  0  3.998907  0
C  C211  1  0.15424312  0.05878157  0.23175872  1  -0.107674  0  -0.076397  -0.147649  0  3.917982  0
C  C212  1  0.19431917  0.02424356  0.17541437  1  -0.004341  0  -0.088517  -0.132483  0  3.99964  0
C  C213  1  0.17361676  0.01939137  0.14379635  1  -0.08465  0  -0.088468  -0.102266  0  4.002582  0
C  C214  1  0.09957479  0.04971892  0.13288643  1  -0.0196  0  -0.018695  -0.033285  0  3.989639  0
C  C215  1  0.04816226  0.08454238  0.15396953  1  0.038049  0  -0.07996  -0.14359  0  3.94346  0
N  N216  1  0.18472797  0.07126254  0.29941937  1  -1.192999  0  -0.315868  -0.422522  0  3.162005  0
N  N217  1  0.11031600  0.06516916  0.35490853  1  -1.207074  0  -0.315007  -0.420955  0  3.253396  0
N  N218  1  0.02349243  0.08300972  0.31082175  1  -1.159714  0  -0.313112  -0.417346  0  3.171164  0
N  N219  1  0.87206945  0.90883430  0.69698510  1  -1.159979  0  -0.318951  -0.426808  0  3.153619  0
N  N220  1  0.97310109  0.88601230  0.64907636  1  -1.213151  0  -0.311794  -0.415724  0  3.21689  0
N  N221  1  0.03021322  0.89759325  0.69968924  1  -1.187839  0  -0.312252  -0.417121  0  3.214965  0
O  O222  1  0.84673723  0.08835671  0.08161520  1  -1.242154  0  -0.65867  -0.927456  0  1.889568  0
O  O223  1  0.04974992  0.15428281  0.03241623  1  -1.17502  0  -0.351738  -0.605745  0  2.264464  0
O  O224  1  0.02639174  0.07862431  0.08624069  1  -1.189288  0  -0.35491  -0.631473  0  2.306395  0
O  O225  1  0.80379448  0.13619741  0.98079268  1  -1.210527  0  -0.358179  -0.667859  0  2.29538  0
O  O226  1  0.09518841  0.99261697  0.08789143  1  -1.188253  0  -0.356074  -0.632091  0  2.309325  0
O  O227  1  0.87096477  0.15576389  0.02543423  1  -1.176207  0  -0.347948  -0.599173  0  2.347013  0
O  O228  1  0.15585033  0.12984500  0.99040092  1  -1.192027  0  -0.344233  -0.640476  0  2.313487  0
O  O229  1  0.05958723  0.03320393  0.02157285  1  -1.229459  0  -0.784302  -1.180076  0  2.061416  0
O  O230  1  0.98274693  0.10102059  0.98007189  1  -1.249335  0  -0.678017  -1.064795  0  2.22601  0
O  O231  1  0.93347398  0.98955421  0.06529858  1  -1.223503  0  -0.687963  -1.043022  0  2.258646  0
O  O232  1  0.86303782  0.03539068  0.01791032  1  -1.214782  0  -0.787135  -1.149212  0  2.051015  0
O  O233  1  0.72271276  0.03594008  0.97466854  1  -1.236456  0  -0.648056  -0.9107  0  1.930072  0
O  O234  1  0.24592480  0.03213017  0.98712614  1  -1.233739  0  -0.611679  -0.824349  0  2.009467  0
O  O235  1  0.99243373  0.00585093  0.95703503  1  -1.224986  0  -0.775976  -1.15075  0  1.997347  0
O  O236  1  0.11388740  0.95344418  0.98479726  1  -1.247213  0  -0.68945  -1.048322  0  2.262275  0
O  O237  1  0.96188975  0.92457167  0.01796096  1  -1.219726  0  -0.785653  -1.171231  0  2.071772  0
O  O238  1  0.84376639  0.95592634  0.98087775  1  -1.243844  0  -0.69696  -1.0588  0  2.311599  0
O  O239  1  0.21337969  0.96069953  0.03647094  1  -1.232441  0  -0.655934  -0.925868  0  1.891337  0
O  O240  1  0.11681746  0.86308202  0.03123335  1  -1.180266  0  -0.358171  -0.628767  0  2.306874  0
O  O241  1  0.07103090  0.84121941  0.98246563  1  -1.193105  0  -0.347753  -0.626625  0  2.283782  0
O  O242  1  0.75057929  0.00017436  0.07782088  1  -1.259924  0  -0.614893  -0.824974  0  2.012428  0
O  O243  1  0.89057124  0.84511015  0.97728173  1  -1.183793  0  -0.351786  -0.60655  0  2.302082  0
O  O244  1  0.00819819  0.88944475  0.08576067  1  -1.235215  0  -0.603362  -0.813431  0  2.020954  0
O  O245  1  0.84110628  0.89182697  0.07896252  1  -1.237377  0  -0.65972  -0.930044  0  1.880491  0
O  O246  1  0.68998563  0.96883057  0.02393047  1  -1.257183  0  -0.60703  -0.858021  0  2.0027  0
O  O247  1  0.78753470  0.86426884  0.02144000  1  -1.210963  0  -0.363242  -0.664323  0  2.297208  0
O  O248  1  0.08648339  0.90628261  0.92520218  1  -1.243362  0  -0.66156  -0.929259  0  1.874801  0
O  O249  1  0.88111578  0.11663939  0.92204360  1  -1.244303  0  -0.581456  -0.775335  0  2.025679  0
O  O250  1  0.91117815  0.92370786  0.92166929  1  -1.186143  0  -0.346547  -0.601056  0  2.304277  0
O  O251  1  0.85201208  0.01215482  0.91761915  1  -1.200697  0  -0.358834  -0.653968  0  2.293357  0
O  O252  1  0.14230152  0.10198823  0.92870504  1  -1.243579  0  -0.703024  -0.97879  0  1.779269  0
O  O253  1  0.17946345  0.99803499  0.92570688  1  -1.268526  0  -0.612386  -0.815605  0  2.042129  0
