# generated using pymatgen
data_ZnH14C21N(Cl2O3)2
_symmetry_space_group_name_H-M   'P 1'
_cell_length_a   13.91455748
_cell_length_b   15.25648229
_cell_length_c   16.04852318
_cell_angle_alpha   89.92743865
_cell_angle_beta   90.10913553
_cell_angle_gamma   89.94837666
_symmetry_Int_Tables_number   1
_chemical_formula_structural   ZnH14C21N(Cl2O3)2
_chemical_formula_sum   'Zn2 H28 C42 N2 Cl8 O12'
_cell_volume   3406.88574384
_cell_formula_units_Z   2
loop_
 _symmetry_equiv_pos_site_id
 _symmetry_equiv_pos_as_xyz
  1  'x, y, z'
loop_
 _atom_site_type_symbol
 _atom_site_label
 _atom_site_symmetry_multiplicity
 _atom_site_fract_x
 _atom_site_fract_y
 _atom_site_fract_z
 _atom_site_occupancy
 _atom_site_pbe_bader_charge
 _atom_site_pbe_bader_spin_density
 _atom_site_pbe_cm5_charge
 _atom_site_pbe_ddec_charge
 _atom_site_pbe_ddec_spin_density
 _atom_site_pbe_ddec_sum_bond_order
 _atom_site_pbe_magmom
Zn  Zn0  1  0.40045591  0.50032456  0.49984703  1  1.282476  0  0.67198  0.818167  0  2.423884  0
Zn  Zn1  1  0.60049018  0.50128863  0.50082660  1  1.305316  0  0.671415  0.817472  0  2.423186  0
H  H2  1  0.39616240  0.38973330  0.92950294  1  0.070255  0  0.10354  0.133655  0  0.966858  0
H  H3  1  0.56915059  0.36903764  0.92930537  1  0.109889  0  0.103124  0.131865  0  0.967819  0
H  H4  1  0.62427237  0.77561169  0.42158431  1  0.104561  0  0.10939  0.132564  0  0.991336  0
H  H5  1  0.37022193  0.77951367  0.57374375  1  0.098259  0  0.109217  0.132069  0  0.991885  0
H  H6  1  0.74858928  0.43387364  0.38816394  1  0.15615  0  0.128255  0.118743  0  1.01231  0
H  H7  1  0.25122451  0.56478875  0.38606533  1  0.146005  0  0.127313  0.117596  0  1.013934  0
H  H8  1  0.75320402  0.57598755  0.60789716  1  0.129324  0  0.129164  0.1237  0  0.975349  0
H  H9  1  0.24912279  0.42677940  0.60844739  1  0.13237  0  0.129673  0.12516  0  0.976723  0
H  H10  1  0.65022047  0.45822526  0.92499340  1  0.055599  0  0.104018  0.132735  0  0.970073  0
H  H11  1  0.34260469  0.49481295  0.92448800  1  0.075759  0  0.104  0.133299  0  0.969604  0
H  H12  1  0.45498588  0.62887944  0.07426747  1  0.071364  0  0.092137  0.108574  0  1.003024  0
H  H13  1  0.58040256  0.61343103  0.07428703  1  0.077896  0  0.092488  0.109078  0  1.001596  0
H  H14  1  0.45480883  0.63152217  0.92855246  1  0.058286  0  0.099764  0.106648  0  0.96458  0
H  H15  1  0.58077888  0.61609656  0.92856868  1  0.05515  0  0.099736  0.106457  0  0.965491  0
H  H16  1  0.38311258  0.22704712  0.41157974  1  0.118184  0  0.110916  0.135522  0  0.98865  0
H  H17  1  0.62295304  0.22241832  0.58161533  1  0.109899  0  0.110149  0.134546  0  0.990102  0
H  H18  1  0.85560392  0.44395053  0.27155426  1  0.0795  0  0.105992  0.107025  0  0.985211  0
H  H19  1  0.84264515  0.33648373  0.31658736  1  0.049543  0  0.1112  0.114302  0  0.970789  0
H  H20  1  0.94908988  0.36364531  0.25919220  1  0.070909  0  0.11829  0.127191  0  0.959988  0
H  H21  1  0.14336003  0.55124515  0.27000401  1  0.052059  0  0.106769  0.108114  0  0.984289  0
H  H22  1  0.15642687  0.65985172  0.31238977  1  0.051181  0  0.109879  0.111553  0  0.97282  0
H  H23  1  0.04961973  0.63112863  0.25591464  1  0.091099  0  0.117226  0.125474  0  0.960504  0
H  H24  1  0.45713355  0.01631403  0.30104786  1  0.049479  0  0.089029  0.085847  0  1.011426  0
H  H25  1  0.39209982  0.11685780  0.28547844  1  0.044622  0  0.09334  0.089717  0  0.994562  0
H  H26  1  0.32959636  0.01391787  0.28340019  1  0.054914  0  0.105695  0.110994  0  0.972351  0
H  H27  1  0.54394357  0.01019726  0.68811108  1  0.025079  0  0.089571  0.086502  0  1.010636  0
H  H28  1  0.61106227  0.10905644  0.70572359  1  0.035856  0  0.093073  0.088084  0  0.995534  0
H  H29  1  0.67144547  0.00492133  0.70552785  1  0.055867  0  0.106767  0.112665  0  0.970429  0
C  C30  1  0.50321093  0.33226701  0.49833891  1  1.535718  0  0.214117  0.593661  0  4.162027  0
C  C31  1  0.51288267  0.58981962  0.95275811  1  -0.095133  0  -0.154557  -0.191207  0  3.836827  0
C  C32  1  0.51284009  0.58855076  0.04875231  1  0.001307  0  -0.164659  -0.190404  0  3.847146  0
C  C33  1  0.49943928  0.49628174  0.82820401  1  -0.483379  0  -0.035968  -0.056898  0  4.024019  0
C  C34  1  0.49910513  0.49406596  0.17275592  1  -0.337461  0  -0.05655  -0.066297  0  4.138188  0
C  C35  1  0.49975110  0.49780964  0.24819510  1  0.177009  0  -0.043653  -0.16436  0  3.953522  0
C  C36  1  0.43507513  0.09862656  0.44659626  1  0.415534  0  0.078378  0.219464  0  4.061339  0
C  C37  1  0.56756831  0.09603162  0.54440155  1  0.488732  0  0.077915  0.218442  0  4.05992  0
C  C38  1  0.43528263  0.18991403  0.44801610  1  0.031055  0  -0.097606  -0.220967  0  3.96442  0
C  C39  1  0.56978015  0.18733194  0.54460344  1  0.016002  0  -0.098815  -0.223506  0  3.96787  0
C  C40  1  0.50294762  0.23421194  0.49687293  1  0.016524  0  -0.01691  0.012477  0  4.00112  0
C  C41  1  0.50046749  0.05026144  0.49531671  1  0.024017  0  -0.028626  -0.130674  0  4.026681  0
C  C42  1  0.56814701  0.90377235  0.45246699  1  0.083505  0  0.019078  0.122799  0  4.01638  0
C  C43  1  0.42822974  0.90597901  0.53930730  1  -0.039518  0  0.017717  0.120923  0  4.0173  0
C  C44  1  0.50035483  0.50074011  0.33824141  1  1.641341  0  0.220276  0.671582  0  4.235545  0
C  C45  1  0.56904063  0.81258292  0.45417464  1  -0.004701  0  -0.093578  -0.1733  0  3.965289  0
C  C46  1  0.42596225  0.81474273  0.54007610  1  0.100684  0  -0.093143  -0.174498  0  3.966183  0
C  C47  1  0.49731108  0.76806271  0.49792732  1  -0.000265  0  -0.01361  0.008153  0  3.977875  0
C  C48  1  0.49875567  0.95323937  0.49545000  1  0.080523  0  -0.007828  -0.010274  0  3.973586  0
C  C49  1  0.89412444  0.45999941  0.43380169  1  0.474356  0  0.101238  0.191067  0  4.0408  0
C  C50  1  0.10618242  0.53890959  0.43254463  1  0.526244  0  0.101814  0.192596  0  4.038873  0
C  C51  1  0.79367668  0.46339823  0.43599263  1  0.540534  0  0.035726  -0.050536  0  3.911036  0
C  C52  1  0.20663205  0.53601066  0.43457850  1  0.546689  0  0.035558  -0.051112  0  3.912306  0
C  C53  1  0.79529553  0.54440439  0.55922838  1  0.533518  0  0.043404  0.008377  0  3.91733  0
C  C54  1  0.20643062  0.45731030  0.55934449  1  0.608733  0  0.043612  0.007392  0  3.916511  0
C  C55  1  0.89559246  0.54550479  0.55966229  1  0.11353  0  0.021816  0.075558  0  4.059592  0
C  C56  1  0.10613894  0.45579148  0.56004632  1  -0.007255  0  0.022314  0.077575  0  4.056653  0
C  C57  1  0.94744968  0.50147934  0.49770627  1  0.060812  0  -0.004223  -0.042672  0  3.971858  0
C  C58  1  0.05356559  0.49859007  0.49747189  1  0.13599  0  -0.003867  -0.043761  0  3.97225  0
C  C59  1  0.49749238  0.66980037  0.49970953  1  1.585455  0  0.214582  0.592182  0  4.168145  0
C  C60  1  0.50020040  0.49937680  0.66226520  1  1.657564  0  0.219021  0.672687  0  4.240635  0
C  C61  1  0.39929133  0.46049485  0.04662778  1  0.257093  0  0.075177  0.256243  0  3.644447  0
C  C62  1  0.58556819  0.43767860  0.04677066  1  0.258938  0  0.07456  0.255711  0  3.643786  0
C  C63  1  0.58143054  0.43632932  0.95072054  1  -0.055568  0  -0.160589  -0.296458  0  3.830142  0
C  C64  1  0.40302490  0.45775725  0.95065598  1  -0.0445  0  -0.161931  -0.300192  0  3.834563  0
C  C65  1  0.49991509  0.49752259  0.75254376  1  0.186975  0  -0.051158  -0.19228  0  3.976975  0
C  C66  1  0.49894555  0.49335147  0.08278246  1  0.08682  0  -0.002641  0.036967  0  3.84582  0
C  C67  1  0.49913308  0.49578759  0.91861764  1  0.157349  0  0.002582  0.209747  0  3.889005  0
C  C68  1  0.89384374  0.38894408  0.30127001  1  0.38619  0  -0.123417  -0.174258  0  3.882601  0
C  C69  1  0.10523936  0.60692231  0.29844383  1  0.390251  0  -0.123874  -0.173216  0  3.88347  0
C  C70  1  0.38854833  0.05045366  0.31247711  1  0.392949  0  -0.137523  -0.160549  0  3.9312  0
C  C71  1  0.61321891  0.04331402  0.67734876  1  0.434473  0  -0.137632  -0.16011  0  3.929969  0
N  N72  1  0.74719669  0.50376672  0.49836638  1  -1.262524  0  -0.316885  -0.145255  0  3.588431  0
N  N73  1  0.25381470  0.49712053  0.49763595  1  -1.237064  0  -0.316946  -0.144742  0  3.590647  0
Cl  Cl74  1  0.95286935  0.60471776  0.63632311  1  -0.181733  0  0.00425  -0.05877  0  1.48733  0
Cl  Cl75  1  0.04974801  0.39768169  0.63788097  1  -0.177331  0  0.00517  -0.057731  0  1.486099  0
Cl  Cl76  1  0.36293909  0.35669754  0.08778575  1  -0.197308  0  -0.044875  -0.128788  0  1.443516  0
Cl  Cl77  1  0.59051326  0.32861798  0.08755417  1  -0.193974  0  -0.043709  -0.127237  0  1.44222  0
Cl  Cl78  1  0.69712620  0.48868304  0.08042587  1  -0.223023  0  -0.041595  -0.139489  0  1.377531  0
Cl  Cl79  1  0.30639333  0.53687726  0.07952077  1  -0.224734  0  -0.04284  -0.140932  0  1.377867  0
Cl  Cl80  1  0.65512262  0.95754022  0.39438975  1  -0.213981  0  -0.023972  -0.09754  0  1.451972  0
Cl  Cl81  1  0.34192130  0.96255993  0.59564989  1  -0.213549  0  -0.022115  -0.094893  0  1.452767  0
O  O82  1  0.42570162  0.37072552  0.47671481  1  -1.169447  0  -0.319055  -0.545145  0  2.319023  0
O  O83  1  0.58059343  0.37009395  0.52113736  1  -1.166594  0  -0.320684  -0.545593  0  2.305536  0
O  O84  1  0.42243719  0.52427186  0.37311713  1  -1.149862  0  -0.311077  -0.541808  0  2.259268  0
O  O85  1  0.57879916  0.47946131  0.37379898  1  -1.151726  0  -0.309311  -0.539349  0  2.261609  0
O  O86  1  0.41978206  0.63190788  0.52096483  1  -1.158214  0  -0.318101  -0.541711  0  2.303275  0
O  O87  1  0.57570792  0.63193905  0.47970104  1  -1.158515  0  -0.317735  -0.543074  0  2.31704  0
O  O88  1  0.42216887  0.47752895  0.62637782  1  -1.151355  0  -0.311231  -0.542826  0  2.258656  0
O  O89  1  0.57828899  0.52265659  0.62756395  1  -1.152077  0  -0.31139  -0.542216  0  2.254477  0
O  O90  1  0.94493442  0.41811251  0.37413640  1  -1.069733  0  -0.176001  -0.145004  0  2.591888  0
O  O91  1  0.05477814  0.57950443  0.37212740  1  -1.070013  0  -0.176785  -0.146082  0  2.590308  0
O  O92  1  0.36767508  0.05340849  0.39999312  1  -1.084205  0  -0.217855  -0.206797  0  2.52819  0
O  O93  1  0.63403365  0.04829025  0.58990255  1  -1.088525  0  -0.216894  -0.206411  0  2.528287  0
