# generated using pymatgen
data_CuH14C12NO4
_symmetry_space_group_name_H-M   'P 1'
_cell_length_a   8.95932457
_cell_length_b   12.42594691
_cell_length_c   14.45511803
_cell_angle_alpha   115.46586797
_cell_angle_beta   96.10167086
_cell_angle_gamma   89.98572642
_symmetry_Int_Tables_number   1
_chemical_formula_structural   CuH14C12NO4
_chemical_formula_sum   'Cu4 H56 C48 N4 O16'
_cell_volume   1442.82353530
_cell_formula_units_Z   4
loop_
 _symmetry_equiv_pos_site_id
 _symmetry_equiv_pos_as_xyz
  1  'x, y, z'
loop_
 _atom_site_type_symbol
 _atom_site_label
 _atom_site_symmetry_multiplicity
 _atom_site_fract_x
 _atom_site_fract_y
 _atom_site_fract_z
 _atom_site_occupancy
 _atom_site_pbe_bader_charge
 _atom_site_pbe_bader_spin_density
 _atom_site_pbe_cm5_charge
 _atom_site_pbe_ddec_charge
 _atom_site_pbe_ddec_spin_density
 _atom_site_pbe_ddec_sum_bond_order
 _atom_site_pbe_magmom
Cu  Cu0  1  0.08477390  0.00863099  0.57979537  1  1.063463  0.575205  0.675434  0.746323  0.731815  2.411458  0.576
Cu  Cu1  1  0.41537421  0.42876898  0.42021967  1  1.062782  0.574892  0.674774  0.74512  0.731438  2.410587  0.576
Cu  Cu2  1  0.91522689  0.99136546  0.42020587  1  1.062961  0.575164  0.6753  0.746023  0.731787  2.411975  0.576
Cu  Cu3  1  0.58461799  0.57124898  0.57979328  1  1.062836  0.574878  0.674677  0.744863  0.7314  2.410647  0.576
H  H4  1  0.28537684  0.83954806  0.63028159  1  0.140102  -9.5e-05  0.121562  0.100917  -8.9e-05  0.991093  0.0
H  H5  1  0.21482434  0.20941710  0.36987075  1  0.12857  -9.5e-05  0.121844  0.101278  -8.9e-05  0.990758  0.0
H  H6  1  0.71462282  0.16044127  0.36971162  1  0.140277  -9.4e-05  0.1216  0.100931  -8.8e-05  0.991054  0.0
H  H7  1  0.78516940  0.79058583  0.63013252  1  0.128608  -9.5e-05  0.121844  0.101363  -8.9e-05  0.990612  0.0
H  H8  1  0.46550355  0.83420026  0.77087867  1  0.117941  3.1e-05  0.108179  0.1263  5.1e-05  1.022484  0.0
H  H9  1  0.03452570  0.06354437  0.22934523  1  0.115243  3.1e-05  0.108147  0.126113  5.1e-05  1.022341  0.0
H  H10  1  0.53449112  0.16579876  0.22911711  1  0.117975  3.1e-05  0.108181  0.126307  5.1e-05  1.02239  0.0
H  H11  1  0.96547931  0.93645310  0.77065257  1  0.115062  3.1e-05  0.108142  0.126124  5.1e-05  1.022332  0.0
H  H12  1  0.36885688  0.20104434  0.95722784  1  0.069367  -3.8e-05  0.104431  0.109312  -3.2e-05  1.00726  0.0
H  H13  1  0.13182611  0.24336484  0.04266734  1  0.068542  -3.8e-05  0.104431  0.109723  -3.2e-05  1.006931  0.0
H  H14  1  0.63114259  0.79894804  0.04276576  1  0.069383  -3.8e-05  0.104524  0.109461  -3.2e-05  1.007281  0.0
H  H15  1  0.86818585  0.75663225  0.95733364  1  0.068495  -3.8e-05  0.104464  0.109752  -3.2e-05  1.006891  0.0
H  H16  1  0.18817161  0.18882318  0.80697864  1  0.095404  -7.6e-05  0.117383  0.089177  -6.7e-05  0.987141  0.0
H  H17  1  0.31214583  0.38165031  0.19300681  1  0.096335  -7.6e-05  0.117359  0.089259  -6.7e-05  0.987521  0.0
H  H18  1  0.81182671  0.81116623  0.19301109  1  0.095041  -7.6e-05  0.117377  0.089153  -6.7e-05  0.987177  0.0
H  H19  1  0.68785677  0.61835435  0.80699640  1  0.096313  -7.6e-05  0.117379  0.089265  -6.7e-05  0.987536  0.0
H  H20  1  0.59015289  0.11141844  0.01221261  1  0.083784  -4e-06  0.097983  0.100041  -3e-06  0.972055  0.0
H  H21  1  0.90974575  0.09936926  0.98813159  1  0.010719  -4e-06  0.097862  0.099592  -3e-06  0.972272  0.0
H  H22  1  0.40985332  0.88857372  0.98778076  1  0.083748  -4e-06  0.097979  0.100007  -3e-06  0.971982  0.0
H  H23  1  0.09026162  0.90062656  0.01186634  1  0.010624  -4e-06  0.097856  0.099565  -4e-06  0.972313  0.0
H  H24  1  0.63220380  0.96171108  0.93503132  1  0.036463  -1.1e-05  0.094346  0.094244  -1.2e-05  1.009789  0.0
H  H25  1  0.86808878  0.02666157  0.06521034  1  0.038168  -1.1e-05  0.094295  0.09446  -1.2e-05  1.009096  0.0
H  H26  1  0.36779457  0.03827846  0.06495944  1  0.036367  -1.1e-05  0.094321  0.094177  -1.2e-05  1.009804  0.0
H  H27  1  0.13191510  0.97333583  0.93478739  1  0.038142  -1.1e-05  0.094286  0.094474  -1.2e-05  1.009019  0.0
H  H28  1  0.97162212  0.41613067  0.39897111  1  0.054279  0.002652  0.09932  0.120092  0.001432  1.008443  0.002
H  H29  1  0.52865917  0.01712849  0.60121955  1  0.05709  0.002647  0.09965  0.120432  0.00143  1.008145  0.002
H  H30  1  0.02836807  0.58387578  0.60103300  1  0.054231  0.002652  0.099329  0.120094  0.001432  1.008355  0.002
H  H31  1  0.47133845  0.98286190  0.39877831  1  0.05713  0.002646  0.099637  0.120376  0.00143  1.008128  0.002
H  H32  1  0.86547358  0.28603254  0.30785502  1  0.024003  0.00133  0.094556  0.106549  0.000635  1.015044  0.001
H  H33  1  0.63493674  0.97823082  0.69233492  1  0.036293  0.001309  0.094456  0.106549  0.000635  1.015031  0.001
H  H34  1  0.13450790  0.71397326  0.69215292  1  0.023892  0.001331  0.094584  0.106646  0.000636  1.014984  0.001
H  H35  1  0.36506425  0.02176049  0.30766386  1  0.03625  0.00131  0.094435  0.106455  0.000636  1.015083  0.001
H  H36  1  0.76776279  0.38688072  0.20361097  1  0.027368  0.000714  0.084783  0.077245  0.000358  0.984912  0.0
H  H37  1  0.73266093  0.18336481  0.79646326  1  0.02838  0.000713  0.084395  0.076364  0.000359  0.985132  0.0
H  H38  1  0.23224644  0.61312276  0.79638927  1  0.027362  0.000714  0.08474  0.07723  0.000358  0.984905  0.0
H  H39  1  0.26734440  0.81662364  0.20352998  1  0.028065  0.000713  0.08439  0.076429  0.000359  0.98513  0.0
H  H40  1  0.96633122  0.40533022  0.22444529  1  0.02423  0.00097  0.082633  0.073931  0.000473  1.021608  0.001
H  H41  1  0.53408453  0.18099074  0.77568795  1  0.018235  0.000976  0.082287  0.073275  0.000473  1.021946  0.001
H  H42  1  0.03367301  0.59467294  0.77556445  1  0.024366  0.000971  0.082674  0.073971  0.000474  1.021534  0.001
H  H43  1  0.46592409  0.81900197  0.22430865  1  0.018359  0.000976  0.082291  0.073238  0.000473  1.021909  0.001
H  H44  1  0.96703525  0.61884914  0.45938662  1  0.090901  0.001194  0.103404  0.12597  0.000697  1.000616  0.001
H  H45  1  0.53329714  0.15938940  0.54062453  1  0.075815  0.001215  0.103658  0.126044  0.000697  0.999569  0.001
H  H46  1  0.03296787  0.38114275  0.54061095  1  0.090988  0.001196  0.103399  0.126011  0.000698  1.000688  0.001
H  H47  1  0.46671222  0.84062435  0.45937081  1  0.07573  0.001215  0.103658  0.125981  0.000698  0.999679  0.001
H  H48  1  0.08771219  0.60658905  0.36814856  1  0.068109  -2.2e-05  0.105234  0.13002  -0.000187  0.96876  0.0
H  H49  1  0.41246655  0.23828107  0.63181161  1  0.068618  -2.1e-05  0.10536  0.129685  -0.000186  0.968889  0.0
H  H50  1  0.91228825  0.39340937  0.63184930  1  0.068141  -2.2e-05  0.105234  0.130027  -0.000186  0.968823  0.0
H  H51  1  0.58754078  0.76172028  0.36819185  1  0.068827  -2.1e-05  0.105348  0.129682  -0.000186  0.968882  0.0
H  H52  1  0.74181608  0.59144511  0.33399435  1  0.023493  -6.9e-05  0.088754  0.084189  -0.000161  1.00106  0.0
H  H53  1  0.75837225  0.25753472  0.66608579  1  0.025178  -7e-05  0.088707  0.084595  -0.000161  1.001017  0.0
H  H54  1  0.25818607  0.40856126  0.66600343  1  0.023487  -6.9e-05  0.088777  0.084166  -0.000161  1.001132  0.0
H  H55  1  0.24163756  0.74245681  0.33391053  1  0.025324  -6.9e-05  0.088706  0.08452  -0.000161  1.001136  0.0
H  H56  1  0.85392875  0.59386526  0.24212865  1  0.008686  0.000224  0.085945  0.078426  0.000145  0.987219  0.0
H  H57  1  0.64610379  0.35177355  0.75791134  1  0.002979  0.000224  0.086069  0.078442  0.000145  0.988146  0.0
H  H58  1  0.14607706  0.40613924  0.75787172  1  0.008445  0.000224  0.08591  0.078345  0.000145  0.987212  0.0
H  H59  1  0.35391419  0.64822139  0.24209373  1  0.00291  0.000223  0.086074  0.078455  0.000145  0.988056  0.0
C  C60  1  0.30611394  0.91742718  0.70453491  1  0.517083  -0.000494  0.053947  0.113588  -0.000591  3.924631  0.0
C  C61  1  0.19413758  0.21293712  0.29556735  1  0.509897  -0.000494  0.054207  0.113506  -0.000594  3.925628  0.0
C  C62  1  0.69387992  0.08256551  0.29545900  1  0.516843  -0.000494  0.053882  0.113583  -0.000591  3.9247  0.0
C  C63  1  0.80585828  0.78706708  0.70443540  1  0.510137  -0.000495  0.054241  0.113565  -0.000594  3.925555  0.0
C  C64  1  0.40726118  0.91566281  0.78389918  1  -0.079284  0.000476  -0.082855  -0.185114  0.000331  3.916085  0.0
C  C65  1  0.09294579  0.13183751  0.21626669  1  -0.081531  0.000477  -0.082814  -0.184184  0.000332  3.915947  0.0
C  C66  1  0.59273066  0.08432818  0.21609661  1  -0.079252  0.000476  -0.082913  -0.185193  0.000331  3.916232  0.0
C  C67  1  0.90706044  0.86816169  0.78373462  1  -0.081602  0.000477  -0.082901  -0.184392  0.000332  3.916119  0.0
C  C68  1  0.43288693  0.01853819  0.87719123  1  0.016341  -0.000592  0.007467  0.159069  -0.000665  3.965992  0.0
C  C69  1  0.06743699  0.14124899  0.12288405  1  -0.04295  -0.000597  0.007434  0.15824  -0.000667  3.966487  0.0
C  C70  1  0.56710063  0.98145509  0.12281042  1  0.016332  -0.000592  0.007453  0.15901  -0.000665  3.965895  0.0
C  C71  1  0.93256913  0.85874926  0.87711452  1  -0.042175  -0.000597  0.00748  0.158327  -0.000667  3.966663  0.0
C  C72  1  0.35187776  0.11843024  0.88632066  1  -0.108374  0.000276  -0.093022  -0.210091  0.000165  3.999021  0.0
C  C73  1  0.14864315  0.23179925  0.11364341  1  -0.023887  0.000279  -0.092871  -0.2098  0.000165  3.999394  0.0
C  C74  1  0.64810989  0.88155695  0.11367579  1  -0.108721  0.000276  -0.093147  -0.210327  0.000165  3.999133  0.0
C  C75  1  0.85136631  0.76820407  0.88636023  1  -0.024553  0.000279  -0.092882  -0.209835  0.000165  3.999403  0.0
C  C76  1  0.25177976  0.11243490  0.80349508  1  0.475128  -0.000575  0.044006  0.089725  -0.000676  3.98437  0.0
C  C77  1  0.24859673  0.30875846  0.19648573  1  0.466677  -0.000577  0.044358  0.089526  -0.000677  3.985081  0.0
C  C78  1  0.74821411  0.88755572  0.19649676  1  0.475521  -0.000575  0.044063  0.089843  -0.000675  3.984468  0.0
C  C79  1  0.75140841  0.69124287  0.80351860  1  0.466795  -0.000577  0.044265  0.089533  -0.000677  3.984972  0.0
C  C80  1  0.54002079  0.02063970  0.96516202  1  -0.063053  -4e-05  -0.153637  -0.193658  -6.6e-05  3.93628  0.0
C  C81  1  0.96010535  0.05548322  0.03499933  1  0.02172  -3.9e-05  -0.153405  -0.19314  -6.6e-05  3.935543  0.0
C  C82  1  0.45997779  0.97935106  0.03483353  1  -0.039639  -3.9e-05  -0.153654  -0.193558  -6.6e-05  3.936081  0.0
C  C83  1  0.03989988  0.94451340  0.96500119  1  0.037861  -3.8e-05  -0.153422  -0.193142  -6.6e-05  3.93544  0.0
C  C84  1  0.73331785  0.42260755  0.40455631  1  1.535503  -0.00131  0.214766  0.63522  -0.002475  4.100983  -0.004
C  C85  1  0.76693155  0.01799410  0.59552170  1  1.531499  -0.001346  0.213923  0.63366  -0.002465  4.102281  -0.004
C  C86  1  0.26667631  0.57741059  0.59545236  1  1.535852  -0.001313  0.214573  0.634713  -0.002473  4.101765  -0.004
C  C87  1  0.23306836  0.98199865  0.40447941  1  1.531701  -0.001345  0.21383  0.633511  -0.002465  4.102683  -0.004
C  C88  1  0.86808150  0.38395014  0.34517489  1  0.004516  0.018071  -0.167316  -0.294301  0.013139  3.889549  0.014
C  C89  1  0.63224554  0.03877819  0.65496265  1  -0.013988  0.018128  -0.167726  -0.294667  0.013137  3.89018  0.014
C  C90  1  0.13190973  0.61605902  0.65483104  1  0.004668  0.018074  -0.16729  -0.294278  0.01314  3.889671  0.014
C  C91  1  0.36775191  0.96121249  0.34503282  1  -0.014049  0.018133  -0.167606  -0.294348  0.01314  3.889902  0.014
C  C92  1  0.86373364  0.43141429  0.26264751  1  -0.039471  0.001741  -0.16523  -0.120774  0.001128  3.934166  0.001
C  C93  1  0.63662447  0.16882504  0.73744592  1  -0.012205  0.001723  -0.163923  -0.118043  0.001129  3.932671  0.001
C  C94  1  0.13626678  0.56858966  0.73735588  1  -0.039844  0.00174  -0.165221  -0.120815  0.001127  3.934067  0.001
C  C95  1  0.36338292  0.83116732  0.26254855  1  -0.011883  0.001725  -0.163982  -0.118216  0.00113  3.932455  0.001
C  C96  1  0.98034921  0.77031268  0.42945707  1  1.549409  -0.001218  0.21422  0.627902  -0.002251  4.118451  -0.004
C  C97  1  0.51973100  0.34080119  0.57058036  1  1.542994  -0.001204  0.213853  0.627275  -0.002245  4.117289  -0.004
C  C98  1  0.01965280  0.22968549  0.57054768  1  1.549227  -0.001218  0.214301  0.62795  -0.00225  4.118216  -0.004
C  C99  1  0.48027143  0.65921289  0.42943048  1  1.542299  -0.001204  0.213846  0.627186  -0.002245  4.117329  -0.004
C  C100  1  0.97592060  0.63606612  0.39173222  1  -0.060537  0.017687  -0.163864  -0.2895  0.012734  3.889147  0.014
C  C101  1  0.52427240  0.24425713  0.60829539  1  -0.052314  0.017673  -0.163923  -0.288314  0.012743  3.887237  0.014
C  C102  1  0.02407984  0.36393368  0.60826702  1  -0.060631  0.017688  -0.163906  -0.289639  0.012735  3.889225  0.014
C  C103  1  0.47573338  0.75575152  0.39170913  1  -0.052096  0.017674  -0.163914  -0.288248  0.012744  3.88709  0.014
C  C104  1  0.85152757  0.56684004  0.30512341  1  0.029333  0.003264  -0.168371  -0.11812  0.002249  3.942172  0.002
C  C105  1  0.64866359  0.26173190  0.69493251  1  0.019361  0.003265  -0.168585  -0.119609  0.002248  3.943116  0.002
C  C106  1  0.14847387  0.43316165  0.69487593  1  0.029644  0.003262  -0.168327  -0.117906  0.002247  3.94197  0.002
C  C107  1  0.35134839  0.73826242  0.30506569  1  0.018935  0.003265  -0.168569  -0.119475  0.002248  3.942851  0.002
N  N108  1  0.22940601  0.01378667  0.71362947  1  -1.227715  -0.001492  -0.33542  -0.244512  -0.000764  3.505324  0.0
N  N109  1  0.27085892  0.30012455  0.28642212  1  -1.231385  -0.001493  -0.336301  -0.24486  -0.000759  3.505453  0.0
N  N110  1  0.77059123  0.98620349  0.28636190  1  -1.227415  -0.001491  -0.335348  -0.24437  -0.000763  3.505114  0.0
N  N111  1  0.72913934  0.69988227  0.71358593  1  -1.231539  -0.001493  -0.33627  -0.244911  -0.000759  3.505585  0.0
O  O112  1  0.05917856  0.83037483  0.51606498  1  -1.134123  0.098006  -0.320447  -0.534862  0.062355  2.346434  0.089
O  O113  1  0.44103484  0.31417578  0.48391649  1  -1.128212  0.098287  -0.319605  -0.533891  0.062431  2.345077  0.089
O  O114  1  0.94081198  0.16962073  0.48391485  1  -1.133895  0.098032  -0.320492  -0.534973  0.062374  2.345765  0.089
O  O115  1  0.55896271  0.68585668  0.51610830  1  -1.12789  0.098311  -0.319491  -0.53381  0.062445  2.344905  0.089
O  O116  1  0.60551565  0.37550572  0.35522518  1  -1.120927  0.092736  -0.320178  -0.541555  0.058821  2.349551  0.084
O  O117  1  0.89479816  0.02033916  0.64483003  1  -1.119846  0.092652  -0.320405  -0.541659  0.058796  2.350662  0.084
O  O118  1  0.39447990  0.62452366  0.64480010  1  -1.120614  0.092757  -0.32015  -0.541351  0.058833  2.349415  0.085
O  O119  1  0.10518618  0.97964110  0.35514163  1  -1.119603  0.092718  -0.320391  -0.541724  0.05884  2.350079  0.084
O  O120  1  0.90888249  0.81392341  0.37340288  1  -1.115159  0.095654  -0.315321  -0.528822  0.060809  2.343611  0.087
O  O121  1  0.59100213  0.44053188  0.62663805  1  -1.116758  0.095579  -0.315711  -0.528913  0.060788  2.341748  0.087
O  O122  1  0.09109284  0.18607018  0.62658302  1  -1.115348  0.095612  -0.315369  -0.528802  0.060783  2.34412  0.087
O  O123  1  0.40900733  0.55948968  0.37338562  1  -1.116418  0.095561  -0.315811  -0.528916  0.060775  2.342163  0.087
O  O124  1  0.75625365  0.50170384  0.49777909  1  -1.118135  0.095908  -0.3125  -0.526901  0.060879  2.347634  0.088
O  O125  1  0.74383486  0.00378690  0.50229077  1  -1.109542  0.095915  -0.311773  -0.525791  0.060873  2.347924  0.088
O  O126  1  0.24375884  0.49831784  0.50223936  1  -1.118554  0.095885  -0.31245  -0.526698  0.060865  2.348312  0.088
O  O127  1  0.25613759  0.99621269  0.49769132  1  -1.110033  0.095856  -0.311766  -0.525679  0.060837  2.34896  0.088
