# generated using pymatgen
data_CuH11C13N4ClO
_symmetry_space_group_name_H-M   'P 1'
_cell_length_a   8.50482664
_cell_length_b   11.53695152
_cell_length_c   14.08833237
_cell_angle_alpha   104.53158898
_cell_angle_beta   90.00010009
_cell_angle_gamma   89.99989304
_symmetry_Int_Tables_number   1
_chemical_formula_structural   CuH11C13N4ClO
_chemical_formula_sum   'Cu4 H44 C52 N16 Cl4 O4'
_cell_volume   1338.12202555
_cell_formula_units_Z   4
loop_
 _symmetry_equiv_pos_site_id
 _symmetry_equiv_pos_as_xyz
  1  'x, y, z'
loop_
 _atom_site_type_symbol
 _atom_site_label
 _atom_site_symmetry_multiplicity
 _atom_site_fract_x
 _atom_site_fract_y
 _atom_site_fract_z
 _atom_site_occupancy
 _atom_site_pbe_bader_charge
 _atom_site_pbe_bader_spin_density
 _atom_site_pbe_cm5_charge
 _atom_site_pbe_ddec_charge
 _atom_site_pbe_ddec_spin_density
 _atom_site_pbe_ddec_sum_bond_order
 _atom_site_pbe_magmom
Cu  Cu0  1  0.12099563  0.46922848  0.15081796  1  0.982767  0.538622  0.685087  0.627866  0.714242  2.523987  0.537
Cu  Cu1  1  0.62099725  0.03077000  0.34918323  1  0.982646  0.538443  0.685085  0.627765  0.713983  2.52401  0.537
Cu  Cu2  1  0.87900378  0.53077235  0.84918284  1  0.982718  0.538544  0.685043  0.627774  0.714168  2.523961  0.537
Cu  Cu3  1  0.37900333  0.96922993  0.65081880  1  0.98266  -0.538192  0.685052  0.627769  -0.752208  2.523955  -0.536
H  H4  1  0.82080270  0.79786173  0.26082843  1  0.106798  0.000175  0.11626  0.09036  0.000136  1.008928  0.0
H  H5  1  0.32080670  0.70213785  0.23916891  1  0.106798  0.000226  0.116277  0.09035  0.00019  1.008921  0.0
H  H6  1  0.17919553  0.20213822  0.73916934  1  0.107065  0.000282  0.116245  0.090338  0.000303  1.008914  0.0
H  H7  1  0.67919505  0.29786388  0.76083066  1  0.106831  -0.000245  0.116256  0.090337  -0.000266  1.00895  0.0
H  H8  1  0.82071175  0.13871309  0.21359566  1  0.12256  0.000531  0.106088  0.083641  0.000481  1.029696  0.0
H  H9  1  0.32071784  0.36128608  0.28640233  1  0.1229  0.000528  0.106133  0.083723  0.000471  1.029592  0.0
H  H10  1  0.17928883  0.86128775  0.78640372  1  0.122562  0.000521  0.106103  0.083664  0.000552  1.029684  0.0
H  H11  1  0.67928391  0.63871475  0.71359989  1  0.122874  -0.000512  0.106141  0.083749  -0.000578  1.029636  0.0
H  H12  1  0.03354098  0.08493253  0.08959807  1  0.10543  0.000229  0.10474  0.106842  5.2e-05  1.038274  0.0
H  H13  1  0.53354651  0.41506697  0.41039898  1  0.103976  0.000215  0.104761  0.106943  5.4e-05  1.038292  0.0
H  H14  1  0.96645607  0.91506654  0.91039810  1  0.10392  0.000175  0.104755  0.106893  8.4e-05  1.038291  0.0
H  H15  1  0.46645524  0.58493476  0.58960201  1  0.103905  -0.000174  0.104764  0.106944  -0.000103  1.038304  0.0
H  H16  1  0.14190310  0.87318053  0.04829697  1  0.108018  0.000448  0.113151  0.113591  0.000408  0.997216  0.0
H  H17  1  0.64190713  0.62681926  0.45170023  1  0.108144  0.000468  0.11315  0.11362  0.000416  0.997159  0.0
H  H18  1  0.85809278  0.12681764  0.95169831  1  0.108163  0.00046  0.113172  0.113624  0.000419  0.997159  0.0
H  H19  1  0.35809228  0.37318247  0.54830005  1  0.108134  -0.000484  0.113168  0.113628  -0.000462  0.997154  0.0
H  H20  1  0.27657412  0.47972933  0.82302508  1  0.111662  -0.000437  0.096873  0.154704  -0.000278  1.00225  0.0
H  H21  1  0.77657292  0.02026907  0.67697638  1  0.111633  -0.000263  0.096868  0.154648  -0.000127  1.002257  0.0
H  H22  1  0.72342528  0.52027061  0.17697553  1  0.111651  -0.000433  0.096877  0.154677  -0.000292  1.002236  0.0
H  H23  1  0.22342648  0.97972996  0.32302546  1  0.11167  0.000267  0.096887  0.154709  9.8e-05  1.00223  0.0
H  H24  1  0.45703756  0.52554571  0.88483405  1  0.033845  0.000147  0.091083  0.136943  5.4e-05  1.026846  0.0
H  H25  1  0.95703622  0.97445289  0.61516833  1  0.033829  0.000302  0.091073  0.136896  0.000151  1.026886  0.0
H  H26  1  0.54296302  0.47445602  0.11516694  1  0.033833  0.000151  0.091076  0.136912  4.2e-05  1.026884  0.0
H  H27  1  0.04296319  0.02554524  0.38483475  1  0.033859  -0.000295  0.091087  0.13695  -0.000171  1.026857  0.0
H  H28  1  0.29188889  0.62510401  0.90255959  1  0.094814  0.000357  0.098877  0.155631  0.000251  1.008262  0.0
H  H29  1  0.79188774  0.87489388  0.59744318  1  0.09467  0.000391  0.098864  0.155594  0.000294  1.008224  0.0
H  H30  1  0.70811052  0.37489593  0.09744103  1  0.094815  0.000344  0.098887  0.155627  0.000245  1.008252  0.0
H  H31  1  0.20811166  0.12510604  0.40255956  1  0.094787  -0.000402  0.098869  0.155639  -0.000317  1.008229  0.0
H  H32  1  0.45325406  0.30717245  0.85453327  1  0.057083  0.001616  0.106705  0.112323  0.00079  1.038998  0.001
H  H33  1  0.95325469  0.19282664  0.64546853  1  0.057047  0.001681  0.106685  0.112312  0.000847  1.03899  0.001
H  H34  1  0.54674534  0.69282749  0.14546734  1  0.057059  0.001687  0.106699  0.112337  0.000854  1.039  0.001
H  H35  1  0.04674707  0.80717418  0.35453298  1  0.057054  -0.001591  0.106689  0.112299  -0.000801  1.039033  -0.001
H  H36  1  0.50566577  0.10578467  0.88167288  1  0.12972  7.9e-05  0.106754  0.111324  9.2e-05  1.008821  0.0
H  H37  1  0.00566424  0.39421494  0.61832713  1  0.129735  -8.2e-05  0.106752  0.11132  -0.000104  1.008848  0.0
H  H38  1  0.49433363  0.89421707  0.11832598  1  0.129709  -4e-05  0.106745  0.111284  -5.3e-05  1.008841  0.0
H  H39  1  0.99433516  0.60578678  0.38167457  1  0.12971  -3.7e-05  0.106756  0.111336  -6.9e-05  1.008817  0.0
H  H40  1  0.39437486  0.05774622  0.03479007  1  0.097753  0.001397  0.106251  0.113624  0.000753  1.014592  0.001
H  H41  1  0.89437343  0.44225107  0.46520903  1  0.097842  0.001288  0.106267  0.113663  0.000656  1.014592  0.001
H  H42  1  0.60562337  0.94225195  0.96520592  1  0.097791  0.001335  0.106277  0.11369  0.000678  1.014541  0.001
H  H43  1  0.10562480  0.55774796  0.53479281  1  0.097774  -0.001228  0.10627  0.113694  -0.00065  1.014519  -0.001
H  H44  1  0.22462298  0.21029645  0.14588375  1  0.116518  0.004123  0.110774  0.088551  0.002282  1.025513  0.002
H  H45  1  0.72462162  0.28970013  0.35411644  1  0.116584  0.004123  0.110765  0.088604  0.002282  1.025411  0.002
H  H46  1  0.77537642  0.78970260  0.85411454  1  0.116517  0.002808  0.110774  0.088581  0.001023  1.025505  0.002
H  H47  1  0.27537661  0.71029801  0.64588593  1  0.116503  -0.002809  0.110758  0.088581  -0.001132  1.025427  -0.002
C  C48  1  0.87103639  0.85954896  0.22165690  1  0.501041  -0.000482  0.048843  0.067498  -0.000321  3.931839  0.0
C  C49  1  0.37104067  0.64045057  0.27834048  1  0.501099  -0.000406  0.048766  0.06753  -0.000222  3.931813  0.0
C  C50  1  0.12896301  0.14045188  0.77834248  1  0.500708  0.000886  0.048887  0.06761  0.00061  3.931757  0.001
C  C51  1  0.62896226  0.35955027  0.72165961  1  0.501039  -0.00085  0.048856  0.067553  -0.000618  3.931693  -0.001
C  C52  1  0.87138424  0.04903720  0.19518803  1  0.453658  -0.000436  0.050354  0.107783  -0.000277  3.919821  0.0
C  C53  1  0.37139016  0.45096013  0.30480892  1  0.453266  -0.000207  0.050343  0.107751  -0.0001  3.919728  0.0
C  C54  1  0.12861517  0.95096275  0.80481116  1  0.453595  0.001114  0.050352  0.107796  0.000751  3.919928  0.001
C  C55  1  0.62861277  0.54904070  0.69519259  1  0.453484  -0.000965  0.050374  0.107745  -0.000684  3.919818  -0.001
C  C56  1  0.99030723  0.01803747  0.12547096  1  -0.00341  0.000479  -0.082861  -0.121005  0.000293  3.964591  0.0
C  C57  1  0.49031563  0.48196062  0.37452557  1  -0.001833  0.000801  -0.08289  -0.121172  0.000528  3.964697  0.0
C  C58  1  0.00968864  0.98196159  0.87452592  1  -0.001861  2e-05  -0.082914  -0.121148  -2e-05  3.964745  0.0
C  C59  1  0.50968612  0.51803932  0.62547434  1  -0.001736  0.000116  -0.082888  -0.121166  9.4e-05  3.964775  0.0
C  C60  1  0.04998710  0.90215111  0.10297630  1  -0.036696  0.000601  -0.057795  -0.047559  0.00044  3.911908  0.001
C  C61  1  0.54999339  0.59784788  0.39701992  1  -0.036863  0.000632  -0.057769  -0.047517  0.000447  3.912141  0.001
C  C62  1  0.95000643  0.09784795  0.89701916  1  -0.036785  0.001916  -0.05775  -0.047445  0.001308  3.912034  0.001
C  C63  1  0.45000718  0.40215295  0.60298017  1  -0.036836  -0.002013  -0.057778  -0.047545  -0.001469  3.912131  -0.001
C  C64  1  0.98959960  0.82025109  0.15220856  1  -0.048951  0.006387  -0.00764  -0.046278  0.004658  3.971628  0.005
C  C65  1  0.48960516  0.67974651  0.34779068  1  -0.049009  0.006508  -0.007595  -0.04628  0.00473  3.972017  0.005
C  C66  1  0.01039862  0.17974706  0.84779097  1  -0.049033  0.005768  -0.007683  -0.046406  0.004222  3.971947  0.004
C  C67  1  0.51039660  0.32025433  0.65220870  1  -0.048975  -0.005802  -0.007629  -0.046214  -0.004456  3.971786  -0.004
C  C68  1  0.04622013  0.69512445  0.13238114  1  1.285273  0.005886  0.210391  0.393261  0.005972  4.165311  0.005
C  C69  1  0.54622464  0.80487365  0.36761631  1  1.285613  0.005969  0.210349  0.393142  0.006117  4.165513  0.005
C  C70  1  0.95377928  0.30487460  0.86761645  1  1.285654  0.005778  0.210367  0.393221  0.005902  4.165291  0.005
C  C71  1  0.45377829  0.19512718  0.63238449  1  1.285613  -0.005886  0.210312  0.393095  -0.006444  4.165485  -0.005
C  C72  1  0.27306692  0.48462403  0.97510173  1  0.583407  -0.007925  0.132879  0.21326  -0.00423  3.913418  -0.004
C  C73  1  0.77306882  0.01537348  0.52490025  1  0.583268  -0.00782  0.132809  0.213367  -0.004024  3.913338  -0.004
C  C74  1  0.72693014  0.51537591  0.02489959  1  0.583289  -0.007878  0.132882  0.213329  -0.0042  3.913182  -0.004
C  C75  1  0.22693411  0.98462735  0.47510196  1  0.583628  0.007816  0.132877  0.213329  0.003424  3.913364  0.004
C  C76  1  0.32855640  0.53192191  0.89201120  1  -0.082677  0.006621  -0.243169  -0.448354  0.004628  3.924009  0.005
C  C77  1  0.82855740  0.96807683  0.60799249  1  -0.082592  0.006947  -0.243105  -0.448188  0.004977  3.923992  0.005
C  C78  1  0.67144182  0.46807802  0.10799083  1  -0.082712  0.006611  -0.243153  -0.448249  0.004613  3.923952  0.005
C  C79  1  0.17144317  0.03192310  0.39201025  1  -0.082697  -0.006922  -0.243173  -0.448379  -0.005245  3.923951  -0.005
C  C80  1  0.30924536  0.36382965  0.98388707  1  0.416558  0.003145  0.109496  0.139976  0.002833  3.994331  0.003
C  C81  1  0.80924811  0.13616781  0.51611565  1  0.41653  0.003167  0.109583  0.139999  0.002877  3.994169  0.003
C  C82  1  0.69075522  0.63617118  0.01611443  1  0.416582  0.002441  0.109559  0.140002  0.002383  3.99432  0.003
C  C83  1  0.19075717  0.86383122  0.48388691  1  0.416156  -0.0025  0.109551  0.139989  -0.002757  3.994311  -0.003
C  C84  1  0.40480875  0.28301283  0.91833746  1  0.031042  0.001384  -0.07617  -0.128316  0.001303  3.892708  0.001
C  C85  1  0.90480796  0.21698544  0.58166127  1  0.031039  0.00143  -0.076193  -0.128389  0.001348  3.892887  0.001
C  C86  1  0.59519300  0.71698979  0.08166371  1  0.031031  0.000865  -0.076233  -0.128481  0.000967  3.892869  0.001
C  C87  1  0.09519380  0.78301451  0.41833792  1  0.031066  -0.000702  -0.076177  -0.128323  -0.000979  3.892695  -0.001
C  C88  1  0.43553147  0.17067660  0.93452647  1  -0.051462  -0.003318  -0.06284  -0.015357  -0.002402  3.929068  -0.002
C  C89  1  0.93553152  0.32932073  0.56547423  1  -0.051467  -0.003585  -0.062814  -0.015268  -0.002635  3.929091  -0.002
C  C90  1  0.56446676  0.82932334  0.06547343  1  -0.051408  -0.003982  -0.062759  -0.015135  -0.002813  3.928945  -0.002
C  C91  1  0.06446906  0.67067920  0.43452781  1  -0.05138  0.004132  -0.062836  -0.015334  0.00277  3.929035  0.002
C  C92  1  0.37215323  0.14292457  0.01731301  1  -0.020439  0.004836  -0.08161  -0.121198  0.003473  3.941829  0.004
C  C93  1  0.87215324  0.35707364  0.48268697  1  -0.020816  0.004654  -0.081609  -0.121255  0.003339  3.941678  0.004
C  C94  1  0.62784618  0.85707538  0.98268476  1  -0.020465  0.003915  -0.081618  -0.121279  0.002675  3.941779  0.004
C  C95  1  0.12784852  0.64292719  0.51731454  1  -0.021078  -0.003774  -0.08162  -0.121294  -0.00277  3.941707  -0.004
C  C96  1  0.27698255  0.22727321  0.08001504  1  0.52966  -0.001568  0.051942  0.106977  1.8e-05  3.93659  -0.002
C  C97  1  0.77698259  0.27272331  0.41998449  1  0.529905  -0.001533  0.051976  0.106997  5.3e-05  3.936447  -0.002
C  C98  1  0.72301686  0.77272583  0.91998539  1  0.529699  -0.003181  0.051956  0.106952  -0.001486  3.936727  -0.002
C  C99  1  0.22301564  0.72727663  0.58001471  1  0.530348  0.003106  0.052015  0.106986  0.001116  3.936627  0.002
N  N100  1  0.81281287  0.97092978  0.24248046  1  -1.207692  0.000788  -0.338358  -0.259147  0.000825  3.575172  0.002
N  N101  1  0.31281737  0.52906803  0.25751650  1  -1.207804  0.000997  -0.338388  -0.259234  0.000982  3.575171  0.002
N  N102  1  0.18718771  0.02906927  0.75751855  1  -1.207584  -0.000791  -0.338397  -0.259252  -0.001095  3.57525  -0.002
N  N103  1  0.68718203  0.47093281  0.74248288  1  -1.207963  0.000745  -0.338445  -0.259257  0.000945  3.575205  0.002
N  N104  1  0.14341663  0.65986094  0.05574166  1  -0.707227  0.032639  -0.247196  -0.319649  0.02159  3.262146  0.02
N  N105  1  0.64342011  0.84013435  0.44425815  1  -0.707613  0.033236  -0.247163  -0.319585  0.022085  3.261951  0.02
N  N106  1  0.85657571  0.34013362  0.94425855  1  -0.707597  0.032372  -0.247163  -0.319616  0.021422  3.26186  0.02
N  N107  1  0.35657577  0.15986559  0.55574317  1  -0.707572  -0.032829  -0.247201  -0.319626  -0.023078  3.261881  -0.02
N  N108  1  0.18702024  0.54556739  0.04770164  1  -0.753785  0.125845  -0.249296  -0.135812  0.085108  3.759425  0.11
N  N109  1  0.68702110  0.95443144  0.45229683  1  -0.753536  0.126219  -0.249316  -0.135907  0.085442  3.759058  0.11
N  N110  1  0.81298034  0.45443166  0.95229666  1  -0.753581  0.125511  -0.249346  -0.135929  0.0849  3.759147  0.109
N  N111  1  0.31298301  0.04556760  0.54770289  1  -0.753668  -0.12586  -0.249323  -0.135876  -0.089799  3.759292  -0.11
N  N112  1  0.24429977  0.33338413  0.06295291  1  -1.205888  0.100019  -0.340319  -0.261867  0.068399  3.613536  0.087
N  N113  1  0.74430013  0.16661333  0.43704678  1  -1.205698  0.099825  -0.340391  -0.26197  0.068257  3.613423  0.087
N  N114  1  0.75569963  0.66661672  0.93704576  1  -1.205899  0.099257  -0.340356  -0.261865  0.06806  3.613552  0.086
N  N115  1  0.25569810  0.83338481  0.56295488  1  -1.205832  -0.099017  -0.340368  -0.261847  -0.07157  3.613714  -0.086
Cl  Cl116  1  0.98679013  0.36656317  0.24009400  1  -0.638877  0.094848  -0.346446  -0.529427  0.062459  1.14459  0.072
Cl  Cl117  1  0.48678732  0.13343760  0.25990593  1  -0.638838  0.094618  -0.346417  -0.529372  0.062306  1.144536  0.072
Cl  Cl118  1  0.01321632  0.63343678  0.75990449  1  -0.63889  0.094674  -0.346453  -0.529421  0.062466  1.144536  0.072
Cl  Cl119  1  0.51321326  0.86656413  0.74009506  1  -0.638853  -0.094408  -0.346438  -0.529405  -0.066192  1.144557  -0.071
O  O120  1  0.99901925  0.62903326  0.18839235  1  -1.110466  0.082035  -0.312859  -0.490171  0.054391  2.295077  0.074
O  O121  1  0.49901717  0.87096523  0.31160566  1  -1.110502  0.082541  -0.312834  -0.49009  0.054776  2.295128  0.075
O  O122  1  0.00098485  0.37096400  0.81160628  1  -1.110523  0.082006  -0.31285  -0.490111  0.05439  2.295077  0.074
O  O123  1  0.50098341  0.12903740  0.68839480  1  -1.110509  -0.082204  -0.312798  -0.490054  -0.057527  2.295126  -0.074
