# generated using pymatgen
data_NdH6C10N2O7
_symmetry_space_group_name_H-M   'P 1'
_cell_length_a   7.56012054
_cell_length_b   9.01183760
_cell_length_c   9.77232821
_cell_angle_alpha   117.45122955
_cell_angle_beta   92.41859568
_cell_angle_gamma   98.96601821
_symmetry_Int_Tables_number   1
_chemical_formula_structural   NdH6C10N2O7
_chemical_formula_sum   'Nd2 H12 C20 N4 O14'
_cell_volume   578.64836459
_cell_formula_units_Z   2
loop_
 _symmetry_equiv_pos_site_id
 _symmetry_equiv_pos_as_xyz
  1  'x, y, z'
loop_
 _atom_site_type_symbol
 _atom_site_label
 _atom_site_symmetry_multiplicity
 _atom_site_fract_x
 _atom_site_fract_y
 _atom_site_fract_z
 _atom_site_occupancy
 _atom_site_hle17_bader_spin_density
 _atom_site_hle17_ddec_charge
 _atom_site_hle17_ddec_spin_density
 _atom_site_hle17_ddec_sum_bond_order
 _atom_site_hle17_magmom
 _atom_site_hse06_10hf_bader_spin_density
 _atom_site_hse06_10hf_ddec_charge
 _atom_site_hse06_10hf_ddec_spin_density
 _atom_site_hse06_10hf_ddec_sum_bond_order
 _atom_site_hse06_10hf_magmom
 _atom_site_hse06_bader_spin_density
 _atom_site_hse06_ddec_charge
 _atom_site_hse06_ddec_spin_density
 _atom_site_hse06_ddec_sum_bond_order
 _atom_site_hse06_magmom
 _atom_site_pbe_bader_spin_density
 _atom_site_pbe_cm5_charge
 _atom_site_pbe_ddec_charge
 _atom_site_pbe_ddec_spin_density
 _atom_site_pbe_ddec_sum_bond_order
 _atom_site_pbe_magmom
Nd  Nd0  1  0.12540759  0.34620183  0.32002619  1  0  2.269498  0  1.649546  0  0  2.100242  0  2.11878  0  0  2.199569  0  1.968905  0  0  1.499449  2.067832  0  2.151686  0
Nd  Nd1  1  0.87459843  0.65379934  0.67997314  1  0  2.269465  0  1.649574  0  0  2.100239  0  2.118752  0  0  2.199523  0  1.968938  0  0  1.49944  2.067806  0  2.151687  0
H  H2  1  0.72525803  0.21204658  0.00449487  1  0  0.327586  0  0.918526  0  0  0.308014  0  0.976813  0  0  0.317814  0  0.968803  0  0  0.318018  0.301336  0  0.982076  0
H  H3  1  0.27474167  0.78795594  0.99550584  1  0  0.327614  0  0.91845  0  0  0.308006  0  0.976798  0  0  0.317806  0  0.96879  0  0  0.318019  0.301327  0  0.982064  0
H  H4  1  0.53814230  0.22071618  0.21501433  1  0  0.102687  0  0.928089  0  0  0.109688  0  0.994047  0  0  0.113389  0  0.989026  0  0  0.146894  0.105769  0  1.000077  0
H  H5  1  0.46185949  0.77928379  0.78498330  1  0  0.102676  0  0.92804  0  0  0.109663  0  0.994017  0  0  0.113363  0  0.988997  0  0  0.146891  0.105745  0  1.000044  0
H  H6  1  0.66422528  0.26209609  0.73102679  1  0  0.140213  0  0.938428  0  0  0.149016  0  0.995738  0  0  0.153621  0  0.992203  0  0  0.118394  0.145968  0  0.998127  0
H  H7  1  0.33576957  0.73790261  0.26897412  1  0  0.140204  0  0.938411  0  0  0.149004  0  0.995736  0  0  0.153612  0  0.992196  0  0  0.118373  0.145954  0  0.998128  0
H  H8  1  0.08011682  0.37715459  0.94529463  1  0  0.13903  0  0.945658  0  0  0.145903  0  1.008259  0  0  0.150351  0  1.00424  0  0  0.118929  0.142721  0  1.011314  0
H  H9  1  0.91988273  0.62284148  0.05470632  1  0  0.139048  0  0.945613  0  0  0.145916  0  1.008229  0  0  0.150368  0  1.004205  0  0  0.118935  0.142734  0  1.011279  0
H  H10  1  0.82722371  0.08072669  0.36338839  1  0  0.443049  0  0.80819  0  0  0.428817  0  0.852019  0  0  0.436365  0  0.841543  0  0  0.334816  0.423716  0  0.859195  0
H  H11  1  0.17278051  0.91927832  0.63661357  1  0  0.442964  0  0.808238  0  0  0.428734  0  0.852118  0  0  0.436282  0  0.841643  0  0  0.334784  0.423633  0  0.859294  0
H  H12  1  0.75199393  0.25412185  0.43236564  1  0  0.443825  0  0.851771  0  0  0.413317  0  0.914025  0  0  0.424016  0  0.898553  0  0  0.305797  0.405679  0  0.925276  0
H  H13  1  0.24800367  0.74588322  0.56763814  1  0  0.44383  0  0.851739  0  0  0.413324  0  0.913987  0  0  0.424022  0  0.898517  0  0  0.305817  0.405686  0  0.925239  0
C  C14  1  0.49409207  0.26425627  0.90489171  1  0  0.167933  0  3.793469  0  0  0.157905  0  4.041103  0  0  0.163489  0  4.061831  0  0  0.102117  0.154514  0  4.026346  0
C  C15  1  0.50590459  0.73573862  0.09510554  1  0  0.16797  0  3.793341  0  0  0.157928  0  4.041007  0  0  0.163512  0  4.061735  0  0  0.102142  0.154536  0  4.026249  0
C  C16  1  0.33074349  0.29802847  0.96788303  1  0  0.153407  0  3.821285  0  0  0.15471  0  4.07132  0  0  0.156703  0  4.096266  0  0  0.09243  0.153536  0  4.055353  0
C  C17  1  0.66925493  0.70196253  0.03211362  1  0  0.153386  0  3.821386  0  0  0.154683  0  4.071442  0  0  0.156675  0  4.09639  0  0  0.092422  0.153509  0  4.055475  0
C  C18  1  0.49134435  0.24021803  0.11906269  1  0  0.288871  0  3.651885  0  0  0.222792  0  3.943069  0  0  0.240226  0  3.95396  0  0  0.174087  0.211238  0  3.939602  0
C  C19  1  0.50865081  0.75978199  0.88093676  1  0  0.288771  0  3.651984  0  0  0.222711  0  3.943165  0  0  0.240144  0  3.954056  0  0  0.174007  0.211155  0  3.939698  0
C  C20  1  0.53466062  0.27992093  0.77404394  1  0  -0.149712  0  3.699893  0  0  -0.179396  0  3.952964  0  0  -0.181438  0  3.96963  0  0  -0.081101  -0.177926  0  3.941148  0
C  C21  1  0.46534214  0.72007764  0.22595823  1  0  -0.149685  0  3.699726  0  0  -0.179412  0  3.952777  0  0  -0.181444  0  3.96945  0  0  -0.081056  -0.17794  0  3.940958  0
C  C22  1  0.20338718  0.34464042  0.89589104  1  0  -0.110091  0  3.658804  0  0  -0.145645  0  3.91658  0  0  -0.143992  0  3.932257  0  0  -0.072668  -0.146767  0  3.905683  0
C  C23  1  0.79660771  0.65535834  0.10410682  1  0  -0.110102  0  3.65898  0  0  -0.145646  0  3.916776  0  0  -0.143993  0  3.932453  0  0  -0.072675  -0.146765  0  3.905878  0
C  C24  1  0.46207210  0.33055530  0.55643453  1  0  0.736283  0  3.821288  0  0  0.684909  0  4.11981  0  0  0.720549  0  4.110073  0  0  0.241884  0.660102  0  4.128883  0
C  C25  1  0.53792833  0.66944463  0.44356610  1  0  0.736345  0  3.821229  0  0  0.685003  0  4.119626  0  0  0.720654  0  4.109886  0  0  0.241939  0.66019  0  4.128709  0
C  C26  1  0.10026220  0.42697117  0.70645490  1  0  0.668067  0  3.893324  0  0  0.620706  0  4.187929  0  0  0.654929  0  4.184993  0  0  0.208269  0.596759  0  4.194294  0
C  C27  1  0.89973749  0.57303134  0.29354581  1  0  0.668058  0  3.893348  0  0  0.620701  0  4.187957  0  0  0.654925  0  4.185023  0  0  0.208289  0.596754  0  4.194322  0
C  C28  1  0.40691450  0.32653368  0.70129360  1  0  -0.073102  0  3.696234  0  0  -0.062679  0  3.940241  0  0  -0.066925  0  3.961367  0  0  -0.009168  -0.059296  0  3.925066  0
C  C29  1  0.59308902  0.67346235  0.29870646  1  0  -0.073241  0  3.696359  0  0  -0.062685  0  3.940179  0  0  -0.066962  0  3.961345  0  0  -0.009194  -0.059302  0  3.925005  0
C  C30  1  0.23911346  0.35796103  0.76183632  1  0  -0.092475  0  3.700486  0  0  -0.081401  0  3.945142  0  0  -0.089279  0  3.96734  0  0  -0.01835  -0.075859  0  3.929413  0
C  C31  1  0.76088907  0.64203637  0.23816021  1  0  -0.092404  0  3.700578  0  0  -0.081402  0  3.945248  0  0  -0.089268  0  3.967451  0  0  -0.018333  -0.075857  0  3.929516  0
C  C32  1  0.94867833  0.04541299  0.96577474  1  0  0.555442  0  3.937999  0  0  0.509038  0  4.240054  0  0  0.538309  0  4.236245  0  0  0.216662  0.48884  0  4.245682  0
C  C33  1  0.05131530  0.95458590  0.03421801  1  0  0.555252  0  3.93801  0  0  0.509008  0  4.239859  0  0  0.538245  0  4.236089  0  0  0.216735  0.488816  0  4.245482  0
N  N34  1  0.33372242  0.28273527  0.10350085  1  0  -0.545281  0  3.161864  0  0  -0.497073  0  3.447005  0  0  -0.522322  0  3.464956  0  0  -0.41951  -0.484766  0  3.436885  0
N  N35  1  0.66627376  0.71726344  0.89649908  1  0  -0.545261  0  3.161814  0  0  -0.497041  0  3.446921  0  0  -0.522284  0  3.464875  0  0  -0.419465  -0.484727  0  3.436794  0
N  N36  1  0.59110188  0.22662623  0.00320866  1  0  -0.33053  0  3.34566  0  0  -0.267265  0  3.581264  0  0  -0.285715  0  3.591861  0  0  -0.369457  -0.254318  0  3.572913  0
N  N37  1  0.40889796  0.77337112  0.99679184  1  0  -0.33043  0  3.345856  0  0  -0.267144  0  3.581473  0  0  -0.285594  0  3.592073  0  0  -0.369426  -0.254198  0  3.573122  0
O  O38  1  0.13205893  0.48339395  0.60745328  1  0  -0.82949  0  2.124702  0  0  -0.766627  0  2.386629  0  0  -0.803362  0  2.37494  0  0  -0.445362  -0.748803  0  2.393881  0
O  O39  1  0.86794501  0.51660979  0.39254812  1  0  -0.829423  0  2.124686  0  0  -0.766581  0  2.386655  0  0  -0.803313  0  2.374971  0  0  -0.445352  -0.748756  0  2.393906  0
O  O40  1  0.95378234  0.44161019  0.76536571  1  0  -0.655832  0  1.982423  0  0  -0.61011  0  2.223752  0  0  -0.6377  0  2.213247  0  0  -0.353354  -0.594339  0  2.230343  0
O  O41  1  0.04621871  0.55839237  0.23463199  1  0  -0.655908  0  1.982457  0  0  -0.610172  0  2.223759  0  0  -0.637781  0  2.213279  0  0  -0.353388  -0.594403  0  2.23035  0
O  O42  1  0.62868318  0.39026803  0.55963419  1  0  -0.74951  0  2.05735  0  0  -0.689939  0  2.306613  0  0  -0.721733  0  2.292905  0  0  -0.372569  -0.672887  0  2.315851  0
O  O43  1  0.37131677  0.60973570  0.44037013  1  0  -0.749519  0  2.057336  0  0  -0.689972  0  2.306587  0  0  -0.721765  0  2.292862  0  0  -0.372586  -0.672923  0  2.315831  0
O  O44  1  0.92930686  0.19504756  0.06170340  1  0  -0.665081  0  2.11739  0  0  -0.610814  0  2.357616  0  0  -0.641296  0  2.349447  0  0  -0.358042  -0.593076  0  2.361602  0
O  O45  1  0.07069071  0.80495123  0.93829151  1  0  -0.665111  0  2.11741  0  0  -0.610858  0  2.357547  0  0  -0.641329  0  2.349395  0  0  -0.358085  -0.593118  0  2.361528  0
O  O46  1  0.34900037  0.26258021  0.43472364  1  0  -0.714082  0  2.032694  0  0  -0.662504  0  2.286568  0  0  -0.69313  0  2.27047  0  0  -0.404564  -0.645293  0  2.297311  0
O  O47  1  0.65099557  0.73742352  0.56528360  1  0  -0.714118  0  2.032637  0  0  -0.662569  0  2.286485  0  0  -0.693188  0  2.270381  0  0  -0.404609  -0.64535  0  2.29723  0
O  O48  1  0.89075151  0.96761477  0.82309428  1  0  -0.627405  0  2.037613  0  0  -0.583963  0  2.278698  0  0  -0.611021  0  2.268475  0  0  -0.361501  -0.569088  0  2.284479  0
O  O49  1  0.10925151  0.03237883  0.17689856  1  0  -0.627371  0  2.037591  0  0  -0.583968  0  2.278594  0  0  -0.611024  0  2.268388  0  0  -0.361564  -0.569092  0  2.284361  0
O  O50  1  0.83880687  0.19044692  0.36509329  1  0  -0.893205  0  1.833754  0  0  -0.8476  0  2.010861  0  0  -0.87135  0  1.978104  0  0  -0.612083  -0.835551  0  2.030924  0
O  O51  1  0.16119497  0.80955934  0.63491220  1  0  -0.893102  0  1.833742  0  0  -0.847511  0  2.010909  0  0  -0.871254  0  1.978156  0  0  -0.61208  -0.835457  0  2.030972  0
