# generated using pymatgen
data_Co2H26C19(NO5)2
_symmetry_space_group_name_H-M   'P 1'
_cell_length_a   8.47570493
_cell_length_b   17.02836491
_cell_length_c   17.01726396
_cell_angle_alpha   117.29444824
_cell_angle_beta   99.52769235
_cell_angle_gamma   99.55923553
_symmetry_Int_Tables_number   1
_chemical_formula_structural   Co2H26C19(NO5)2
_chemical_formula_sum   'Co6 H78 C57 N6 O30'
_cell_volume   2068.82979808
_cell_formula_units_Z   3
loop_
 _symmetry_equiv_pos_site_id
 _symmetry_equiv_pos_as_xyz
  1  'x, y, z'
loop_
 _atom_site_type_symbol
 _atom_site_label
 _atom_site_symmetry_multiplicity
 _atom_site_fract_x
 _atom_site_fract_y
 _atom_site_fract_z
 _atom_site_occupancy
 _atom_site_pbe_bader_charge
 _atom_site_pbe_bader_spin_density
 _atom_site_pbe_cm5_charge
 _atom_site_pbe_ddec_charge
 _atom_site_pbe_ddec_spin_density
 _atom_site_pbe_ddec_sum_bond_order
 _atom_site_pbe_magmom
Co  Co0  1  0.58732148  0.93338762  0.15328643  1  1.291198  2.619233  0.640647  0.964958  2.812783  2.308661  2.602
Co  Co1  1  0.43475653  0.84690013  0.78028923  1  1.294527  2.618777  0.640497  0.96466  2.814243  2.311459  2.602
Co  Co2  1  0.65407689  0.21956438  0.06645953  1  1.290952  2.618716  0.641391  0.965797  2.813347  2.30939  2.602
Co  Co3  1  0.03160061  0.06808352  0.84989936  1  1.294423  2.618938  0.64533  0.961828  2.814715  2.321502  2.603
Co  Co4  1  0.18157055  0.15001376  0.21820991  1  1.302495  2.617963  0.645731  0.962969  2.814061  2.320377  2.602
Co  Co5  1  0.96325594  0.78191767  0.93224005  1  1.296937  2.618434  0.645  0.962241  2.814591  2.31923  2.603
H  H6  1  0.60173100  0.88497813  0.97684868  1  0.657654  0.001538  0.314207  0.41492  0.000906  0.894932  0.002
H  H7  1  0.62516408  0.02343244  0.90833344  1  0.67252  0.001573  0.312951  0.412542  0.000915  0.89664  0.002
H  H8  1  0.71683631  0.09159821  0.11505222  1  0.647666  0.001582  0.312742  0.412271  0.000919  0.896488  0.002
H  H9  1  0.41363224  0.87752645  0.97904527  1  0.675319  0.001128  0.307648  0.412516  0.000708  0.905629  0.001
H  H10  1  0.43454801  0.02075868  0.89838425  1  0.661834  0.001197  0.307507  0.411806  0.000702  0.906562  0.001
H  H11  1  0.53618732  0.10150033  0.12251851  1  0.658509  0.001178  0.307577  0.412086  0.000702  0.90602  0.001
H  H12  1  0.01830874  0.12325639  0.02614992  1  0.661542  0.001293  0.307662  0.413017  0.000815  0.906738  0.002
H  H13  1  0.99185064  0.97416121  0.09756794  1  0.669652  0.001274  0.308068  0.413893  0.000809  0.906041  0.002
H  H14  1  0.89517567  0.90280738  0.87681234  1  0.659381  0.001299  0.306882  0.412129  0.000814  0.908732  0.002
H  H15  1  0.20175504  0.11674331  0.02240764  1  0.635457  0.001312  0.314188  0.41176  0.000712  0.89739  0.001
H  H16  1  0.17866452  0.97731628  0.09434182  1  0.629241  0.001325  0.314187  0.413081  0.000712  0.898007  0.001
H  H17  1  0.08528230  0.90560052  0.88328865  1  0.64638  0.001284  0.314155  0.412768  0.000722  0.895635  0.001
H  H18  1  0.27961097  0.97624920  0.44400936  1  0.032691  0.00015  0.09319  0.095852  5.1e-05  1.027629  0.0
H  H19  1  0.83488497  0.55576232  0.53155534  1  0.017575  0.000151  0.092546  0.095299  5.1e-05  1.030333  0.0
H  H20  1  0.30260438  0.46787229  0.02358492  1  0.025524  0.000151  0.092996  0.095855  5.1e-05  1.030065  0.0
H  H21  1  0.15267736  0.89757657  0.29162812  1  0.009121  0.000127  0.088402  0.121092  5.4e-05  1.019143  0.0
H  H22  1  0.86056300  0.70806925  0.60540360  1  0.028638  0.000125  0.089135  0.122262  5.4e-05  1.016382  0.0
H  H23  1  0.25456711  0.39411011  0.10224328  1  0.029591  0.000126  0.088402  0.121995  5.4e-05  1.017738  0.0
H  H24  1  0.00988958  0.94942754  0.25879702  1  0.051168  1.3e-05  0.100518  0.152149  -0.000256  0.991409  0.0
H  H25  1  0.75047191  0.74084310  0.69011049  1  0.106337  3e-06  0.100012  0.152419  -0.00026  0.990292  0.0
H  H26  1  0.05989286  0.30945432  0.05039432  1  0.05692  1.2e-05  0.100227  0.152173  -0.000257  0.991316  0.0
H  H27  1  0.93496509  0.84287809  0.25176615  1  0.068205  0.000315  0.091737  0.127178  9.7e-05  1.020027  0.0
H  H28  1  0.68300602  0.74823878  0.59071806  1  0.039547  0.000331  0.0923  0.127861  0.000101  1.019429  0.0
H  H29  1  0.09168391  0.40881598  0.15714718  1  0.063134  0.000324  0.091056  0.126554  9.9e-05  1.020147  0.0
H  H30  1  0.32394119  0.02401254  0.66758202  1  0.03388  9.1e-05  0.097269  0.143707  -7.2e-05  0.996127  0.0
H  H31  1  0.65566548  0.33231976  0.35601852  1  0.086096  9e-05  0.097425  0.143082  -7.1e-05  0.997062  0.0
H  H32  1  0.29882644  0.64361537  0.97581390  1  0.028371  9.2e-05  0.09704  0.14355  -7.1e-05  0.99636  0.0
H  H33  1  0.36460256  0.13250138  0.67427154  1  0.0112  0.000335  0.09229  0.126985  0.000124  0.99481  0.0
H  H34  1  0.68949065  0.32566854  0.45790044  1  0.010723  0.000335  0.092392  0.126862  0.000123  0.995205  0.0
H  H35  1  0.23077182  0.54181399  0.86732714  1  9.3e-05  0.000338  0.092204  0.127525  0.000124  0.994508  0.0
H  H36  1  0.42759236  0.04189805  0.59272142  1  0.051722  6.3e-05  0.088897  0.125145  1.9e-05  1.027205  0.0
H  H37  1  0.83409600  0.40710775  0.44868687  1  0.030934  6.5e-05  0.089005  0.125733  2e-05  1.028117  0.0
H  H38  1  0.38467753  0.55096163  0.95788166  1  0.044538  6.4e-05  0.089341  0.125815  2e-05  1.028442  0.0
H  H39  1  0.14160475  0.11214928  0.72173197  1  0.089412  0.001447  0.107094  0.098572  0.000344  1.029626  0.001
H  H40  1  0.41932400  0.27840400  0.39044998  1  0.067303  0.001458  0.107259  0.097635  0.000344  1.03138  0.001
H  H41  1  0.02839567  0.60970747  0.88803149  1  0.079648  0.001459  0.107584  0.099134  0.000348  1.02978  0.001
H  H42  1  0.94045456  0.12318164  0.70018509  1  0.06763  0.000243  0.112156  0.104513  6.5e-05  0.991303  0.0
H  H43  1  0.23969937  0.30005143  0.42308857  1  0.04259  0.000244  0.111127  0.102203  6.2e-05  0.991961  0.0
H  H44  1  0.81625482  0.57719206  0.87724473  1  0.053195  0.000242  0.111153  0.102867  6.3e-05  0.991681  0.0
H  H45  1  0.61677095  0.97795263  0.51387588  1  0.031207  0.000141  0.091614  0.120347  4.5e-05  1.014031  0.0
H  H46  1  0.10228185  0.48625600  0.46376652  1  -0.001404  0.000142  0.091571  0.120158  4.5e-05  1.014009  0.0
H  H47  1  0.63824048  0.53608076  0.02263144  1  0.021901  0.000141  0.091499  0.118824  4.6e-05  1.014349  0.0
H  H48  1  0.66102785  0.06971380  0.49198028  1  0.034018  0.000339  0.090374  0.125699  0.000118  1.038999  0.0
H  H49  1  0.16841512  0.50836318  0.57752301  1  0.041252  0.000337  0.089475  0.124282  0.000119  1.040176  0.0
H  H50  1  0.59056469  0.42246297  0.93087997  1  0.036008  0.000339  0.089804  0.124471  0.000119  1.040783  0.0
H  H51  1  0.73621970  0.08862348  0.60372045  1  0.034006  9e-05  0.092833  0.125152  1.5e-05  1.027475  0.0
H  H52  1  0.13196296  0.39658252  0.48489516  1  0.023417  9.2e-05  0.092625  0.12512  1.6e-05  1.027451  0.0
H  H53  1  0.64665779  0.51516176  0.91179618  1  0.019514  8.9e-05  0.092717  0.124458  1.5e-05  1.027381  0.0
H  H54  1  0.60557178  0.91483122  0.35834711  1  0.040945  0.000515  0.107282  0.094049  0.000129  0.982001  0.0
H  H55  1  0.24714601  0.64219448  0.55668003  1  0.043368  0.000507  0.107031  0.093986  0.000126  0.982715  0.0
H  H56  1  0.69012108  0.44313465  0.08542072  1  0.051437  0.000507  0.107605  0.094917  0.000127  0.983451  0.0
H  H57  1  0.71900249  0.87996520  0.27646067  1  0.087956  0.002703  0.106933  0.096809  0.00102  1.028041  0.002
H  H58  1  0.44266781  0.72370236  0.60342455  1  0.087401  0.002698  0.106711  0.097208  0.001016  1.027872  0.002
H  H59  1  0.83879749  0.39628963  0.12011900  1  0.092129  0.002703  0.106784  0.097157  0.001021  1.028244  0.002
H  H60  1  0.89266515  0.10536756  0.40221101  1  0.085775  0.001913  0.108547  0.109123  0.000831  1.005281  0.001
H  H61  1  0.49137438  0.59801581  0.70299092  1  0.094594  0.001877  0.10782  0.107564  0.00082  1.00681  0.001
H  H62  1  0.78810636  0.29688275  0.89481375  1  0.074326  0.001902  0.108423  0.108538  0.000823  1.006952  0.001
H  H63  1  0.74623292  0.14844221  0.35877472  1  0.078018  -0.000297  0.117247  0.120217  -0.000488  0.966435  0.0
H  H64  1  0.38806953  0.64101270  0.78949188  1  0.060822  -0.000284  0.117066  0.120074  -0.000479  0.967605  0.0
H  H65  1  0.59831244  0.21054688  0.85136128  1  0.058874  -0.000285  0.11768  0.120687  -0.000483  0.967138  0.0
H  H66  1  0.52653493  0.08192349  0.39994925  1  0.05827  0.002234  0.098912  0.09241  0.001026  1.008489  0.001
H  H67  1  0.12733586  0.60030568  0.68241708  1  0.025234  0.002279  0.098797  0.092838  0.001028  1.007851  0.001
H  H68  1  0.44471886  0.31770715  0.91791115  1  0.028076  0.002277  0.098952  0.092406  0.001029  1.008031  0.001
H  H69  1  0.41715233  0.96712363  0.31103923  1  0.076022  -0.000218  0.115081  0.115478  -0.000393  1.004652  0.0
H  H70  1  0.10649041  0.68910062  0.65639358  1  0.063138  -0.000213  0.114602  0.114663  -0.000389  1.00449  0.0
H  H71  1  0.45000173  0.34365397  0.03277152  1  0.071204  -0.000225  0.11419  0.113607  -0.0004  1.005437  0.0
H  H72  1  0.07382309  0.91708003  0.60491176  1  0.094573  0.001643  0.109917  0.111935  0.000703  1.011444  0.001
H  H73  1  0.46787275  0.39491454  0.31168863  1  0.061629  0.001663  0.110291  0.111548  0.000703  1.012521  0.001
H  H74  1  0.15621903  0.68792963  0.08309366  1  0.077588  0.001647  0.1104  0.112088  0.000696  1.011884  0.001
H  H75  1  0.92441210  0.85834426  0.63316668  1  0.08773  -9.4e-05  0.115128  0.115219  -0.000269  1.002736  0.0
H  H76  1  0.29021796  0.36646078  0.22468768  1  0.06568  -9.7e-05  0.115317  0.115855  -0.000275  1.002941  0.0
H  H77  1  0.06536180  0.77467001  0.14213257  1  0.100017  -8.8e-05  0.115559  0.115365  -0.000262  1.003281  0.0
H  H78  1  0.71327757  0.91765061  0.60286199  1  0.061858  0.002388  0.103516  0.101468  0.001045  0.982063  0.001
H  H79  1  0.10944023  0.39686995  0.31457566  1  0.022085  0.002442  0.102783  0.100877  0.001051  0.983215  0.001
H  H80  1  0.79490412  0.68523653  0.08281340  1  0.043283  0.002418  0.103424  0.10216  0.00105  0.980615  0.001
H  H81  1  0.72111818  0.02904211  0.69150729  1  0.081491  -0.000356  0.118804  0.121117  -0.000521  0.988004  0.0
H  H82  1  0.02880187  0.30814687  0.33732078  1  0.081078  -0.000353  0.118024  0.120388  -0.000517  0.990109  0.0
H  H83  1  0.69125849  0.66248465  0.97132063  1  0.075892  -0.000359  0.11857  0.1207  -0.000522  0.989119  0.0
C  C84  1  0.87101528  0.97347699  0.41390336  1  0.025338  0.001872  -0.024596  -0.045136  0.000866  3.90364  0.001
C  C85  1  0.45658592  0.58614158  0.55917198  1  -0.023271  0.001871  -0.023991  -0.042948  0.000861  3.901856  0.001
C  C86  1  0.89697912  0.44053009  0.02674728  1  -0.025114  0.001887  -0.022727  -0.042367  0.000867  3.904251  0.001
C  C87  1  0.87082581  0.01671086  0.50747098  1  -0.041368  0.001026  -0.010438  0.083335  0.000463  3.93118  0.001
C  C88  1  0.36270686  0.49266619  0.50891722  1  -0.067129  0.001018  -0.010016  0.08364  0.000458  3.933389  0.001
C  C89  1  0.85338964  0.49094201  0.98367800  1  -0.079269  0.001025  -0.011731  0.081315  0.000462  3.930159  0.001
C  C90  1  0.01534043  0.04012291  0.57748035  1  -0.023121  0.00299  -0.026052  -0.04407  0.001399  3.912068  0.002
C  C91  1  0.43720532  0.42262481  0.46234085  1  -0.015765  0.002981  -0.025853  -0.043046  0.0014  3.914174  0.002
C  C92  1  0.97442990  0.53752315  0.96017353  1  0.013614  0.002984  -0.024412  -0.040275  0.001402  3.909801  0.002
C  C93  1  0.16563494  0.02777259  0.55438792  1  -0.063877  0.001612  -0.012392  0.126282  0.000723  3.996804  0.001
C  C94  1  0.61053170  0.44557293  0.47291879  1  -0.05221  0.001612  -0.012673  0.123708  0.000722  3.999946  0.001
C  C95  1  0.13708188  0.52682982  0.97237193  1  -0.074357  0.001612  -0.013426  0.125292  0.000722  3.99889  0.001
C  C96  1  0.16388752  0.98687169  0.46191290  1  -0.040774  8.1e-05  -0.104152  -0.22148  -3.1e-05  3.98543  0.0
C  C97  1  0.70134014  0.53797247  0.52434703  1  0.021363  8.3e-05  -0.103605  -0.220133  -1.9e-05  3.987351  0.0
C  C98  1  0.17637585  0.47521196  0.01315119  1  -0.000752  7.7e-05  -0.104162  -0.221839  -2.9e-05  3.988462  0.0
C  C99  1  0.01965676  0.95726743  0.39099995  1  -0.035992  0.001702  -0.007887  0.141673  0.000816  3.97656  0.001
C  C100  1  0.62804696  0.60888534  0.56566706  1  -0.024614  0.001684  -0.008337  0.141003  0.000806  3.97621  0.001
C  C101  1  0.06184726  0.43389068  0.04282917  1  -0.00882  0.001704  -0.008591  0.139623  0.000815  3.979509  0.001
C  C102  1  0.02968112  0.90953023  0.29336693  1  -0.045289  0.0002  -0.239758  -0.405323  -6.3e-05  3.934906  0.0
C  C103  1  0.73580609  0.70642782  0.61562488  1  -0.105419  0.0002  -0.240707  -0.407955  -5.6e-05  3.932043  0.0
C  C104  1  0.11962919  0.38389960  0.09040331  1  -0.086996  0.000201  -0.239111  -0.405615  -6.2e-05  3.934706  0.0
C  C105  1  0.32810546  0.05789885  0.62607812  1  -0.047856  0.000211  -0.23736  -0.405679  0.000118  3.944809  0.0
C  C106  1  0.70126677  0.37384130  0.43142616  1  -0.076056  0.000215  -0.23677  -0.404058  0.000118  3.94858  0.0
C  C107  1  0.26912832  0.56827426  0.94197677  1  -0.020048  0.000209  -0.237123  -0.40663  0.000118  3.94732  0.0
C  C108  1  0.01514340  0.07452965  0.67653675  1  0.23297  0.000867  -0.073629  -0.120643  0.000886  3.883896  -0.001
C  C109  1  0.33797452  0.32355907  0.39790516  1  0.270262  0.000852  -0.073033  -0.117417  0.000872  3.885085  -0.001
C  C110  1  0.93970159  0.60214936  0.92578504  1  0.255533  0.000861  -0.073145  -0.119859  0.000874  3.88428  -0.001
C  C111  1  0.71401583  0.03925707  0.53073450  1  -0.077808  0.000165  -0.243338  -0.413169  9.8e-05  3.992004  0.0
C  C112  1  0.18271808  0.46949811  0.50832305  1  -0.026804  0.000161  -0.242414  -0.41194  9.7e-05  3.994031  0.0
C  C113  1  0.67400322  0.49162453  0.96122194  1  -0.04397  0.000163  -0.242129  -0.409  9.7e-05  3.991623  0.0
C  C114  1  0.71128979  0.93944446  0.33819828  1  0.206198  0.000855  -0.069159  -0.102  0.000621  3.833172  -0.001
C  C115  1  0.37307180  0.66202306  0.60118321  1  0.207352  0.000844  -0.069345  -0.104492  0.000619  3.835894  -0.001
C  C116  1  0.77144549  0.39856584  0.06067957  1  0.211979  0.000803  -0.069564  -0.1051  0.000616  3.838565  -0.001
C  C117  1  0.79842550  0.08926906  0.34026532  1  0.223368  0.004592  -0.072567  -0.22965  0.002091  3.912928  0.002
C  C118  1  0.45879132  0.65980521  0.74894441  1  0.230252  0.004576  -0.071436  -0.227898  0.002083  3.913015  0.002
C  C119  1  0.70951405  0.25098876  0.91068729  1  0.256147  0.004528  -0.07346  -0.230713  0.002083  3.914151  0.002
C  C120  1  0.88585758  0.08537915  0.26763297  1  1.593805  -0.003053  0.212149  0.60731  -0.005273  4.166032  -0.002
C  C121  1  0.61853968  0.73246528  0.81786982  1  1.593506  -0.003081  0.214012  0.610156  -0.00528  4.162683  -0.002
C  C122  1  0.80028651  0.18203307  0.91434604  1  1.59506  -0.003012  0.213355  0.607643  -0.005229  4.165701  -0.002
C  C123  1  0.43546119  0.06526558  0.26630934  1  1.585136  -0.005093  0.209079  0.604087  -0.007222  4.164954  -0.004
C  C124  1  0.16981778  0.73393980  0.79930854  1  1.604294  -0.004992  0.210015  0.606135  -0.007125  4.16607  -0.004
C  C125  1  0.37030050  0.20086347  0.93468087  1  1.598995  -0.005066  0.209819  0.604488  -0.007237  4.163067  -0.004
C  C126  1  0.50992182  0.02986450  0.32784997  1  0.245827  0.004492  -0.076117  -0.246879  0.001927  3.96175  0.003
C  C127  1  0.18265104  0.67235325  0.70233367  1  0.292661  0.004438  -0.075082  -0.245633  0.001922  3.961624  0.003
C  C128  1  0.48014227  0.29771825  0.97002452  1  0.26888  0.004438  -0.074494  -0.243879  0.001918  3.960701  0.003
C  C129  1  0.02405676  0.92234096  0.66224541  1  0.202642  0.004857  -0.073274  -0.233735  0.002261  3.89176  0.002
C  C130  1  0.36094585  0.33753514  0.25972946  1  0.251839  0.00483  -0.073036  -0.233321  0.002258  3.893091  0.002
C  C131  1  0.10099197  0.73998069  0.07804615  1  0.22179  0.004798  -0.074174  -0.23381  0.002266  3.891181  0.002
C  C132  1  0.15699504  0.92051498  0.73353263  1  1.577574  -0.002545  0.21195  0.608951  -0.004666  4.162439  -0.002
C  C133  1  0.42288010  0.26628750  0.18674383  1  1.570723  -0.002586  0.211902  0.606251  -0.004678  4.16125  -0.002
C  C134  1  0.23568403  0.81326028  0.07996552  1  1.572662  -0.002465  0.212121  0.607183  -0.004604  4.158953  -0.002
C  C135  1  0.71627803  0.93217718  0.73608118  1  1.590349  -0.004699  0.212031  0.606707  -0.006994  4.159923  -0.004
C  C136  1  0.97976020  0.26376804  0.19588733  1  1.570855  -0.004665  0.213185  0.608652  -0.006973  4.161159  -0.004
C  C137  1  0.78328005  0.80385559  0.06823209  1  1.596877  -0.00471  0.21393  0.611166  -0.006968  4.15698  -0.004
C  C138  1  0.77108697  0.96967188  0.67586591  1  0.253949  0.004544  -0.075208  -0.237139  0.002004  3.93181  0.002
C  C139  1  0.09446105  0.32390659  0.29361098  1  0.297511  0.00446  -0.073454  -0.236652  0.002  3.935922  0.002
C  C140  1  0.80063020  0.70621005  0.03072871  1  0.25412  0.004524  -0.074502  -0.237874  0.001998  3.933323  0.002
N  N141  1  0.66354899  0.00596207  0.30858311  1  -0.979659  0.063  -0.32491  -0.09686  0.032603  3.497317  0.053
N  N142  1  0.35537863  0.69154793  0.69743044  1  -0.989082  0.063122  -0.325019  -0.097829  0.032499  3.498679  0.053
N  N143  1  0.65764961  0.30246888  0.99401053  1  -0.9865  0.063128  -0.324301  -0.095247  0.03255  3.496952  0.053
N  N144  1  0.95335845  0.00139073  0.69910295  1  -1.015696  0.065509  -0.331194  -0.091171  0.033774  3.524144  0.054
N  N145  1  0.25360490  0.30078649  0.30212149  1  -0.98887  0.065508  -0.331749  -0.091111  0.033782  3.526809  0.054
N  N146  1  0.95122819  0.69780333  0.99900188  1  -0.998308  0.06549  -0.332123  -0.092989  0.033759  3.52809  0.054
O  O147  1  0.81212446  0.02806297  0.18321015  1  -1.1716  0.054395  -0.302584  -0.566858  0.027623  2.374403  0.047
O  O148  1  0.62906821  0.81683349  0.84500728  1  -1.166693  0.054537  -0.303124  -0.567393  0.027718  2.37592  0.047
O  O149  1  0.78343446  0.15473884  0.97152808  1  -1.173881  0.054691  -0.304024  -0.56796  0.027737  2.375041  0.047
O  O150  1  0.52905066  0.90064745  0.01760369  1  -1.2761  0.057843  -0.572742  -0.766186  0.029819  2.209057  0.047
O  O151  1  0.51193639  0.98248574  0.88331102  1  -1.276027  0.057772  -0.571985  -0.762866  0.029844  2.210472  0.047
O  O152  1  0.62860344  0.11668891  0.09929476  1  -1.247275  0.057576  -0.571777  -0.763311  0.029761  2.209463  0.047
O  O153  1  0.08857612  0.10078172  0.98445935  1  -1.236516  0.059596  -0.573261  -0.765496  0.03091  2.220439  0.048
O  O154  1  0.10384222  0.01551938  0.11637774  1  -1.238128  0.059607  -0.573239  -0.767411  0.030915  2.22208  0.048
O  O155  1  0.98798157  0.88362295  0.89927255  1  -1.245496  0.05943  -0.572228  -0.765701  0.03084  2.220276  0.048
O  O156  1  0.02725074  0.14280435  0.29802084  1  -1.17283  0.067765  -0.314933  -0.555308  0.035306  2.350724  0.056
O  O157  1  0.72949483  0.70209751  0.84501414  1  -1.176745  0.067703  -0.316161  -0.556838  0.03524  2.349066  0.056
O  O158  1  0.88441097  0.15502659  0.85692580  1  -1.175703  0.067765  -0.315048  -0.554554  0.035174  2.350741  0.056
O  O159  1  0.45931646  0.03353229  0.18672767  1  -1.159397  0.059659  -0.303918  -0.558294  0.030646  2.368652  0.051
O  O160  1  0.27303878  0.81351320  0.84699556  1  -1.172993  0.059871  -0.302863  -0.556959  0.030565  2.36855  0.051
O  O161  1  0.42578111  0.15304636  0.96646028  1  -1.164291  0.059899  -0.303105  -0.557074  0.030673  2.366498  0.051
O  O162  1  0.35181649  0.12166828  0.29863247  1  -1.171057  0.061856  -0.314364  -0.553657  0.031611  2.336077  0.052
O  O163  1  0.05400193  0.70168087  0.82355666  1  -1.170511  0.061255  -0.315243  -0.555537  0.031499  2.336518  0.052
O  O164  1  0.23022622  0.17678017  0.87828891  1  -1.171859  0.061425  -0.315465  -0.554831  0.031638  2.337779  0.052
O  O165  1  0.17747141  0.97584314  0.81858867  1  -1.157872  0.055098  -0.303842  -0.56641  0.028311  2.371757  0.048
O  O166  1  0.35846060  0.18130829  0.15718750  1  -1.15433  0.055503  -0.304228  -0.564816  0.028158  2.373591  0.048
O  O167  1  0.20081933  0.84296063  0.02460605  1  -1.156019  0.05566  -0.304068  -0.564981  0.02832  2.373363  0.048
O  O168  1  0.23504568  0.86078886  0.70145238  1  -1.166312  0.064331  -0.320006  -0.557885  0.033258  2.308408  0.054
O  O169  1  0.53307251  0.29835324  0.15908391  1  -1.168933  0.064511  -0.319541  -0.556828  0.033317  2.307219  0.054
O  O170  1  0.37338145  0.84097960  0.13974482  1  -1.178528  0.064352  -0.319527  -0.556898  0.033275  2.305679  0.054
O  O171  1  0.81513176  0.96269984  0.81508051  1  -1.162704  0.057556  -0.299674  -0.55627  0.029369  2.353587  0.05
O  O172  1  0.99994529  0.18486031  0.14751309  1  -1.170077  0.057559  -0.300469  -0.557587  0.029274  2.35389  0.05
O  O173  1  0.85175353  0.85231989  0.03770101  1  -1.168693  0.057683  -0.300066  -0.55824  0.029306  2.350697  0.05
O  O174  1  0.57256837  0.87650235  0.70362309  1  -1.177393  0.062044  -0.316686  -0.564073  0.032236  2.382508  0.051
O  O175  1  0.86849730  0.29620967  0.17259687  1  -1.170231  0.061936  -0.31708  -0.564562  0.032139  2.382432  0.051
O  O176  1  0.69508347  0.82705034  0.12389420  1  -1.172334  0.06203  -0.317607  -0.565472  0.032101  2.381406  0.051
