# generated using pymatgen
data_InH5C8O5
_symmetry_space_group_name_H-M   'P 1'
_cell_length_a   11.79415713
_cell_length_b   18.61739281
_cell_length_c   29.02648934
_cell_angle_alpha   90.02029475
_cell_angle_beta   90.00030404
_cell_angle_gamma   89.99996853
_symmetry_Int_Tables_number   1
_chemical_formula_structural   InH5C8O5
_chemical_formula_sum   'In16 H80 C128 O80'
_cell_volume   6373.53326592
_cell_formula_units_Z   16
loop_
 _symmetry_equiv_pos_site_id
 _symmetry_equiv_pos_as_xyz
  1  'x, y, z'
loop_
 _atom_site_type_symbol
 _atom_site_label
 _atom_site_symmetry_multiplicity
 _atom_site_fract_x
 _atom_site_fract_y
 _atom_site_fract_z
 _atom_site_occupancy
 _atom_site_pbe_bader_charge
 _atom_site_pbe_bader_spin_density
 _atom_site_pbe_cm5_charge
 _atom_site_pbe_ddec_charge
 _atom_site_pbe_ddec_spin_density
 _atom_site_pbe_ddec_sum_bond_order
 _atom_site_pbe_magmom
In  In0  1  0.00265529  0.00193777  0.87492486  1  1.957599  0  0.772047  1.536325  0  2.811616  0
In  In1  1  0.00323314  0.99989664  0.74992450  1  1.960816  0  0.772704  1.538866  0  2.813589  0
In  In2  1  0.50228976  0.50205232  0.87499821  1  1.957976  0  0.771668  1.536009  0  2.817139  0
In  In3  1  0.50265103  0.49806272  0.62507532  1  1.957726  0  0.772085  1.536337  0  2.811656  0
In  In4  1  0.50324790  0.50010157  0.75007518  1  1.960503  0  0.772698  1.53888  0  2.813731  0
In  In5  1  0.00229543  0.99795288  0.62499734  1  1.958144  0  0.771664  1.53615  0  2.817225  0
In  In6  1  0.99735693  0.99805466  0.12506990  1  1.957697  0  0.772086  1.53656  0  2.811589  0
In  In7  1  0.99676467  0.00010331  0.25007061  1  1.960736  0  0.772759  1.539019  0  2.813638  0
In  In8  1  0.49770805  0.49795193  0.12499897  1  1.958014  0  0.771665  1.53613  0  2.817232  0
In  In9  1  0.49735017  0.50193776  0.37492737  1  1.957497  0  0.772022  1.536489  0  2.811624  0
In  In10  1  0.49677026  0.49989247  0.24992613  1  1.960706  0  0.772732  1.538867  0  2.813626  0
In  In11  1  0.99770832  0.00204492  0.37500053  1  1.958063  0  0.771618  1.535876  0  2.817242  0
In  In12  1  0.49999621  0.50000896  0.99998517  1  1.960676  0  0.773098  1.540196  0  2.798394  0
In  In13  1  0.99999881  0.99999928  0.49997804  1  1.960674  0  0.773077  1.540118  0  2.798347  0
In  In14  1  0.00000394  0.00000938  0.99998488  1  1.961615  0  0.77309  1.541111  0  2.806374  0
In  In15  1  0.49999721  0.50000508  0.50002185  1  1.961693  0  0.773111  1.541153  0  2.806298  0
H  H16  1  0.76038298  0.83193405  0.00942267  1  0.06395  0  0.110461  0.117253  0  0.993589  0
H  H17  1  0.66014189  0.71288535  0.01222759  1  0.104147  0  0.105583  0.107408  0  1.004832  0
H  H18  1  0.69074140  0.69420128  0.86521898  1  0.100014  0  0.110545  0.116216  0  0.995899  0
H  H19  1  0.79101895  0.81321132  0.86251844  1  0.09074  0  0.105663  0.108438  0  1.003494  0
H  H20  1  0.28534153  0.68569524  0.73741666  1  0.080519  0  0.106238  0.108695  0  1.003683  0
H  H21  1  0.18603978  0.80518627  0.73972724  1  0.104164  0  0.110344  0.116886  0  0.995038  0
H  H22  1  0.16898908  0.79253123  0.88729021  1  0.087963  0  0.105221  0.107382  0  1.005324  0
H  H23  1  0.26870290  0.67323572  0.88500549  1  0.105108  0  0.110812  0.116387  0  0.994137  0
H  H24  1  0.81380719  0.20238797  0.01231080  1  0.094613  0  0.10513  0.106394  0  1.005859  0
H  H25  1  0.71408147  0.32159908  0.01013062  1  0.094614  0  0.110676  0.117175  0  0.994345  0
H  H26  1  0.73870512  0.32322597  0.86254775  1  0.086758  0  0.105534  0.107887  0  1.003511  0
H  H27  1  0.83842236  0.20401592  0.86465696  1  0.122585  0  0.110457  0.116398  0  0.996919  0
H  H28  1  0.32933044  0.30195843  0.73976825  1  0.083981  0  0.11039  0.117348  0  0.99523  0
H  H29  1  0.22999655  0.18259095  0.73738374  1  0.09707  0  0.105862  0.108001  0  1.004791  0
H  H30  1  0.22370626  0.17760518  0.88531283  1  0.098678  0  0.110816  0.116613  0  0.995927  0
H  H31  1  0.32307322  0.29694739  0.88763774  1  0.081631  0  0.105143  0.10765  0  1.005132  0
H  H32  1  0.84264072  0.98134019  0.81260970  1  0.606906  0  0.325535  0.409908  0  0.881306  0
H  H33  1  0.14455520  0.95213254  0.93749063  1  0.619959  0  0.323794  0.407018  0  0.886501  0
H  H34  1  0.66234743  0.48045170  0.81301479  1  0.601139  0  0.324651  0.40852  0  0.883583  0
H  H35  1  0.35820612  0.45209288  0.93667564  1  0.594618  0  0.324025  0.40793  0  0.885606  0
H  H36  1  0.26038012  0.66806490  0.49057995  1  0.063982  0  0.110468  0.117305  0  0.993578  0
H  H37  1  0.16013635  0.78711255  0.48777102  1  0.104102  0  0.105575  0.107408  0  1.004792  0
H  H38  1  0.19074821  0.80580386  0.63477939  1  0.100092  0  0.110544  0.116198  0  0.995952  0
H  H39  1  0.29102336  0.68679377  0.63748359  1  0.090757  0  0.105671  0.108408  0  1.003396  0
H  H40  1  0.78534261  0.81429858  0.76258640  1  0.080711  0  0.106235  0.108643  0  1.003853  0
H  H41  1  0.68603754  0.69480866  0.76027766  1  0.103955  0  0.110276  0.116726  0  0.995081  0
H  H42  1  0.66899933  0.70746532  0.61271328  1  0.087951  0  0.105198  0.107396  0  1.005297  0
H  H43  1  0.76871561  0.82676240  0.61499581  1  0.105405  0  0.110791  0.116399  0  0.993839  0
H  H44  1  0.31379315  0.29761002  0.48768899  1  0.09461  0  0.105088  0.106365  0  1.005896  0
H  H45  1  0.21408198  0.17839572  0.48987033  1  0.094521  0  0.110682  0.117244  0  0.994355  0
H  H46  1  0.23871887  0.17677284  0.63745260  1  0.086747  0  0.105541  0.107871  0  1.003421  0
H  H47  1  0.33841562  0.29598446  0.63534016  1  0.122664  0  0.110431  0.116359  0  0.996962  0
H  H48  1  0.82933159  0.19803766  0.76023057  1  0.083488  0  0.110359  0.117311  0  0.995124  0
H  H49  1  0.73000949  0.31740839  0.76261831  1  0.09725  0  0.105862  0.107994  0  1.004947  0
H  H50  1  0.72368676  0.32240277  0.61469024  1  0.09865  0  0.110753  0.116569  0  0.995817  0
H  H51  1  0.82304786  0.20305944  0.61236107  1  0.081701  0  0.1052  0.107714  0  1.005294  0
H  H52  1  0.34263745  0.51866221  0.68739073  1  0.606845  0  0.325514  0.409878  0  0.88133  0
H  H53  1  0.64455137  0.54786670  0.56251315  1  0.620011  0  0.32382  0.40704  0  0.886458  0
H  H54  1  0.16234839  0.01954605  0.68698505  1  0.601138  0  0.32457  0.408433  0  0.883694  0
H  H55  1  0.85821418  0.04790373  0.56331808  1  0.594734  0  0.323953  0.407937  0  0.88555  0
H  H56  1  0.23961906  0.16806644  0.99057830  1  0.064011  0  0.110465  0.117323  0  0.993511  0
H  H57  1  0.33985252  0.28711513  0.98777579  1  0.10421  0  0.105564  0.107379  0  1.004882  0
H  H58  1  0.30925556  0.30579975  0.13478164  1  0.099969  0  0.110523  0.116186  0  0.995874  0
H  H59  1  0.20897717  0.18679292  0.13748356  1  0.090517  0  0.105648  0.108458  0  1.003476  0
H  H60  1  0.71466306  0.31429558  0.26258397  1  0.080457  0  0.106249  0.108765  0  1.003754  0
H  H61  1  0.81397244  0.19480724  0.26027579  1  0.104553  0  0.110332  0.116794  0  0.99497  0
H  H62  1  0.83099262  0.20746120  0.11271041  1  0.08792  0  0.105235  0.107442  0  1.005312  0
H  H63  1  0.73128050  0.32676101  0.11499445  1  0.105367  0  0.110757  0.116352  0  0.993866  0
H  H64  1  0.18620334  0.79760875  0.98768742  1  0.0946  0  0.105065  0.106321  0  1.005882  0
H  H65  1  0.28591973  0.67839819  0.98987173  1  0.094595  0  0.110695  0.117196  0  0.994486  0
H  H66  1  0.26128675  0.67677291  0.13745218  1  0.086651  0  0.105501  0.107774  0  1.00355  0
H  H67  1  0.16158138  0.79598242  0.13533988  1  0.122766  0  0.110463  0.116393  0  0.99701  0
H  H68  1  0.67066906  0.69803937  0.26023203  1  0.083979  0  0.110392  0.117344  0  0.995167  0
H  H69  1  0.76999787  0.81741007  0.26261861  1  0.097188  0  0.105858  0.108051  0  1.004781  0
H  H70  1  0.77629748  0.82240122  0.11468917  1  0.09866  0  0.110797  0.116596  0  0.995873  0
H  H71  1  0.67692883  0.70305793  0.11236288  1  0.081709  0  0.105164  0.107681  0  1.005162  0
H  H72  1  0.15735794  0.01866137  0.18738645  1  0.606912  0  0.325555  0.409907  0  0.881282  0
H  H73  1  0.85545448  0.04785882  0.06250758  1  0.620319  0  0.323813  0.407209  0  0.886268  0
H  H74  1  0.33765207  0.51954341  0.18698584  1  0.601161  0  0.324631  0.40847  0  0.883649  0
H  H75  1  0.64178575  0.54790384  0.06331844  1  0.594729  0  0.323949  0.407926  0  0.885568  0
H  H76  1  0.73962702  0.33193398  0.50942343  1  0.063878  0  0.110449  0.117274  0  0.993528  0
H  H77  1  0.83986316  0.21288686  0.51222444  1  0.10408  0  0.1056  0.107465  0  1.004886  0
H  H78  1  0.80925299  0.19420898  0.36521883  1  0.100068  0  0.110517  0.116165  0  0.995972  0
H  H79  1  0.70897615  0.31321316  0.36252013  1  0.090661  0  0.105687  0.108463  0  1.003592  0
H  H80  1  0.21465181  0.18570513  0.23741767  1  0.08015  0  0.106294  0.108745  0  1.0038  0
H  H81  1  0.31396366  0.30519075  0.23973054  1  0.104226  0  0.11035  0.116859  0  0.995135  0
H  H82  1  0.33100357  0.29252765  0.38729354  1  0.087809  0  0.105216  0.107429  0  1.005319  0
H  H83  1  0.23128304  0.17323594  0.38500688  1  0.105272  0  0.110785  0.116357  0  0.994114  0
H  H84  1  0.68620211  0.70239155  0.51231336  1  0.094583  0  0.105025  0.10631  0  1.005891  0
H  H85  1  0.78592176  0.82160315  0.51013202  1  0.094447  0  0.110673  0.117182  0  0.994342  0
H  H86  1  0.76128742  0.82322335  0.36255010  1  0.086705  0  0.105476  0.107766  0  1.003652  0
H  H87  1  0.66157964  0.70401388  0.36466046  1  0.122728  0  0.110446  0.116412  0  0.996838  0
H  H88  1  0.17067639  0.80195584  0.23976798  1  0.08386  0  0.110424  0.117416  0  0.99519  0
H  H89  1  0.27000273  0.68258887  0.23737645  1  0.097081  0  0.105818  0.108006  0  1.004742  0
H  H90  1  0.27629748  0.67759933  0.38530522  1  0.09863  0  0.110832  0.116634  0  0.995959  0
H  H91  1  0.17692875  0.79694051  0.38763542  1  0.081874  0  0.105127  0.107564  0  1.00512  0
H  H92  1  0.65735358  0.48133935  0.31261162  1  0.60696  0  0.325518  0.40987  0  0.881339  0
H  H93  1  0.35545576  0.45214023  0.43749471  1  0.620331  0  0.323778  0.407159  0  0.88633  0
H  H94  1  0.83765705  0.98045229  0.31301178  1  0.601156  0  0.324668  0.408596  0  0.883485  0
H  H95  1  0.14179296  0.95208977  0.43667600  1  0.59457  0  0.324023  0.407864  0  0.885694  0
C  C96  1  0.84534967  0.89871124  0.93474327  1  1.558881  0  0.240276  0.615771  0  4.168934  0
C  C97  1  0.78129087  0.82928021  0.93583376  1  -0.061745  0  -0.011003  -0.026317  0  3.9511  0
C  C98  1  0.74444918  0.80123399  0.97812513  1  0.043413  0  -0.078378  -0.089911  0  3.961517  0
C  C99  1  0.68944572  0.73518754  0.97962808  1  -0.064376  0  -0.080578  -0.092294  0  3.976034  0
C  C100  1  0.67082778  0.69634888  0.93891535  1  0.037022  0  -0.010749  -0.029521  0  3.955727  0
C  C101  1  0.70643749  0.72483499  0.89655514  1  -0.128931  0  -0.078685  -0.090167  0  3.964761  0
C  C102  1  0.76149777  0.79083579  0.89506251  1  0.024277  0  -0.080127  -0.091249  0  3.973418  0
C  C103  1  0.61333833  0.62464153  0.94017577  1  1.569325  0  0.245076  0.620548  0  4.156208  0
C  C104  1  0.34998506  0.60475037  0.81011945  1  1.560989  0  0.244951  0.621203  0  4.155509  0
C  C105  1  0.28336137  0.67311145  0.81110299  1  -0.010977  0  -0.010159  -0.030147  0  3.955762  0
C  C106  1  0.25912197  0.70954960  0.76999115  1  -0.053546  0  -0.08018  -0.091642  0  3.97374  0
C  C107  1  0.20449320  0.77566391  0.77123593  1  -0.014795  0  -0.078704  -0.089427  0  3.963196  0
C  C108  1  0.17364938  0.80600130  0.81366634  1  -0.024449  0  -0.010759  -0.026817  0  3.95264  0
C  C109  1  0.19513572  0.76866935  0.85470193  1  -0.059285  0  -0.081253  -0.092303  0  3.975752  0
C  C110  1  0.24991456  0.70259747  0.85346750  1  -0.004598  0  -0.077765  -0.088752  0  3.96406  0
C  C111  1  0.11919188  0.87860522  0.81481992  1  1.567092  0  0.241081  0.615781  0  4.170086  0
C  C112  1  0.88910476  0.12458581  0.93960717  1  1.566591  0  0.245678  0.62043  0  4.156708  0
C  C113  1  0.83124641  0.19617560  0.93858399  1  -0.015086  0  -0.010559  -0.027927  0  3.954378  0
C  C114  1  0.79697969  0.22931058  0.97969388  1  -0.031615  0  -0.080519  -0.092296  0  3.976162  0
C  C115  1  0.74207959  0.29538883  0.97857253  1  -0.03623  0  -0.078516  -0.088694  0  3.961412  0
C  C116  1  0.72090272  0.32918828  0.93625734  1  -0.002688  0  -0.011161  -0.028869  0  3.951645  0
C  C117  1  0.75597746  0.29636968  0.89515989  1  -0.056164  0  -0.080224  -0.089064  0  3.96975  0
C  C118  1  0.81093352  0.23029035  0.89627435  1  -0.046004  0  -0.078571  -0.092043  0  3.965196  0
C  C119  1  0.65730509  0.39877081  0.93520772  1  1.558418  0  0.240599  0.617111  0  4.166066  0
C  C120  1  0.38600388  0.37882360  0.81486424  1  1.565854  0  0.240704  0.616302  0  4.169132  0
C  C121  1  0.33072822  0.30645821  0.81380221  1  -0.043022  0  -0.010686  -0.025496  0  3.951124  0
C  C122  1  0.30602251  0.27404212  0.77134668  1  -0.025236  0  -0.078644  -0.090689  0  3.963618  0
C  C123  1  0.25140990  0.20790312  0.77009696  1  -0.052515  0  -0.080429  -0.091793  0  3.976299  0
C  C124  1  0.22109771  0.17340940  0.81124170  1  -0.063235  0  -0.009594  -0.028257  0  3.954898  0
C  C125  1  0.24779085  0.20518201  0.85371542  1  0.030051  0  -0.078128  -0.089503  0  3.964406  0
C  C126  1  0.30245858  0.27131510  0.85494412  1  0.003865  0  -0.08125  -0.09334  0  3.975376  0
C  C127  1  0.15550000  0.10462936  0.81016391  1  1.559826  0  0.245065  0.620606  0  4.154492  0
C  C128  1  0.34534474  0.60129062  0.56525957  1  1.558486  0  0.240229  0.615639  0  4.168914  0
C  C129  1  0.28129010  0.67072167  0.56416825  1  -0.061397  0  -0.010961  -0.026305  0  3.95119  0
C  C130  1  0.24445124  0.69876307  0.52187611  1  0.043455  0  -0.078417  -0.089984  0  3.961496  0
C  C131  1  0.18944175  0.76481222  0.52037235  1  -0.06427  0  -0.08052  -0.092249  0  3.975781  0
C  C132  1  0.17082685  0.80365519  0.56108366  1  0.037158  0  -0.01075  -0.02949  0  3.955576  0
C  C133  1  0.20643714  0.77517282  0.60344430  1  -0.12922  0  -0.078673  -0.09014  0  3.964594  0
C  C134  1  0.26149750  0.70917093  0.60493808  1  0.024111  0  -0.080275  -0.091322  0  3.973209  0
C  C135  1  0.11333902  0.87536363  0.55982071  1  1.568773  0  0.244996  0.620395  0  4.156539  0
C  C136  1  0.84999106  0.89524718  0.68988203  1  1.560926  0  0.244993  0.62128  0  4.155932  0
C  C137  1  0.78337420  0.82688614  0.68890281  1  -0.011428  0  -0.009851  -0.029801  0  3.955676  0
C  C138  1  0.75912603  0.79044960  0.73001219  1  -0.053547  0  -0.080316  -0.091749  0  3.974051  0
C  C139  1  0.70449985  0.72433370  0.72876489  1  -0.015336  0  -0.078614  -0.089283  0  3.963046  0
C  C140  1  0.67365381  0.69399309  0.68633406  1  -0.024215  0  -0.010756  -0.026735  0  3.952361  0
C  C141  1  0.69513959  0.73132558  0.64529955  1  -0.059107  0  -0.08135  -0.092315  0  3.975614  0
C  C142  1  0.74992432  0.79739637  0.64653789  1  -0.004436  0  -0.077844  -0.089008  0  3.963816  0
C  C143  1  0.61919212  0.62139188  0.68518278  1  1.567432  0  0.241274  0.615898  0  4.170197  0
C  C144  1  0.38909952  0.37541616  0.56039178  1  1.566474  0  0.24573  0.620563  0  4.156214  0
C  C145  1  0.33123871  0.30381995  0.56141518  1  -0.015047  0  -0.010695  -0.028208  0  3.954593  0
C  C146  1  0.29697064  0.27068606  0.52030419  1  -0.031565  0  -0.080454  -0.092217  0  3.976322  0
C  C147  1  0.24207739  0.20460836  0.52142610  1  -0.036385  0  -0.078516  -0.088796  0  3.961695  0
C  C148  1  0.22090957  0.17081107  0.56374091  1  -0.003349  0  -0.011156  -0.028814  0  3.951456  0
C  C149  1  0.25598143  0.20362912  0.60484050  1  -0.055671  0  -0.08021  -0.089028  0  3.969575  0
C  C150  1  0.31093064  0.26970789  0.60372581  1  -0.045981  0  -0.07857  -0.091952  0  3.965435  0
C  C151  1  0.15730269  0.10122265  0.56479211  1  1.558029  0  0.240522  0.617163  0  4.165806  0
C  C152  1  0.88600073  0.12117408  0.68513437  1  1.565581  0  0.240804  0.61652  0  4.168608  0
C  C153  1  0.83071739  0.19354432  0.68619455  1  -0.044037  0  -0.010727  -0.025462  0  3.951073  0
C  C154  1  0.80602238  0.22596042  0.72865244  1  -0.024055  0  -0.078581  -0.090622  0  3.963604  0
C  C155  1  0.75140718  0.29209783  0.72990617  1  -0.052945  0  -0.080381  -0.091698  0  3.976721  0
C  C156  1  0.72109782  0.32659532  0.68876343  1  -0.062887  0  -0.009718  -0.028449  0  3.955261  0
C  C157  1  0.74777941  0.29482270  0.64628736  1  0.029844  0  -0.078071  -0.089305  0  3.964277  0
C  C158  1  0.80243701  0.22868637  0.64505430  1  0.00453  0  -0.081232  -0.093512  0  3.975893  0
C  C159  1  0.65550260  0.39537430  0.68984108  1  1.559798  0  0.245034  0.620446  0  4.154596  0
C  C160  1  0.15464560  0.10128871  0.06525357  1  1.55955  0  0.24029  0.615758  0  4.16868  0
C  C161  1  0.21870270  0.17072403  0.06416618  1  -0.061491  0  -0.010956  -0.026114  0  3.950916  0
C  C162  1  0.25555032  0.19877187  0.02187550  1  0.043178  0  -0.078381  -0.090071  0  3.961544  0
C  C163  1  0.31055379  0.26481509  0.02037289  1  -0.064384  0  -0.080629  -0.092301  0  3.976142  0
C  C164  1  0.32917258  0.30365430  0.06108458  1  0.037152  0  -0.010758  -0.029502  0  3.955648  0
C  C165  1  0.29356201  0.27516764  0.10344480  1  -0.12918  0  -0.078667  -0.090105  0  3.964589  0
C  C166  1  0.23849750  0.20916685  0.10493949  1  0.024473  0  -0.080164  -0.091427  0  3.973301  0
C  C167  1  0.38666541  0.37536325  0.05982210  1  1.568512  0  0.245059  0.620494  0  4.156203  0
C  C168  1  0.65001275  0.39524420  0.18988187  1  1.560919  0  0.244972  0.621226  0  4.156107  0
C  C169  1  0.71662796  0.32688367  0.18890073  1  -0.011091  0  -0.009899  -0.02993  0  3.955957  0
C  C170  1  0.74087923  0.29044659  0.23000981  1  -0.053454  0  -0.080261  -0.091834  0  3.97389  0
C  C171  1  0.79550800  0.22433066  0.22876263  1  -0.015907  0  -0.078698  -0.089275  0  3.962591  0
C  C172  1  0.82635013  0.19399166  0.18633153  1  -0.024249  0  -0.01079  -0.026898  0  3.952176  0
C  C173  1  0.80486124  0.23132523  0.14529697  1  -0.05906  0  -0.081322  -0.092315  0  3.975614  0
C  C174  1  0.75007392  0.29739443  0.14653554  1  -0.004709  0  -0.077806  -0.088864  0  3.963806  0
C  C175  1  0.88081017  0.12139150  0.18518002  1  1.567402  0  0.241189  0.615931  0  4.170177  0
C  C176  1  0.11089559  0.87541951  0.06038932  1  1.566675  0  0.245694  0.620478  0  4.156388  0
C  C177  1  0.16875733  0.80382112  0.06141319  1  -0.015187  0  -0.010563  -0.028059  0  3.954302  0
C  C178  1  0.20302914  0.77068293  0.02030468  1  -0.032031  0  -0.080501  -0.092205  0  3.976419  0
C  C179  1  0.25792500  0.70461004  0.02142740  1  -0.035952  0  -0.078497  -0.088687  0  3.961999  0
C  C180  1  0.27909764  0.67081382  0.06374156  1  -0.002573  0  -0.011225  -0.028983  0  3.951688  0
C  C181  1  0.24401866  0.70363081  0.10484039  1  -0.056128  0  -0.080141  -0.088819  0  3.969543  0
C  C182  1  0.18906853  0.76971014  0.10372490  1  -0.045952  0  -0.078651  -0.09211  0  3.965449  0
C  C183  1  0.34269696  0.60122485  0.06479152  1  1.558613  0  0.2405  0.617148  0  4.166017  0
C  C184  1  0.61398545  0.62118172  0.18513570  1  1.565818  0  0.24079  0.616319  0  4.169449  0
C  C185  1  0.66927467  0.69354389  0.18619773  1  -0.043736  0  -0.010686  -0.025516  0  3.951296  0
C  C186  1  0.69397530  0.72596105  0.22865395  1  -0.024747  0  -0.078624  -0.090593  0  3.963576  0
C  C187  1  0.74858622  0.79209952  0.22990470  1  -0.05283  0  -0.080453  -0.091952  0  3.976307  0
C  C188  1  0.77890095  0.82659538  0.18876030  1  -0.063206  0  -0.009599  -0.028238  0  3.954847  0
C  C189  1  0.75220950  0.79482116  0.14628589  1  0.030202  0  -0.07813  -0.089499  0  3.964367  0
C  C190  1  0.69754008  0.72868807  0.14505616  1  0.004101  0  -0.081234  -0.093353  0  3.975582  0
C  C191  1  0.84449781  0.89537327  0.18983775  1  1.559726  0  0.245104  0.620661  0  4.154381  0
C  C192  1  0.65465477  0.39872115  0.43474898  1  1.559027  0  0.240267  0.615661  0  4.168263  0
C  C193  1  0.71871364  0.32927775  0.43583616  1  -0.061211  0  -0.010939  -0.026191  0  3.950706  0
C  C194  1  0.75555844  0.30123527  0.47812554  1  0.043464  0  -0.078464  -0.090051  0  3.961682  0
C  C195  1  0.81056029  0.23519149  0.47962758  1  -0.064362  0  -0.080583  -0.092325  0  3.976199  0
C  C196  1  0.82917350  0.19635443  0.43891386  1  0.037063  0  -0.010697  -0.029467  0  3.955559  0
C  C197  1  0.79356066  0.22483841  0.39655357  1  -0.129074  0  -0.078799  -0.090227  0  3.964759  0
C  C198  1  0.73850201  0.29083653  0.39506048  1  0.02417  0  -0.08011  -0.091241  0  3.973273  0
C  C199  1  0.88666981  0.12464008  0.44017474  1  1.569153  0  0.244956  0.620349  0  4.156181  0
C  C200  1  0.15000845  0.10474954  0.31011791  1  1.560713  0  0.244846  0.621167  0  4.155371  0
C  C201  1  0.21662870  0.17311650  0.31110194  1  -0.010907  0  -0.009932  -0.02995  0  3.956021  0
C  C202  1  0.24087177  0.20955250  0.26999257  1  -0.053125  0  -0.080356  -0.091754  0  3.974178  0
C  C203  1  0.29550304  0.27566787  0.27124022  1  -0.015028  0  -0.078665  -0.089352  0  3.9629  0
C  C204  1  0.32634993  0.30600256  0.31367277  1  -0.024101  0  -0.010827  -0.027031  0  3.952326  0
C  C205  1  0.30485907  0.26867061  0.35470728  1  -0.059206  0  -0.081219  -0.092164  0  3.97578  0
C  C206  1  0.25007518  0.20260090  0.35346825  1  -0.004987  0  -0.077847  -0.088916  0  3.964276  0
C  C207  1  0.38081841  0.37860700  0.31482543  1  1.567324  0  0.241103  0.615693  0  4.170308  0
C  C208  1  0.61088811  0.62458432  0.43961298  1  1.566627  0  0.245839  0.620766  0  4.1563  0
C  C209  1  0.66875062  0.69617786  0.43858992  1  -0.015089  0  -0.010531  -0.027951  0  3.954379  0
C  C210  1  0.70302547  0.72931550  0.47969782  1  -0.031616  0  -0.080421  -0.092203  0  3.976276  0
C  C211  1  0.75792381  0.79539159  0.47857280  1  -0.036351  0  -0.07847  -0.088725  0  3.961651  0
C  C212  1  0.77909587  0.82919050  0.43625765  1  -0.002706  0  -0.011167  -0.028809  0  3.951652  0
C  C213  1  0.74401977  0.79636815  0.39516151  1  -0.056028  0  -0.080171  -0.08894  0  3.969792  0
C  C214  1  0.68906548  0.73028991  0.39627860  1  -0.045884  0  -0.078655  -0.092153  0  3.965363  0
C  C215  1  0.84269257  0.89877461  0.43520645  1  1.558127  0  0.240421  0.616904  0  4.166096  0
C  C216  1  0.11399708  0.87882050  0.31486247  1  1.565556  0  0.240778  0.616328  0  4.169528  0
C  C217  1  0.16927448  0.80645348  0.31379850  1  -0.043667  0  -0.010745  -0.025509  0  3.951181  0
C  C218  1  0.19397204  0.77404168  0.27134405  1  -0.024625  0  -0.078612  -0.090582  0  3.96346  0
C  C219  1  0.24859402  0.70790373  0.27009307  1  -0.052697  0  -0.080433  -0.091966  0  3.976029  0
C  C220  1  0.27890169  0.67340194  0.31123857  1  -0.063358  0  -0.009627  -0.028322  0  3.955004  0
C  C221  1  0.25221161  0.70517403  0.35371120  1  0.030258  0  -0.078188  -0.089513  0  3.964668  0
C  C222  1  0.19754978  0.77130660  0.35493943  1  0.004213  0  -0.081175  -0.093249  0  3.975374  0
C  C223  1  0.34450114  0.60462403  0.31015885  1  1.559878  0  0.245085  0.620588  0  4.154624  0
O  O224  1  0.90986935  0.01167532  0.81236349  1  -1.192494  0  -0.522132  -0.874845  0  2.036689  0
O  O225  1  0.09513410  0.99402568  0.93768825  1  -1.204654  0  -0.521396  -0.872142  0  2.035329  0
O  O226  1  0.59622315  0.51174064  0.81264748  1  -1.186149  0  -0.521788  -0.873922  0  2.033644  0
O  O227  1  0.40734145  0.49412200  0.93725648  1  -1.179219  0  -0.521164  -0.871916  0  2.035166  0
O  O228  1  0.87021307  0.92639586  0.97352572  1  -1.173892  0  -0.287118  -0.583479  0  2.322633  0
O  O229  1  0.87038977  0.92433193  0.89517565  1  -1.180688  0  -0.2948  -0.598496  0  2.300819  0
O  O230  1  0.59152610  0.59792616  0.97974429  1  -1.182348  0  -0.290231  -0.587844  0  2.291227  0
O  O231  1  0.59109912  0.59605399  0.90141181  1  -1.174567  0  -0.282708  -0.571548  0  2.318679  0
O  O232  1  0.37745316  0.57822440  0.84891771  1  -1.17561  0  -0.282757  -0.57043  0  2.313628  0
O  O233  1  0.37523800  0.57907818  0.77057868  1  -1.177703  0  -0.291263  -0.588494  0  2.294093  0
O  O234  1  0.09779034  0.90732914  0.77603399  1  -1.178149  0  -0.28617  -0.582265  0  2.331715  0
O  O235  1  0.09968246  0.90587755  0.85443909  1  -1.180291  0  -0.292972  -0.59638  0  2.307961  0
O  O236  1  0.91454339  0.09700271  0.90087750  1  -1.177824  0  -0.282552  -0.570807  0  2.313435  0
O  O237  1  0.90799913  0.09699759  0.97918080  1  -1.178144  0  -0.290463  -0.588265  0  2.297632  0
O  O238  1  0.63477841  0.42518055  0.89558572  1  -1.178398  0  -0.295187  -0.599115  0  2.302303  0
O  O239  1  0.63014442  0.42581730  0.97390701  1  -1.176624  0  -0.287122  -0.583845  0  2.318984  0
O  O240  1  0.40433862  0.40653744  0.85445767  1  -1.18046  0  -0.292679  -0.5968  0  2.308643  0
O  O241  1  0.40931176  0.40690725  0.77608103  1  -1.176684  0  -0.285452  -0.582184  0  2.331141  0
O  O242  1  0.13147939  0.07864456  0.77058825  1  -1.176152  0  -0.291481  -0.588146  0  2.293161  0
O  O243  1  0.12768903  0.07804000  0.84890526  1  -1.177182  0  -0.283492  -0.571358  0  2.31321  0
O  O244  1  0.40986312  0.48832289  0.68763654  1  -1.192449  0  -0.5221  -0.874811  0  2.036605  0
O  O245  1  0.59513200  0.50597196  0.56231543  1  -1.204858  0  -0.521419  -0.872137  0  2.035407  0
O  O246  1  0.09621437  0.98826345  0.68734862  1  -1.186188  0  -0.521705  -0.87385  0  2.033751  0
O  O247  1  0.90737243  0.00588373  0.56273321  1  -1.179612  0  -0.521269  -0.872218  0  2.035207  0
O  O248  1  0.37020851  0.57360331  0.52647614  1  -1.173759  0  -0.287198  -0.583597  0  2.322619  0
O  O249  1  0.37038368  0.57566992  0.60482759  1  -1.18083  0  -0.294682  -0.598273  0  2.30086  0
O  O250  1  0.09151015  0.90207579  0.52025249  1  -1.182  0  -0.290063  -0.587673  0  2.291112  0
O  O251  1  0.09111216  0.90395225  0.59858427  1  -1.174459  0  -0.282746  -0.571503  0  2.318844  0
O  O252  1  0.87746542  0.92177315  0.65108624  1  -1.175516  0  -0.282852  -0.570518  0  2.313841  0
O  O253  1  0.87523346  0.92091990  0.72942320  1  -1.177838  0  -0.291271  -0.588536  0  2.294236  0
O  O254  1  0.59778009  0.59266850  0.72396659  1  -1.178351  0  -0.286139  -0.582174  0  2.331942  0
O  O255  1  0.59968222  0.59412170  0.64556356  1  -1.180221  0  -0.293127  -0.596584  0  2.308145  0
O  O256  1  0.41453609  0.40300033  0.59912185  1  -1.177927  0  -0.282584  -0.570842  0  2.313329  0
O  O257  1  0.40799590  0.40300169  0.52081682  1  -1.177831  0  -0.290452  -0.588312  0  2.29733  0
O  O258  1  0.13477994  0.07481829  0.60441544  1  -1.177882  0  -0.295149  -0.599136  0  2.302434  0
O  O259  1  0.13015003  0.07417455  0.52609103  1  -1.176681  0  -0.287097  -0.583921  0  2.318935  0
O  O260  1  0.90433159  0.09346185  0.64553994  1  -1.180359  0  -0.292668  -0.5969  0  2.3085  0
O  O261  1  0.90930829  0.09309203  0.72391831  1  -1.176645  0  -0.285498  -0.582261  0  2.331064  0
O  O262  1  0.63148757  0.42135697  0.72941875  1  -1.176373  0  -0.291451  -0.588125  0  2.293274  0
O  O263  1  0.62769111  0.42196690  0.65109933  1  -1.17697  0  -0.283535  -0.571281  0  2.31326  0
O  O264  1  0.09013270  0.98832248  0.18763162  1  -1.1925  0  -0.522223  -0.874956  0  2.036704  0
O  O265  1  0.90489253  0.00597158  0.06230514  1  -1.205155  0  -0.521467  -0.872575  0  2.035174  0
O  O266  1  0.40378399  0.48825984  0.18734833  1  -1.186277  0  -0.521779  -0.873892  0  2.033669  0
O  O267  1  0.59262922  0.50588386  0.06273346  1  -1.179667  0  -0.521262  -0.872193  0  2.035249  0
O  O268  1  0.12978220  0.07360785  0.02646871  1  -1.174282  0  -0.287276  -0.583713  0  2.322519  0
O  O269  1  0.12961228  0.07566264  0.10481980  1  -1.181091  0  -0.29473  -0.598394  0  2.300749  0
O  O270  1  0.40848103  0.40207863  0.02025393  1  -1.182002  0  -0.290124  -0.587732  0  2.290999  0
O  O271  1  0.40890378  0.40394918  0.09858640  1  -1.174211  0  -0.282767  -0.571568  0  2.318732  0
O  O272  1  0.62254804  0.42177609  0.15108567  1  -1.175385  0  -0.282843  -0.570515  0  2.313857  0
O  O273  1  0.62476066  0.42091371  0.22942367  1  -1.177627  0  -0.291257  -0.588461  0  2.29427  0
O  O274  1  0.90222273  0.09266543  0.22396423  1  -1.178221  0  -0.286226  -0.582365  0  2.331988  0
O  O275  1  0.90031874  0.09412079  0.14556153  1  -1.180418  0  -0.293044  -0.596513  0  2.30801  0
O  O276  1  0.08545527  0.90299885  0.09911968  1  -1.177923  0  -0.282552  -0.570791  0  2.313726  0
O  O277  1  0.09200292  0.90300827  0.02081535  1  -1.177983  0  -0.290464  -0.588235  0  2.297096  0
O  O278  1  0.36521686  0.57481618  0.10441456  1  -1.178464  0  -0.29509  -0.599038  0  2.302373  0
O  O279  1  0.36986102  0.57418157  0.02609120  1  -1.17688  0  -0.287136  -0.584018  0  2.319186  0
O  O280  1  0.59565919  0.59346520  0.14554296  1  -1.180422  0  -0.292721  -0.596857  0  2.308843  0
O  O281  1  0.59067672  0.59309646  0.22391856  1  -1.176658  0  -0.285531  -0.58215  0  2.331217  0
O  O282  1  0.86852012  0.92135163  0.22941513  1  -1.17609  0  -0.291455  -0.588222  0  2.293307  0
O  O283  1  0.87230793  0.92196586  0.15109674  1  -1.177172  0  -0.283591  -0.571391  0  2.313038  0
O  O284  1  0.59013045  0.51168082  0.31236443  1  -1.192551  0  -0.522154  -0.874879  0  2.036689  0
O  O285  1  0.40489887  0.49402477  0.43769553  1  -1.205165  0  -0.521447  -0.872559  0  2.035219  0
O  O286  1  0.90378513  0.01173704  0.31264511  1  -1.186395  0  -0.52178  -0.874004  0  2.033475  0
O  O287  1  0.09266014  0.99411891  0.43725605  1  -1.179096  0  -0.521154  -0.871786  0  2.035357  0
O  O288  1  0.62979015  0.42639933  0.47353447  1  -1.17449  0  -0.287225  -0.58353  0  2.322116  0
O  O289  1  0.62961837  0.42434239  0.39518028  1  -1.18065  0  -0.294703  -0.598376  0  2.300674  0
O  O290  1  0.90849105  0.09792953  0.47974538  1  -1.18244  0  -0.290082  -0.587702  0  2.291328  0
O  O291  1  0.90890261  0.09605146  0.40140981  1  -1.174357  0  -0.282691  -0.57147  0  2.318593  0
O  O292  1  0.12254850  0.07821821  0.34891508  1  -1.175627  0  -0.282739  -0.570424  0  2.313688  0
O  O293  1  0.12476265  0.07907951  0.27057536  1  -1.177424  0  -0.291239  -0.588502  0  2.293973  0
O  O294  1  0.40221179  0.40733038  0.27603817  1  -1.178269  0  -0.28605  -0.582042  0  2.331921  0
O  O295  1  0.40033933  0.40587717  0.35444430  1  -1.180513  0  -0.293037  -0.59643  0  2.308239  0
O  O296  1  0.58545409  0.59700553  0.40088291  1  -1.17769  0  -0.282622  -0.570995  0  2.313559  0
O  O297  1  0.59198919  0.59699504  0.47918622  1  -1.178153  0  -0.290591  -0.588408  0  2.297243  0
O  O298  1  0.86521702  0.92518112  0.39558450  1  -1.178376  0  -0.295005  -0.598954  0  2.302447  0
O  O299  1  0.86984609  0.92582378  0.47390649  1  -1.176553  0  -0.287095  -0.583791  0  2.319062  0
O  O300  1  0.09565859  0.90653112  0.35445620  1  -1.180302  0  -0.292702  -0.596791  0  2.308856  0
O  O301  1  0.09069291  0.90690684  0.27607921  1  -1.176759  0  -0.285484  -0.582208  0  2.331197  0
O  O302  1  0.36851363  0.57863761  0.27058256  1  -1.176491  0  -0.291426  -0.588111  0  2.293276  0
O  O303  1  0.37230839  0.57803520  0.34890302  1  -1.177054  0  -0.283579  -0.571339  0  2.313032  0
