# generated using pymatgen
data_CdH16C11O9
_symmetry_space_group_name_H-M   'P 1'
_cell_length_a   7.43014409
_cell_length_b   8.19317833
_cell_length_c   11.72144380
_cell_angle_alpha   88.18916642
_cell_angle_beta   85.36840309
_cell_angle_gamma   88.55102526
_symmetry_Int_Tables_number   1
_chemical_formula_structural   CdH16C11O9
_chemical_formula_sum   'Cd2 H32 C22 O18'
_cell_volume   710.68996899
_cell_formula_units_Z   2
loop_
 _symmetry_equiv_pos_site_id
 _symmetry_equiv_pos_as_xyz
  1  'x, y, z'
loop_
 _atom_site_type_symbol
 _atom_site_label
 _atom_site_symmetry_multiplicity
 _atom_site_fract_x
 _atom_site_fract_y
 _atom_site_fract_z
 _atom_site_occupancy
 _atom_site_hle17_bader_spin_density
 _atom_site_hle17_ddec_charge
 _atom_site_hle17_ddec_spin_density
 _atom_site_hle17_ddec_sum_bond_order
 _atom_site_hle17_magmom
 _atom_site_hse06_10hf_bader_spin_density
 _atom_site_hse06_10hf_ddec_charge
 _atom_site_hse06_10hf_ddec_spin_density
 _atom_site_hse06_10hf_ddec_sum_bond_order
 _atom_site_hse06_10hf_magmom
 _atom_site_hse06_bader_spin_density
 _atom_site_hse06_ddec_charge
 _atom_site_hse06_ddec_spin_density
 _atom_site_hse06_ddec_sum_bond_order
 _atom_site_hse06_magmom
 _atom_site_pbe_bader_spin_density
 _atom_site_pbe_cm5_charge
 _atom_site_pbe_ddec_charge
 _atom_site_pbe_ddec_spin_density
 _atom_site_pbe_ddec_sum_bond_order
 _atom_site_pbe_magmom
Cd  Cd0  1  0.75105406  0.23453368  0.00562264  1  0  1.23417  0  1.526311  0  0  1.059818  0  1.954927  0  0  1.118733  0  1.896252  0  0  0.758739  1.017705  0  1.995222  0
Cd  Cd1  1  0.24894792  0.76546297  0.99437712  1  0  1.234187  0  1.526276  0  0  1.05984  0  1.95489  0  0  1.118755  0  1.896217  0  0  0.758734  1.017729  0  1.995178  0
H  H2  1  0.22796377  0.35347862  0.70677118  1  0  0.104611  0  0.922786  0  0  0.111342  0  0.989828  0  0  0.113939  0  0.987186  0  0  0.115744  0.10948  0  0.991815  0
H  H3  1  0.77203126  0.64652284  0.29322628  1  0  0.104737  0  0.92276  0  0  0.111367  0  0.989881  0  0  0.113968  0  0.987242  0  0  0.115788  0.109505  0  0.991871  0
H  H4  1  0.03230131  0.31855625  0.63125741  1  0  0.088806  0  0.950821  0  0  0.096868  0  1.020386  0  0  0.097027  0  1.021922  0  0  0.109916  0.096706  0  1.019471  0
H  H5  1  0.96769246  0.68144405  0.36874189  1  0  0.088886  0  0.950805  0  0  0.096948  0  1.020321  0  0  0.097102  0  1.021871  0  0  0.109946  0.096789  0  1.019401  0
H  H6  1  0.24535653  0.40895312  0.49927844  1  0  0.124914  0  0.980252  0  0  0.135145  0  1.048063  0  0  0.138266  0  1.046943  0  0  0.105621  0.132927  0  1.048963  0
H  H7  1  0.75463580  0.59104709  0.50071840  1  0  0.124929  0  0.980364  0  0  0.135133  0  1.048205  0  0  0.138265  0  1.047067  0  0  0.105615  0.132898  0  1.049121  0
H  H8  1  0.41053542  0.86439096  0.33359106  1  0  0.13336  0  0.939275  0  0  0.143962  0  0.998656  0  0  0.148796  0  0.995072  0  0  0.108225  0.140506  0  1.001376  0
H  H9  1  0.58946783  0.13561186  0.66641007  1  0  0.133359  0  0.939275  0  0  0.143959  0  0.998656  0  0  0.148793  0  0.995072  0  0  0.108223  0.140505  0  1.001364  0
H  H10  1  0.09256773  0.86716687  0.65794252  1  0  0.109863  0  0.953115  0  0  0.127016  0  1.006039  0  0  0.130852  0  1.003399  0  0  0.104503  0.124229  0  1.008174  0
H  H11  1  0.90743562  0.13283354  0.34205956  1  0  0.109865  0  0.953102  0  0  0.127027  0  1.006017  0  0  0.130862  0  1.00338  0  0  0.104508  0.124244  0  1.008152  0
H  H12  1  0.13094905  0.12644623  0.48137854  1  0  0.101826  0  0.989284  0  0  0.120923  0  1.057506  0  0  0.122033  0  1.058351  0  0  0.084264  0.1201  0  1.056946  0
H  H13  1  0.86905162  0.87355171  0.51862296  1  0  0.101896  0  0.989256  0  0  0.120993  0  1.057474  0  0  0.122106  0  1.058314  0  0  0.084262  0.120169  0  1.056909  0
H  H14  1  0.36466450  0.11318575  0.43445320  1  0  0.107279  0  0.972158  0  0  0.129515  0  1.032078  0  0  0.130964  0  1.03213  0  0  0.090738  0.128414  0  1.032117  0
H  H15  1  0.63533888  0.88681720  0.56555134  1  0  0.107315  0  0.972252  0  0  0.129575  0  1.032121  0  0  0.131026  0  1.032171  0  0  0.090793  0.128477  0  1.032154  0
H  H16  1  0.29507376  0.10756218  0.58323108  1  0  0.110589  0  0.947883  0  0  0.133037  0  1.007697  0  0  0.134785  0  1.006939  0  0  0.092277  0.131737  0  1.008279  0
H  H17  1  0.70492560  0.89243830  0.41677297  1  0  0.110603  0  0.947859  0  0  0.13306  0  1.00768  0  0  0.134796  0  1.006937  0  0  0.092253  0.131758  0  1.008269  0
H  H18  1  0.29661407  0.34540952  0.29820623  1  0  0.094713  0  0.91929  0  0  0.103988  0  0.983457  0  0  0.106459  0  0.980681  0  0  0.110523  0.10224  0  0.98554  0
H  H19  1  0.70338364  0.65459441  0.70179181  1  0  0.094755  0  0.919162  0  0  0.103963  0  0.983392  0  0  0.106436  0  0.980618  0  0  0.110523  0.102219  0  0.985472  0
H  H20  1  0.49052601  0.32743220  0.37983321  1  0  0.078096  0  0.977025  0  0  0.085935  0  1.048898  0  0  0.085914  0  1.0508  0  0  0.105248  0.085967  0  1.047696  0
H  H21  1  0.50947313  0.67256680  0.62016408  1  0  0.078113  0  0.977003  0  0  0.085952  0  1.048842  0  0  0.085934  0  1.050747  0  0  0.105227  0.085982  0  1.047646  0
H  H22  1  0.41443373  0.16545073  0.92722545  1  0  0.423242  0  0.875754  0  0  0.395884  0  0.931676  0  0  0.406894  0  0.915829  0  0  0.288301  0.388065  0  0.942909  0
H  H23  1  0.58556697  0.83454473  0.07277529  1  0  0.423214  0  0.875796  0  0  0.395882  0  0.931677  0  0  0.406892  0  0.91583  0  0  0.28831  0.388061  0  0.942915  0
H  H24  1  0.47040840  0.34456415  0.87869370  1  0  0.431325  0  0.869889  0  0  0.394806  0  0.942843  0  0  0.407214  0  0.924781  0  0  0.285981  0.385983  0  0.955658  0
H  H25  1  0.52959094  0.65543132  0.12130713  1  0  0.431302  0  0.869914  0  0  0.394778  0  0.942879  0  0  0.407187  0  0.924815  0  0  0.285956  0.385956  0  0.955693  0
H  H26  1  0.83621447  0.88448001  0.95918151  1  0  0.43541  0  0.85597  0  0  0.406636  0  0.913778  0  0  0.41724  0  0.898457  0  0  0.298117  0.399109  0  0.924638  0
H  H27  1  0.16378623  0.11551671  0.04082004  1  0  0.435438  0  0.855936  0  0  0.406656  0  0.913754  0  0  0.417262  0  0.898431  0  0  0.298125  0.399125  0  0.924622  0
H  H28  1  0.85629889  0.91191662  0.08796604  1  0  0.42589  0  0.874196  0  0  0.395086  0  0.936718  0  0  0.405439  0  0.921947  0  0  0.29749  0.387767  0  0.947145  0
H  H29  1  0.14370313  0.08808132  0.91203538  1  0  0.425835  0  0.874284  0  0  0.395065  0  0.936731  0  0  0.405413  0  0.92197  0  0  0.297485  0.387745  0  0.947156  0
H  H30  1  0.05598246  0.37490871  0.11456799  1  0  0.442397  0  0.855843  0  0  0.404783  0  0.928896  0  0  0.417134  0  0.911172  0  0  0.294281  0.396028  0  0.941426  0
H  H31  1  0.94401959  0.62508676  0.88543267  1  0  0.442356  0  0.855898  0  0  0.404801  0  0.92887  0  0  0.417141  0  0.91116  0  0  0.2943  0.396058  0  0.941389  0
H  H32  1  0.97381348  0.23494022  0.19231556  1  0  0.422803  0  0.847397  0  0  0.392975  0  0.923436  0  0  0.402055  0  0.911637  0  0  0.311436  0.386529  0  0.931006  0
H  H33  1  0.02618586  0.76505525  0.80768528  1  0  0.422814  0  0.847399  0  0  0.392988  0  0.923442  0  0  0.402068  0  0.91163  0  0  0.311431  0.386541  0  0.931013  0
C  C34  1  0.97955221  0.33189043  0.81133623  1  0  0.692724  0  3.832055  0  0  0.637327  0  4.134537  0  0  0.670933  0  4.128065  0  0  0.213814  0.614492  0  4.138143  0
C  C35  1  0.02044699  0.66810990  0.18866357  1  0  0.692856  0  3.831924  0  0  0.63742  0  4.134414  0  0  0.671035  0  4.12794  0  0  0.213863  0.614589  0  4.138018  0
C  C36  1  0.08407870  0.38641271  0.70080779  1  0  -0.069177  0  3.62259  0  0  -0.123172  0  3.881363  0  0  -0.12018  0  3.882422  0  0  -0.064898  -0.125349  0  3.880808  0
C  C37  1  0.91591501  0.61358878  0.29919061  1  0  -0.069452  0  3.622694  0  0  -0.123284  0  3.881372  0  0  -0.120311  0  3.882465  0  0  -0.06495  -0.125477  0  3.880848  0
C  C38  1  0.15605869  0.62956021  0.58756989  1  0  0.291087  0  3.84283  0  0  0.281678  0  4.111357  0  0  0.295081  0  4.125773  0  0  0.075214  0.272589  0  4.101525  0
C  C39  1  0.84394051  0.37044012  0.41242991  1  0  0.290959  0  3.842851  0  0  0.281562  0  4.111381  0  0  0.294963  0  4.125798  0  0  0.07519  0.272468  0  4.101552  0
C  C40  1  0.24553064  0.54147223  0.49824062  1  0  -0.336734  0  3.726182  0  0  -0.36896  0  3.989311  0  0  -0.377696  0  4.00659  0  0  -0.133212  -0.36321  0  3.97783  0
C  C41  1  0.75446713  0.45853051  0.50175831  1  0  -0.336743  0  3.726204  0  0  -0.368921  0  3.989325  0  0  -0.377661  0  4.006593  0  0  -0.133201  -0.36315  0  3.977848  0
C  C42  1  0.33686609  0.63030118  0.40791586  1  0  0.304442  0  3.833372  0  0  0.292752  0  4.10069  0  0  0.306966  0  4.114869  0  0  0.080946  0.283185  0  4.090965  0
C  C43  1  0.66313443  0.36970162  0.59208460  1  0  0.304449  0  3.833243  0  0  0.29271  0  4.100644  0  0  0.306909  0  4.114828  0  0  0.080902  0.283146  0  4.090911  0
C  C44  1  0.33906061  0.80113646  0.40624641  1  0  -0.275181  0  3.716097  0  0  -0.307174  0  3.968788  0  0  -0.315184  0  3.985946  0  0  -0.116839  -0.301927  0  3.957335  0
C  C45  1  0.66094402  0.19886513  0.59375468  1  0  -0.275146  0  3.716005  0  0  -0.307147  0  3.968729  0  0  -0.315158  0  3.985895  0  0  -0.116798  -0.301899  0  3.957266  0
C  C46  1  0.25252998  0.88626099  0.49678952  1  0  0.19404  0  3.801827  0  0  0.224277  0  4.032862  0  0  0.229716  0  4.055231  0  0  -0.008511  0.220742  0  4.017508  0
C  C47  1  0.74747469  0.11374189  0.50321323  1  0  0.194008  0  3.801933  0  0  0.224295  0  4.032902  0  0  0.229736  0  4.055266  0  0  -0.008554  0.220756  0  4.017554  0
C  C48  1  0.15947120  0.79992533  0.58702588  1  0  -0.28961  0  3.759313  0  0  -0.32092  0  4.011429  0  0  -0.328329  0  4.028072  0  0  -0.123943  -0.31608  0  4.000338  0
C  C49  1  0.84053070  0.20007750  0.41297534  1  0  -0.289504  0  3.759412  0  0  -0.320825  0  4.011492  0  0  -0.328236  0  4.028136  0  0  -0.123903  -0.315995  0  4.000415  0
C  C50  1  0.26140065  0.06862854  0.49892169  1  0  -0.338002  0  3.705224  0  0  -0.418462  0  3.932908  0  0  -0.421723  0  3.941831  0  0  -0.244643  -0.415888  0  3.926636  0
C  C51  1  0.73860275  0.93137068  0.50108129  1  0  -0.338153  0  3.70536  0  0  -0.418664  0  3.933014  0  0  -0.421915  0  3.941935  0  0  -0.244653  -0.416084  0  3.926737  0
C  C52  1  0.43407180  0.38954441  0.30567369  1  0  -0.064507  0  3.640571  0  0  -0.119402  0  3.896483  0  0  -0.116107  0  3.897741  0  0  -0.067478  -0.121832  0  3.895854  0
C  C53  1  0.56592725  0.61045826  0.69432346  1  0  -0.064499  0  3.640504  0  0  -0.119293  0  3.896361  0  0  -0.116026  0  3.897641  0  0  -0.067462  -0.12173  0  3.895737  0
C  C54  1  0.55244950  0.34618593  0.19869964  1  0  0.663038  0  3.890067  0  0  0.610969  0  4.193898  0  0  0.644448  0  4.18801  0  0  0.193897  0.588246  0  4.197073  0
C  C55  1  0.44754829  0.65381558  0.80129934  1  0  0.662861  0  3.8904  0  0  0.610782  0  4.194226  0  0  0.64426  0  4.188345  0  0  0.193836  0.588056  0  4.197409  0
O  O56  1  0.89424200  0.43466431  0.87651730  1  0  -0.628611  0  1.99276  0  0  -0.554207  0  2.219559  0  0  -0.584055  0  2.208988  0  0  -0.305516  -0.533375  0  2.226168  0
O  O57  1  0.10576005  0.56533366  0.12348496  1  0  -0.628719  0  1.992711  0  0  -0.554283  0  2.219542  0  0  -0.584137  0  2.208969  0  0  -0.305571  -0.533443  0  2.226143  0
O  O58  1  0.98010239  0.17912071  0.83383796  1  0  -0.66059  0  1.937325  0  0  -0.598316  0  2.161422  0  0  -0.626836  0  2.151467  0  0  -0.329247  -0.578234  0  2.167532  0
O  O59  1  0.01989810  0.82087954  0.16616005  1  0  -0.660621  0  1.937266  0  0  -0.598324  0  2.161394  0  0  -0.626847  0  2.151434  0  0  -0.329233  -0.578242  0  2.167506  0
O  O60  1  0.06206707  0.55839341  0.68148551  1  0  -0.291536  0  2.381237  0  0  -0.218527  0  2.616894  0  0  -0.236632  0  2.620057  0  0  -0.185541  -0.205769  0  2.614421  0
O  O61  1  0.93792670  0.44160689  0.31851379  1  0  -0.291434  0  2.381281  0  0  -0.218497  0  2.616942  0  0  -0.236593  0  2.62011  0  0  -0.185569  -0.20573  0  2.614464  0
O  O62  1  0.43186669  0.56173288  0.31640704  1  0  -0.264422  0  2.400843  0  0  -0.187871  0  2.63189  0  0  -0.206506  0  2.635851  0  0  -0.175451  -0.174909  0  2.62896  0
O  O63  1  0.56813387  0.43826744  0.68359266  1  0  -0.264411  0  2.400782  0  0  -0.187892  0  2.631865  0  0  -0.206489  0  2.635811  0  0  -0.175415  -0.174928  0  2.628935  0
O  O64  1  0.61273731  0.45782664  0.12872418  1  0  -0.648777  0  1.969415  0  0  -0.584494  0  2.199832  0  0  -0.612625  0  2.188672  0  0  -0.319516  -0.564768  0  2.20679  0
O  O65  1  0.38726312  0.54217606  0.87127373  1  0  -0.648707  0  1.969536  0  0  -0.584411  0  2.199951  0  0  -0.612553  0  2.188821  0  0  -0.319474  -0.564686  0  2.206912  0
O  O66  1  0.58582616  0.19496661  0.18447464  1  0  -0.64199  0  1.905483  0  0  -0.581634  0  2.13361  0  0  -0.6116  0  2.125155  0  0  -0.340709  -0.560586  0  2.138583  0
O  O67  1  0.41417158  0.80503484  0.81552264  1  0  -0.641954  0  1.905603  0  0  -0.581606  0  2.133737  0  0  -0.611567  0  2.125277  0  0  -0.340712  -0.560555  0  2.138707  0
O  O68  1  0.51755227  0.23104743  0.89399067  1  0  -0.839575  0  1.867655  0  0  -0.774995  0  2.06182  0  0  -0.799363  0  2.025547  0  0  -0.589152  -0.757764  0  2.086911  0
O  O69  1  0.48244699  0.76895171  0.10601003  1  0  -0.839548  0  1.867684  0  0  -0.774984  0  2.061818  0  0  -0.799348  0  2.025539  0  0  -0.589139  -0.757748  0  2.086908  0
O  O70  1  0.77739206  0.94400835  0.02564997  1  0  -0.826757  0  1.901302  0  0  -0.752048  0  2.074117  0  0  -0.777143  0  2.041524  0  0  -0.560592  -0.734334  0  2.096701  0
O  O71  1  0.22260726  0.05598960  0.97435162  1  0  -0.82674  0  1.90137  0  0  -0.752028  0  2.074207  0  0  -0.77712  0  2.041616  0  0  -0.560593  -0.73431  0  2.096794  0
O  O72  1  0.01908486  0.25656240  0.11297084  1  0  -0.839131  0  1.888625  0  0  -0.774541  0  2.087799  0  0  -0.796907  0  2.054699  0  0  -0.560026  -0.758727  0  2.11008  0
O  O73  1  0.98091586  0.74343185  0.88702996  1  0  -0.839129  0  1.888687  0  0  -0.774594  0  2.087779  0  0  -0.796949  0  2.054693  0  0  -0.560045  -0.75879  0  2.110031  0
