# generated using pymatgen
data_Cd5H20C16S2O23
_symmetry_space_group_name_H-M   'P 1'
_cell_length_a   8.04157638
_cell_length_b   12.09325647
_cell_length_c   15.24398700
_cell_angle_alpha   80.03009507
_cell_angle_beta   86.75129412
_cell_angle_gamma   73.12187360
_symmetry_Int_Tables_number   1
_chemical_formula_structural   Cd5H20C16S2O23
_chemical_formula_sum   'Cd10 H40 C32 S4 O46'
_cell_volume   1397.14760332
_cell_formula_units_Z   2
loop_
 _symmetry_equiv_pos_site_id
 _symmetry_equiv_pos_as_xyz
  1  'x, y, z'
loop_
 _atom_site_type_symbol
 _atom_site_label
 _atom_site_symmetry_multiplicity
 _atom_site_fract_x
 _atom_site_fract_y
 _atom_site_fract_z
 _atom_site_occupancy
 _atom_site_hle17_bader_spin_density
 _atom_site_hle17_ddec_charge
 _atom_site_hle17_ddec_spin_density
 _atom_site_hle17_ddec_sum_bond_order
 _atom_site_hle17_magmom
 _atom_site_hse06_10hf_bader_spin_density
 _atom_site_hse06_10hf_ddec_charge
 _atom_site_hse06_10hf_ddec_spin_density
 _atom_site_hse06_10hf_ddec_sum_bond_order
 _atom_site_hse06_10hf_magmom
 _atom_site_hse06_bader_spin_density
 _atom_site_hse06_ddec_charge
 _atom_site_hse06_ddec_spin_density
 _atom_site_hse06_ddec_sum_bond_order
 _atom_site_hse06_magmom
 _atom_site_pbe_bader_spin_density
 _atom_site_pbe_cm5_charge
 _atom_site_pbe_ddec_charge
 _atom_site_pbe_ddec_spin_density
 _atom_site_pbe_ddec_sum_bond_order
 _atom_site_pbe_magmom
Cd  Cd0  1  0.77359804  0.38151851  0.34870806  1  0  1.22109  0  1.613682  0  0  1.04643  0  2.054942  0  0  1.107096  0  1.995241  0  0  0.742598  1.003035  0  2.095881  0
Cd  Cd1  1  0.22640310  0.61848152  0.65129031  1  0  1.221114  0  1.613682  0  0  1.046461  0  2.054936  0  0  1.107125  0  1.99524  0  0  0.742608  1.003067  0  2.095872  0
Cd  Cd2  1  0.63953798  0.38958265  0.57487132  1  0  1.321584  0  1.59964  0  0  1.164524  0  2.036178  0  0  1.217071  0  1.978008  0  0  0.749029  1.126593  0  2.076407  0
Cd  Cd3  1  0.36046105  0.61041650  0.42512725  1  0  1.321559  0  1.599691  0  0  1.164481  0  2.03623  0  0  1.21703  0  1.978057  0  0  0.749015  1.126554  0  2.076454  0
Cd  Cd4  1  0.51609074  0.83853009  0.21459012  1  0  1.283746  0  1.558036  0  0  1.113096  0  1.989947  0  0  1.167925  0  1.933367  0  0  0.761261  1.073622  0  2.029012  0
Cd  Cd5  1  0.48390993  0.16146820  0.78540983  1  0  1.283709  0  1.558054  0  0  1.113053  0  1.989965  0  0  1.167884  0  1.933385  0  0  0.761244  1.073578  0  2.029025  0
Cd  Cd6  1  0.86083724  0.10532125  0.92649453  1  0  1.310359  0  1.640219  0  0  1.153921  0  2.075367  0  0  1.205861  0  2.018406  0  0  0.742523  1.116476  0  2.114636  0
Cd  Cd7  1  0.13916020  0.89467880  0.07350659  1  0  1.310374  0  1.640193  0  0  1.153949  0  2.075347  0  0  1.205887  0  2.018385  0  0  0.742558  1.116506  0  2.114613  0
Cd  Cd8  1  0.75219208  0.11500105  0.15804611  1  0  1.267854  0  1.550441  0  0  1.093718  0  1.985691  0  0  1.153706  0  1.925843  0  0  0.75808  1.05054  0  2.026981  0
Cd  Cd9  1  0.24780746  0.88499987  0.84195350  1  0  1.267847  0  1.55042  0  0  1.09372  0  1.985674  0  0  1.15371  0  1.925824  0  0  0.758079  1.050537  0  2.026974  0
H  H10  1  0.71277120  0.56334549  0.43929862  1  0  0.415428  0  0.893034  0  0  0.382814  0  0.960169  0  0  0.393731  0  0.944566  0  0  0.272401  0.375015  0  0.971271  0
H  H11  1  0.28722573  0.43665280  0.56070146  1  0  0.415414  0  0.893072  0  0  0.3828  0  0.960205  0  0  0.39372  0  0.944599  0  0  0.272377  0.375002  0  0.971306  0
H  H12  1  0.52000309  0.30659102  0.27670268  1  0  0.433827  0  0.867213  0  0  0.401488  0  0.93329  0  0  0.412768  0  0.916934  0  0  0.297492  0.393499  0  0.944858  0
H  H13  1  0.47999558  0.69340902  0.72329708  1  0  0.433799  0  0.867234  0  0  0.401469  0  0.933301  0  0  0.412748  0  0.916945  0  0  0.297496  0.393479  0  0.944868  0
H  H14  1  0.57227957  0.38909990  0.19888249  1  0  0.440779  0  0.850511  0  0  0.409122  0  0.9147  0  0  0.420583  0  0.898174  0  0  0.297877  0.40097  0  0.926435  0
H  H15  1  0.42771912  0.61090016  0.80111924  1  0  0.440838  0  0.850491  0  0  0.409172  0  0.914661  0  0  0.420634  0  0.898132  0  0  0.297888  0.401016  0  0.926403  0
H  H16  1  0.53180281  0.36860391  0.74137748  1  0  0.388343  0  0.889547  0  0  0.372028  0  0.943956  0  0  0.379698  0  0.935625  0  0  0.285811  0.366512  0  0.948825  0
H  H17  1  0.46819749  0.63139527  0.25862301  1  0  0.388374  0  0.889512  0  0  0.372064  0  0.943908  0  0  0.379734  0  0.935573  0  0  0.285839  0.366548  0  0.948777  0
H  H18  1  0.67661047  0.53812612  0.69185329  1  0  0.423653  0  0.873669  0  0  0.395186  0  0.933299  0  0  0.405174  0  0.918749  0  0  0.288468  0.388075  0  0.943657  0
H  H19  1  0.32338945  0.46187393  0.30814643  1  0  0.423642  0  0.873683  0  0  0.395171  0  0.93332  0  0  0.405159  0  0.91877  0  0  0.288455  0.388058  0  0.943681  0
H  H20  1  0.80453853  0.71833908  0.31670714  1  0  0.424341  0  0.882515  0  0  0.390937  0  0.949409  0  0  0.401539  0  0.934179  0  0  0.294652  0.383491  0  0.960069  0
H  H21  1  0.19546227  0.28166185  0.68329373  1  0  0.424368  0  0.882482  0  0  0.390963  0  0.949373  0  0  0.401568  0  0.934138  0  0  0.294668  0.383517  0  0.960033  0
H  H22  1  0.82608760  0.65392685  0.23206534  1  0  0.433554  0  0.871418  0  0  0.400125  0  0.939044  0  0  0.411496  0  0.922698  0  0  0.292887  0.392067  0  0.950597  0
H  H23  1  0.17391358  0.34607321  0.76793564  1  0  0.433525  0  0.871463  0  0  0.400097  0  0.939095  0  0  0.41147  0  0.922744  0  0  0.292863  0.392037  0  0.95065  0
H  H24  1  0.32456595  0.03613797  0.12504633  1  0  0.401413  0  0.905301  0  0  0.372401  0  0.967266  0  0  0.381963  0  0.95359  0  0  0.268211  0.365555  0  0.977018  0
H  H25  1  0.67543149  0.96386208  0.87495413  1  0  0.401392  0  0.905328  0  0  0.372381  0  0.967294  0  0  0.381943  0  0.953616  0  0  0.268198  0.365535  0  0.977045  0
H  H26  1  0.78739543  0.26603513  0.76624170  1  0  0.43591  0  0.866323  0  0  0.40359  0  0.931042  0  0  0.4154  0  0.914178  0  0  0.278598  0.395226  0  0.942959  0
H  H27  1  0.21260362  0.73396403  0.23375818  1  0  0.435912  0  0.866317  0  0  0.403599  0  0.931025  0  0  0.415407  0  0.914163  0  0  0.278609  0.395236  0  0.942941  0
H  H28  1  0.99717003  0.24054166  0.78093508  1  0  0.434633  0  0.859271  0  0  0.406577  0  0.916341  0  0  0.417515  0  0.900487  0  0  0.292438  0.398805  0  0.927589  0
H  H29  1  0.00283028  0.75945753  0.21906606  1  0  0.434673  0  0.859245  0  0  0.406619  0  0.916308  0  0  0.417557  0  0.900454  0  0  0.292489  0.398848  0  0.927557  0
H  H30  1  0.78507860  0.93575667  0.06198631  1  0  0.423699  0  0.878684  0  0  0.392581  0  0.943082  0  0  0.403206  0  0.927908  0  0  0.274631  0.384934  0  0.953951  0
H  H31  1  0.21492168  0.06424248  0.93801287  1  0  0.423664  0  0.878735  0  0  0.39259  0  0.943052  0  0  0.403214  0  0.927881  0  0  0.274653  0.384962  0  0.953907  0
H  H32  1  0.98242257  0.10628979  0.29353717  1  0  0.442787  0  0.835317  0  0  0.415151  0  0.894316  0  0  0.425158  0  0.879822  0  0  0.302825  0.408  0  0.904678  0
H  H33  1  0.01757475  0.89370763  0.70646434  1  0  0.442768  0  0.835356  0  0  0.41513  0  0.894346  0  0  0.425137  0  0.879851  0  0  0.302832  0.407979  0  0.904709  0
H  H34  1  0.10713780  0.03291500  0.22123948  1  0  0.440915  0  0.858504  0  0  0.406129  0  0.926854  0  0  0.418407  0  0.909339  0  0  0.275756  0.397431  0  0.939232  0
H  H35  1  0.89286127  0.96708418  0.77876171  1  0  0.440901  0  0.85852  0  0  0.406109  0  0.926882  0  0  0.418388  0  0.909366  0  0  0.275746  0.397412  0  0.939259  0
H  H36  1  0.47328179  0.86855813  0.40341426  1  0  0.103839  0  0.962919  0  0  0.107565  0  1.039592  0  0  0.112075  0  1.034504  0  0  0.106188  0.104279  0  1.043295  0
H  H37  1  0.52671849  0.13144102  0.59658426  1  0  0.103842  0  0.962956  0  0  0.107572  0  1.039628  0  0  0.112082  0  1.03454  0  0  0.106213  0.104286  0  1.04333  0
H  H38  1  0.30304293  0.24568908  0.36961289  1  0  0.109978  0  0.945501  0  0  0.117778  0  1.011471  0  0  0.121772  0  1.007571  0  0  0.113005  0.114906  0  1.014198  0
H  H39  1  0.69695774  0.75430921  0.63038706  1  0  0.109978  0  0.945549  0  0  0.117777  0  1.01152  0  0  0.121774  0  1.007613  0  0  0.113001  0.114904  0  1.014247  0
H  H40  1  0.09674691  0.04029323  0.58448274  1  0  0.1257  0  0.933911  0  0  0.131945  0  1.000483  0  0  0.136165  0  0.996738  0  0  0.114876  0.128847  0  1.00326  0
H  H41  1  0.90325586  0.95970594  0.41551635  1  0  0.125712  0  0.933861  0  0  0.131943  0  1.000444  0  0  0.136163  0  0.996698  0  0  0.114867  0.128846  0  1.003219  0
H  H42  1  0.01460787  0.63486481  0.09554941  1  0  0.121819  0  0.946707  0  0  0.127256  0  1.015271  0  0  0.13148  0  1.011122  0  0  0.111816  0.124129  0  1.018367  0
H  H43  1  0.98539755  0.36513702  0.90445183  1  0  0.121853  0  0.946658  0  0  0.127305  0  1.01516  0  0  0.131528  0  1.011013  0  0  0.111838  0.124181  0  1.018244  0
H  H44  1  0.19082793  0.25794153  0.13477367  1  0  0.121749  0  0.933066  0  0  0.129776  0  0.995221  0  0  0.134073  0  0.991206  0  0  0.113602  0.126637  0  0.998146  0
H  H45  1  0.80916962  0.74206114  0.86522575  1  0  0.121703  0  0.933147  0  0  0.129728  0  0.995313  0  0  0.134025  0  0.991297  0  0  0.113584  0.126589  0  0.998239  0
H  H46  1  0.40215112  0.46033819  0.92008353  1  0  0.112842  0  0.938318  0  0  0.122252  0  1.000792  0  0  0.125976  0  0.997632  0  0  0.110208  0.119533  0  1.003116  0
H  H47  1  0.59784878  0.53966183  0.07991488  1  0  0.112848  0  0.938313  0  0  0.122245  0  1.000805  0  0  0.125966  0  0.997642  0  0  0.110214  0.119526  0  1.00313  0
H  H48  1  0.83014049  0.54560573  0.62076732  1  0  0.433023  0  0.861582  0  0  0.403568  0  0.922056  0  0  0.413663  0  0.907315  0  0  0.292207  0.39638  0  0.932543  0
H  H49  1  0.16985943  0.45439431  0.37923240  1  0  0.432988  0  0.861631  0  0  0.403523  0  0.92212  0  0  0.413618  0  0.907379  0  0  0.292189  0.396335  0  0.932608  0
C  C50  1  0.28017605  0.94291103  0.49620043  1  0  -0.064275  0  3.727277  0  0  -0.034313  0  3.96029  0  0  -0.045892  0  3.984159  0  0  -0.012101  -0.027093  0  3.944405  0
C  C51  1  0.71982673  0.05708814  0.50379932  1  0  -0.064226  0  3.727283  0  0  -0.034268  0  3.960278  0  0  -0.045846  0  3.984147  0  0  -0.01208  -0.027049  0  3.944392  0
C  C52  1  0.39017570  0.94968920  0.42220906  1  0  -0.044404  0  3.670744  0  0  -0.082429  0  3.915771  0  0  -0.077281  0  3.933626  0  0  -0.066037  -0.085392  0  3.903612  0
C  C53  1  0.60982547  0.05031085  0.57779062  1  0  -0.04447  0  3.670712  0  0  -0.0825  0  3.915764  0  0  -0.077352  0  3.933619  0  0  -0.066081  -0.085462  0  3.903604  0
C  C54  1  0.39835397  0.05845392  0.37599087  1  0  -0.082378  0  3.763785  0  0  -0.053007  0  3.998836  0  0  -0.064636  0  4.022292  0  0  -0.015553  -0.045704  0  3.983191  0
C  C55  1  0.60164881  0.94154525  0.62400888  1  0  -0.082276  0  3.763722  0  0  -0.052912  0  3.998796  0  0  -0.064539  0  4.022249  0  0  -0.015529  -0.045611  0  3.983151  0
C  C56  1  0.29750579  0.16089889  0.40521148  1  0  -0.015418  0  3.668063  0  0  -0.059393  0  3.921889  0  0  -0.052597  0  3.936715  0  0  -0.063644  -0.063523  0  3.911878  0
C  C57  1  0.70249613  0.83909942  0.59478908  1  0  -0.015471  0  3.668137  0  0  -0.05944  0  3.921965  0  0  -0.052644  0  3.936792  0  0  -0.063643  -0.063569  0  3.911952  0
C  C58  1  0.19208886  0.15317427  0.48022367  1  0  -0.121013  0  3.735204  0  0  -0.091724  0  3.991307  0  0  -0.101723  0  4.0128  0  0  -0.014415  -0.085486  0  3.976978  0
C  C59  1  0.80791231  0.84682577  0.51977601  1  0  -0.120978  0  3.735178  0  0  -0.091685  0  3.991268  0  0  -0.101685  0  4.012764  0  0  -0.0144  -0.085447  0  3.976938  0
C  C60  1  0.18021741  0.04537826  0.52594601  1  0  -0.022447  0  3.642384  0  0  -0.066065  0  3.89658  0  0  -0.060347  0  3.912777  0  0  -0.061648  -0.069409  0  3.885535  0
C  C61  1  0.81978337  0.95462265  0.47405290  1  0  -0.022509  0  3.642412  0  0  -0.066117  0  3.896624  0  0  -0.060399  0  3.912821  0  0  -0.061678  -0.069463  0  3.885579  0
C  C62  1  0.27670560  0.82523574  0.54533215  1  0  0.655876  0  3.915701  0  0  0.601252  0  4.207863  0  0  0.63629  0  4.202935  0  0  0.202079  0.577493  0  4.210361  0
C  C63  1  0.72329431  0.17476430  0.45466691  1  0  0.655838  0  3.915687  0  0  0.601252  0  4.207784  0  0  0.636289  0  4.202859  0  0  0.202106  0.577494  0  4.210284  0
C  C64  1  0.52091561  0.06725846  0.29969352  1  0  0.672446  0  3.880326  0  0  0.616922  0  4.167722  0  0  0.652481  0  4.162232  0  0  0.214533  0.592755  0  4.170651  0
C  C65  1  0.47908231  0.93274333  0.70030536  1  0  0.672303  0  3.880383  0  0  0.616757  0  4.16783  0  0  0.652316  0  4.162344  0  0  0.214446  0.592591  0  4.170757  0
C  C66  1  0.20958823  0.55992324  0.00332647  1  0  -0.075461  0  3.724473  0  0  -0.04512  0  3.959877  0  0  -0.057541  0  3.984047  0  0  -0.014328  -0.037377  0  3.94387  0
C  C67  1  0.79041418  0.44007681  0.99667316  1  0  -0.075383  0  3.724249  0  0  -0.045052  0  3.959647  0  0  -0.057482  0  3.983827  0  0  -0.01428  -0.037308  0  3.943638  0
C  C68  1  0.09746626  0.55395638  0.07669459  1  0  -0.02485  0  3.636548  0  0  -0.065942  0  3.884418  0  0  -0.059235  0  3.900626  0  0  -0.060275  -0.06994  0  3.873446  0
C  C69  1  0.90253540  0.44604542  0.92330481  1  0  -0.024871  0  3.636498  0  0  -0.065963  0  3.884399  0  0  -0.059253  0  3.90061  0  0  -0.060318  -0.069954  0  3.873418  0
C  C70  1  0.09282331  0.44525487  0.12451313  1  0  -0.07376  0  3.745572  0  0  -0.044306  0  3.979951  0  0  -0.056232  0  4.003396  0  0  -0.014794  -0.036909  0  3.964414  0
C  C71  1  0.90717960  0.55474694  0.87548689  1  0  -0.0738  0  3.745615  0  0  -0.04436  0  3.980019  0  0  -0.056286  0  4.003462  0  0  -0.014838  -0.036966  0  3.964483  0
C  C72  1  0.19738410  0.34196836  0.09781195  1  0  -0.02367  0  3.668843  0  0  -0.066959  0  3.919945  0  0  -0.060324  0  3.935175  0  0  -0.065249  -0.070887  0  3.909528  0
C  C73  1  0.80261757  0.65803346  0.90218876  1  0  -0.023597  0  3.668823  0  0  -0.06688  0  3.91991  0  0  -0.060246  0  3.935141  0  0  -0.065218  -0.070806  0  3.909495  0
C  C74  1  0.30465188  0.34881446  0.02351628  1  0  -0.121028  0  3.738836  0  0  -0.090323  0  3.992921  0  0  -0.100836  0  4.014829  0  0  -0.018047  -0.083761  0  3.978331  0
C  C75  1  0.69534767  0.65118646  0.97648333  1  0  -0.121026  0  3.738774  0  0  -0.090322  0  3.992852  0  0  -0.100836  0  4.014758  0  0  -0.01805  -0.083762  0  3.978267  0
C  C76  1  0.31451945  0.45657118  0.97676450  1  0  -0.023581  0  3.668947  0  0  -0.069579  0  3.926582  0  0  -0.063099  0  3.942726  0  0  -0.066387  -0.07343  0  3.915576  0
C  C77  1  0.68548458  0.54342800  0.02323586  1  0  -0.023593  0  3.668902  0  0  -0.069582  0  3.926541  0  0  -0.063095  0  3.942685  0  0  -0.066389  -0.073437  0  3.91554  0
C  C78  1  0.20965243  0.67659778  0.95083516  1  0  0.667454  0  3.893474  0  0  0.612542  0  4.184924  0  0  0.647687  0  4.179652  0  0  0.206006  0.588686  0  4.187689  0
C  C79  1  0.79034628  0.32340229  0.04916722  1  0  0.667485  0  3.893243  0  0  0.612598  0  4.184683  0  0  0.647745  0  4.179408  0  0  0.206056  0.588741  0  4.187449  0
C  C80  1  0.97246070  0.43365736  0.20164673  1  0  0.649797  0  3.908969  0  0  0.5984  0  4.197434  0  0  0.633002  0  4.192792  0  0  0.201497  0.574968  0  4.199748  0
C  C81  1  0.02754135  0.56634358  0.79835410  1  0  0.649722  0  3.909061  0  0  0.59835  0  4.197485  0  0  0.632952  0  4.192842  0  0  0.201512  0.574919  0  4.199796  0
S  S82  1  0.08171546  0.28476557  0.52030744  1  0  1.333272  0  5.57187  0  0  1.224673  0  6.086907  0  0  1.273165  0  6.065237  0  0  0.53229  1.191277  0  6.100833  0
S  S83  1  0.91828447  0.71523448  0.47969293  1  0  1.333332  0  5.571713  0  0  1.22474  0  6.086746  0  0  1.273223  0  6.065077  0  0  0.532345  1.191345  0  6.100673  0
S  S84  1  0.42644912  0.21660368  0.98790588  1  0  1.308436  0  5.598343  0  0  1.205714  0  6.106931  0  0  1.253837  0  6.086002  0  0  0.517285  1.172453  0  6.120367  0
S  S85  1  0.57355079  0.78339635  0.01209318  1  0  1.308412  0  5.598272  0  0  1.205697  0  6.10686  0  0  1.25382  0  6.085928  0  0  0.51727  1.172438  0  6.120299  0
O  O86  1  0.03244205  0.37700640  0.44138509  1  0  -0.69326  0  2.045501  0  0  -0.626595  0  2.306017  0  0  -0.650275  0  2.289725  0  0  -0.329106  -0.609883  0  2.3167  0
O  O87  1  0.96755950  0.62299278  0.55861535  1  0  -0.69325  0  2.045402  0  0  -0.626629  0  2.305948  0  0  -0.650307  0  2.289654  0  0  -0.329109  -0.609916  0  2.316631  0
O  O88  1  0.16441043  0.81961929  0.60727407  1  0  -0.649102  0  2.030919  0  0  -0.579957  0  2.277512  0  0  -0.611011  0  2.269827  0  0  -0.316082  -0.55826  0  2.282147  0
O  O89  1  0.83558984  0.18037986  0.39272446  1  0  -0.649084  0  2.030877  0  0  -0.579946  0  2.277433  0  0  -0.611  0  2.269746  0  0  -0.316097  -0.558252  0  2.282073  0
O  O90  1  0.93324040  0.26196728  0.57293845  1  0  -0.671938  0  2.009281  0  0  -0.607682  0  2.270586  0  0  -0.631534  0  2.25521  0  0  -0.330569  -0.590811  0  2.28057  0
O  O91  1  0.06676113  0.73803188  0.42706068  1  0  -0.672008  0  2.00926  0  0  -0.607707  0  2.270514  0  0  -0.631558  0  2.255137  0  0  -0.33061  -0.590839  0  2.280504  0
O  O92  1  0.38855289  0.73434010  0.52466688  1  0  -0.682988  0  2.018533  0  0  -0.615981  0  2.276684  0  0  -0.645657  0  2.265313  0  0  -0.339131  -0.59498  0  2.283652  0
O  O93  1  0.61144577  0.26565992  0.47533157  1  0  -0.68298  0  2.018546  0  0  -0.616005  0  2.2767  0  0  -0.64568  0  2.26533  0  0  -0.339154  -0.595003  0  2.283667  0
O  O94  1  0.21075717  0.30797095  0.57448181  1  0  -0.66136  0  2.015628  0  0  -0.592629  0  2.255757  0  0  -0.615182  0  2.240032  0  0  -0.320553  -0.576929  0  2.266321  0
O  O95  1  0.78924153  0.69202912  0.42552057  1  0  -0.661371  0  2.015628  0  0  -0.59264  0  2.255762  0  0  -0.615177  0  2.24003  0  0  -0.320563  -0.57694  0  2.266325  0
O  O96  1  0.60797875  0.97614689  0.26832141  1  0  -0.671935  0  2.045764  0  0  -0.597097  0  2.309308  0  0  -0.628517  0  2.296376  0  0  -0.326944  -0.574951  0  2.317413  0
O  O97  1  0.39201914  0.02385487  0.73167551  1  0  -0.671827  0  2.045801  0  0  -0.596968  0  2.309343  0  0  -0.628387  0  2.296416  0  0  -0.32686  -0.574819  0  2.317437  0
O  O98  1  0.31469836  0.18388880  0.92871708  1  0  -0.673274  0  1.996604  0  0  -0.603169  0  2.251069  0  0  -0.626558  0  2.234409  0  0  -0.329786  -0.586647  0  2.262136  0
O  O99  1  0.68530156  0.81611125  0.07128264  1  0  -0.673281  0  1.996597  0  0  -0.603148  0  2.251056  0  0  -0.626538  0  2.234396  0  0  -0.32978  -0.586623  0  2.262112  0
O  O100  1  0.54211467  0.16709406  0.26789435  1  0  -0.643585  0  2.057648  0  0  -0.567781  0  2.297203  0  0  -0.5992  0  2.287526  0  0  -0.307688  -0.545803  0  2.303138  0
O  O101  1  0.45788077  0.83290773  0.73210527  1  0  -0.643531  0  2.057652  0  0  -0.567719  0  2.297221  0  0  -0.599139  0  2.287544  0  0  -0.307673  -0.545734  0  2.303145  0
O  O102  1  0.57447209  0.24469326  0.93647361  1  0  -0.712395  0  2.070696  0  0  -0.6472  0  2.341155  0  0  -0.672362  0  2.326772  0  0  -0.337537  -0.62931  0  2.350357  0
O  O103  1  0.42552658  0.75530678  0.06352550  1  0  -0.712426  0  2.070737  0  0  -0.647218  0  2.341153  0  0  -0.672379  0  2.326768  0  0  -0.337541  -0.629328  0  2.350357  0
O  O104  1  0.10054390  0.76910232  0.96942002  1  0  -0.663804  0  2.000546  0  0  -0.599238  0  2.254348  0  0  -0.628463  0  2.243527  0  0  -0.327023  -0.578639  0  2.261066  0
O  O105  1  0.89945398  0.23089691  0.03058579  1  0  -0.663897  0  2.00056  0  0  -0.599293  0  2.254281  0  0  -0.628517  0  2.243459  0  0  -0.32706  -0.578694  0  2.260997  0
O  O106  1  0.47541770  0.12880171  0.06892400  1  0  -0.678927  0  2.026367  0  0  -0.617758  0  2.291025  0  0  -0.640236  0  2.274321  0  0  -0.32806  -0.601883  0  2.30207  0
O  O107  1  0.52458520  0.87120010  0.93107536  1  0  -0.678953  0  2.026324  0  0  -0.617795  0  2.290992  0  0  -0.640274  0  2.274286  0  0  -0.328068  -0.601916  0  2.302036  0
O  O108  1  0.31913965  0.68028482  0.88639173  1  0  -0.67976  0  2.046685  0  0  -0.608301  0  2.293541  0  0  -0.640067  0  2.284485  0  0  -0.322285  -0.586014  0  2.29908  0
O  O109  1  0.68085831  0.31971701  0.11361108  1  0  -0.679737  0  2.046667  0  0  -0.608312  0  2.293552  0  0  -0.640079  0  2.284495  0  0  -0.322285  -0.58603  0  2.29909  0
O  O110  1  0.84755437  0.52165936  0.21759290  1  0  -0.672732  0  1.991472  0  0  -0.606496  0  2.226611  0  0  -0.635019  0  2.215167  0  0  -0.328896  -0.586453  0  2.233825  0
O  O111  1  0.15244855  0.47834246  0.78240777  1  0  -0.672689  0  1.991471  0  0  -0.60646  0  2.226582  0  0  -0.634984  0  2.215137  0  0  -0.328884  -0.586417  0  2.233791  0
O  O112  1  0.99520324  0.33253600  0.24864758  1  0  -0.629174  0  1.974906  0  0  -0.566751  0  2.218896  0  0  -0.597159  0  2.210465  0  0  -0.324902  -0.545452  0  2.223901  0
O  O113  1  0.00479506  0.66746491  0.75135207  1  0  -0.629166  0  1.974971  0  0  -0.566744  0  2.218936  0  0  -0.597158  0  2.210515  0  0  -0.324909  -0.545446  0  2.223938  0
O  O114  1  0.64809621  0.50562722  0.43870377  1  0  -1.032728  0  1.866708  0  0  -0.923992  0  2.138394  0  0  -0.96496  0  2.104601  0  0  -0.597295  -0.894678  0  2.161029  0
O  O115  1  0.35190196  0.49437105  0.56129495  1  0  -1.032728  0  1.866748  0  0  -0.923992  0  2.138433  0  0  -0.964961  0  2.104636  0  0  -0.597279  -0.894677  0  2.161066  0
O  O116  1  0.52879803  0.38856336  0.26163921  1  0  -0.845615  0  1.860973  0  0  -0.776169  0  2.045646  0  0  -0.799743  0  2.009442  0  0  -0.569717  -0.759512  0  2.070917  0
O  O117  1  0.47119855  0.61143582  0.73836272  1  0  -0.845638  0  1.860956  0  0  -0.776218  0  2.045576  0  0  -0.799793  0  2.00937  0  0  -0.569742  -0.759575  0  2.070878  0
O  O118  1  0.59576867  0.30053461  0.71485579  1  0  -0.973245  0  1.757082  0  0  -0.874245  0  1.990181  0  0  -0.909416  0  1.963529  0  0  -0.582527  -0.849098  0  2.007087  0
O  O119  1  0.40423248  0.69946543  0.28514324  1  0  -0.973278  0  1.757082  0  0  -0.874267  0  1.990164  0  0  -0.909439  0  1.963513  0  0  -0.58255  -0.849121  0  2.007073  0
O  O120  1  0.76776781  0.49268232  0.65519793  1  0  -0.840757  0  1.835512  0  0  -0.779488  0  2.015887  0  0  -0.801076  0  1.983123  0  0  -0.590183  -0.764153  0  2.038759  0
O  O121  1  0.23223087  0.50731772  0.34480183  1  0  -0.840694  0  1.835547  0  0  -0.779429  0  2.015942  0  0  -0.801017  0  1.983179  0  0  -0.590156  -0.764095  0  2.038814  0
O  O122  1  0.80051668  0.73344604  0.25020961  1  0  -0.838544  0  1.915947  0  0  -0.762157  0  2.106724  0  0  -0.788877  0  2.073752  0  0  -0.567766  -0.743134  0  2.129436  0
O  O123  1  0.19948450  0.26655402  0.74979137  1  0  -0.83853  0  1.915989  0  0  -0.76213  0  2.106745  0  0  -0.788855  0  2.073768  0  0  -0.567743  -0.743109  0  2.129458  0
O  O124  1  0.27891963  0.97577965  0.16123473  1  0  -1.002559  0  1.753888  0  0  -0.898377  0  1.982694  0  0  -0.936192  0  1.953039  0  0  -0.585727  -0.871246  0  2.002627  0
O  O125  1  0.72107818  0.02421952  0.83876519  1  0  -1.00254  0  1.753928  0  0  -0.898343  0  1.982729  0  0  -0.936163  0  1.953081  0  0  -0.585706  -0.871213  0  2.002662  0
O  O126  1  0.88407174  0.24233355  0.81074969  1  0  -0.862734  0  1.870693  0  0  -0.791548  0  2.067749  0  0  -0.816522  0  2.031845  0  0  -0.596696  -0.773706  0  2.092577  0
O  O127  1  0.11592694  0.75766650  0.18925072  1  0  -0.862743  0  1.870668  0  0  -0.791571  0  2.067735  0  0  -0.816549  0  2.031838  0  0  -0.59675  -0.773729  0  2.092562  0
O  O128  1  0.85194328  0.99212328  0.06264056  1  0  -1.032618  0  1.853122  0  0  -0.921084  0  2.120504  0  0  -0.962096  0  2.087194  0  0  -0.594988  -0.891682  0  2.142914  0
O  O129  1  0.14805415  0.00787676  0.93735925  1  0  -1.03259  0  1.853188  0  0  -0.921084  0  2.120563  0  0  -0.962096  0  2.087253  0  0  -0.595008  -0.891712  0  2.142904  0
O  O130  1  0.98811925  0.05389917  0.25044977  1  0  -0.854805  0  1.831286  0  0  -0.786623  0  2.027155  0  0  -0.810113  0  1.989632  0  0  -0.585206  -0.770061  0  2.053405  0
O  O131  1  0.01187980  0.94609999  0.74955011  1  0  -0.854773  0  1.83133  0  0  -0.786597  0  2.027213  0  0  -0.810087  0  1.989689  0  0  -0.585214  -0.770035  0  2.053462  0
