# generated using pymatgen
data_NaH25(C3O2)6
_symmetry_space_group_name_H-M   'P 1'
_cell_length_a   6.69483474
_cell_length_b   14.28902640
_cell_length_c   24.52769963
_cell_angle_alpha   89.99968589
_cell_angle_beta   89.99992840
_cell_angle_gamma   103.21044618
_symmetry_Int_Tables_number   1
_chemical_formula_structural   NaH25(C3O2)6
_chemical_formula_sum   'Na4 H100 C72 O48'
_cell_volume   2284.29344498
_cell_formula_units_Z   4
loop_
 _symmetry_equiv_pos_site_id
 _symmetry_equiv_pos_as_xyz
  1  'x, y, z'
loop_
 _atom_site_type_symbol
 _atom_site_label
 _atom_site_symmetry_multiplicity
 _atom_site_fract_x
 _atom_site_fract_y
 _atom_site_fract_z
 _atom_site_occupancy
 _atom_site_pbe_bader_charge
 _atom_site_pbe_bader_spin_density
 _atom_site_pbe_cm5_charge
 _atom_site_pbe_ddec_charge
 _atom_site_pbe_ddec_spin_density
 _atom_site_pbe_ddec_sum_bond_order
 _atom_site_pbe_magmom
Na  Na0  1  0.95874544  0.55967947  0.91677100  1  0.884991  0  0.668613  0.82554  0  0.569296  0
Na  Na1  1  0.04125450  0.44031936  0.41677257  1  0.885001  0  0.668597  0.825564  0  0.569252  0
Na  Na2  1  0.45117776  0.98016182  0.39451271  1  0.881493  0  0.679678  0.821006  0  0.582643  0
Na  Na3  1  0.54882106  0.01983436  0.89451344  1  0.881525  0  0.67969  0.821017  0  0.582621  0
H  H4  1  0.17090881  0.71430635  0.81687852  1  0.046248  0  0.119255  0.037996  0  1.014232  0
H  H5  1  0.82908725  0.28569277  0.31687338  1  0.046064  0  0.119245  0.037998  0  1.014234  0
H  H6  1  0.56305318  0.77459463  0.81531930  1  0.071595  0  0.107054  0.057843  0  1.024622  0
H  H7  1  0.43694373  0.22540306  0.31531939  1  0.071594  0  0.107083  0.057869  0  1.024588  0
H  H8  1  0.65305344  0.62127952  0.80070585  1  0.033394  0  0.104039  0.047267  0  1.005845  0
H  H9  1  0.34693762  0.37871829  0.30070629  1  0.033425  0  0.104044  0.047259  0  1.005857  0
H  H10  1  0.42990384  0.56189894  0.90745672  1  0.022391  0  0.107172  0.038871  0  1.054582  0
H  H11  1  0.57009784  0.43809712  0.40745526  1  0.022427  0  0.107165  0.038881  0  1.054571  0
H  H12  1  0.35401614  0.49702203  0.78921827  1  0.062272  0  0.109839  0.064189  0  0.955301  0
H  H13  1  0.64598384  0.50297237  0.28921698  1  0.062235  0  0.10982  0.06421  0  0.955282  0
H  H14  1  0.03172141  0.39580059  0.82299622  1  0.07339  0  0.112558  0.089888  0  0.951054  0
H  H15  1  0.96827659  0.60419632  0.32299123  1  0.073292  0  0.112585  0.089939  0  0.951052  0
H  H16  1  0.24848124  0.35549313  0.84717218  1  0.035126  0  0.1004  0.070271  0  0.997904  0
H  H17  1  0.75151221  0.64450709  0.34716877  1  0.035106  0  0.100434  0.070286  0  0.997873  0
H  H18  1  0.38435918  0.80062993  0.89062313  1  0.641395  0  0.297876  0.330744  0  1.009133  0
H  H19  1  0.61564483  0.19936775  0.39062161  1  0.641386  0  0.297882  0.330789  0  1.009014  0
H  H20  1  0.85344556  0.74445750  0.86166894  1  0.654434  0  0.284039  0.330411  0  1.016933  0
H  H21  1  0.14655224  0.25554259  0.36167025  1  0.654448  0  0.284068  0.330474  0  1.016906  0
H  H22  1  0.55115412  0.43558687  0.90579837  1  0.629674  0  0.286352  0.321167  0  1.035519  0
H  H23  1  0.44885124  0.56441066  0.40579776  1  0.629658  0  0.286353  0.321225  0  1.035436  0
H  H24  1  0.19855100  0.41073623  0.93038863  1  0.639243  0  0.289925  0.328788  0  1.008379  0
H  H25  1  0.80145729  0.58926466  0.43038538  1  0.639331  0  0.289854  0.32865  0  1.008559  0
H  H26  1  0.37272870  0.64605107  0.64998320  1  0.083079  0  0.103132  0.117648  0  1.02734  0
H  H27  1  0.62727877  0.35394838  0.14997955  1  0.083149  0  0.103119  0.117659  0  1.027353  0
H  H28  1  0.09973834  0.62020784  0.58024540  1  0.093354  0  0.104265  0.115233  0  1.050846  0
H  H29  1  0.90027962  0.37979741  0.08024483  1  0.093312  0  0.104258  0.115208  0  1.050948  0
H  H30  1  0.64937687  0.62280162  0.70553630  1  0.081967  0  0.101259  0.114389  0  1.031462  0
H  H31  1  0.35063889  0.37721953  0.20553878  1  0.081833  0  0.101321  0.114497  0  1.031403  0
H  H32  1  0.92226438  0.64087383  0.77571321  1  0.093019  0  0.103741  0.109565  0  1.072203  0
H  H33  1  0.07774023  0.35915299  0.27571421  1  0.09325  0  0.103712  0.109562  0  1.072226  0
H  H34  1  0.87355606  0.65211327  0.53301535  1  0.064206  0  0.116549  0.038885  0  0.994612  0
H  H35  1  0.12645603  0.34788526  0.03301719  1  0.064142  0  0.116561  0.038884  0  0.994481  0
H  H36  1  0.50634781  0.67830917  0.53047049  1  0.02931  0  0.097488  0.047201  0  0.985137  0
H  H37  1  0.49365981  0.32168936  0.03047147  1  0.028805  0  0.097472  0.047123  0  0.985075  0
H  H38  1  0.31919126  0.52777768  0.56777349  1  0.074078  0  0.111515  0.071352  0  0.962761  0
H  H39  1  0.68081334  0.47222116  0.06777351  1  0.074073  0  0.111541  0.071368  0  0.962732  0
H  H40  1  0.45233128  0.42807612  0.46930007  1  0.072195  0  0.107728  0.043057  0  1.055149  0
H  H41  1  0.54766648  0.57192502  0.96930146  1  0.072074  0  0.107742  0.043097  0  1.055096  0
H  H42  1  0.58176205  0.41829955  0.58826148  1  0.068559  0  0.10637  0.05873  0  0.952424  0
H  H43  1  0.41823536  0.58169689  0.08826246  1  0.068506  0  0.106371  0.058692  0  0.95245  0
H  H44  1  0.84612138  0.34295478  0.55263368  1  0.062834  0  0.10896  0.087284  0  0.965857  0
H  H45  1  0.15386905  0.65703912  0.05263491  1  0.062777  0  0.108948  0.087279  0  0.965754  0
H  H46  1  0.59706596  0.27444241  0.53400917  1  0.028855  0  0.096193  0.052807  0  0.993733  0
H  H47  1  0.40292332  0.72555525  0.03400928  1  0.028979  0  0.096143  0.052726  0  0.993875  0
H  H48  1  0.25243873  0.59104811  0.46586046  1  0.598403  0  0.311631  0.335124  0  0.947044  0
H  H49  1  0.74757887  0.40895390  0.96586231  1  0.598455  0  0.311647  0.335106  0  0.947097  0
H  H50  1  0.23536759  0.30731078  0.49957994  1  0.592342  0  0.319727  0.342664  0  0.924453  0
H  H51  1  0.76462456  0.69269146  0.99958087  1  0.592327  0  0.319714  0.342651  0  0.924504  0
H  H52  1  0.67337294  0.31647390  0.44597230  1  0.635127  0  0.291542  0.324596  0  1.036195  0
H  H53  1  0.32662655  0.68352104  0.94597340  1  0.635241  0  0.291611  0.324675  0  1.036144  0
H  H54  1  0.52466131  0.82893907  0.49628318  1  0.094134  0  0.124343  0.049074  0  0.978798  0
H  H55  1  0.47534552  0.17105611  0.99628019  1  0.094065  0  0.124317  0.049071  0  0.978787  0
H  H56  1  0.87148301  0.77602548  0.50272328  1  0.066457  0  0.109972  0.060261  0  1.002564  0
H  H57  1  0.12852321  0.22396974  0.00272225  1  0.066542  0  0.109908  0.060151  0  1.002642  0
H  H58  1  0.12012681  0.92197218  0.50214219  1  0.052878  0  0.111749  0.064043  0  0.995593  0
H  H59  1  0.87987509  0.07802660  0.00214383  1  0.052856  0  0.111746  0.06403  0  0.995526  0
H  H60  1  0.91888028  0.97619418  0.39925503  1  0.048074  0  0.107476  0.039263  0  1.054668  0
H  H61  1  0.08111766  0.02379693  0.89925754  1  0.048122  0  0.107498  0.039198  0  1.054721  0
H  H62  1  0.92308037  0.04802165  0.51643384  1  0.050476  0  0.112227  0.068079  0  0.949872  0
H  H63  1  0.07692306  0.95197413  0.01643619  1  0.050445  0  0.112262  0.06808  0  0.949846  0
H  H64  1  0.69626560  0.14725391  0.47891736  1  0.065533  0  0.114175  0.087184  0  0.968549  0
H  H65  1  0.30373690  0.85274142  0.97891996  1  0.065524  0  0.114193  0.087199  0  0.968609  0
H  H66  1  0.95297604  0.18485929  0.45504751  1  0.08111  0  0.110054  0.079905  0  0.984063  0
H  H67  1  0.04702902  0.81513488  0.95505195  1  0.0811  0  0.110039  0.079857  0  0.984156  0
H  H68  1  0.67851828  0.71317399  0.43773729  1  0.633755  0  0.276756  0.324833  0  1.039817  0
H  H69  1  0.32148079  0.28682319  0.93773683  1  0.633908  0  0.276773  0.324838  0  1.039847  0
H  H70  1  0.07494140  0.80623594  0.41069353  1  0.615472  0  0.316989  0.358677  0  0.920068  0
H  H71  1  0.92505726  0.19376007  0.91069276  1  0.61551  0  0.316972  0.358566  0  0.92012  0
H  H72  1  0.17052547  0.09755827  0.39428465  1  0.641092  0  0.288405  0.337635  0  1.005411  0
H  H73  1  0.82947252  0.90243934  0.89428650  1  0.641118  0  0.288345  0.337528  0  1.005559  0
H  H74  1  0.86273883  0.12289341  0.37153511  1  0.643578  0  0.283218  0.324508  0  1.032331  0
H  H75  1  0.13725488  0.87710441  0.87153850  1  0.643647  0  0.283205  0.324518  0  1.032361  0
H  H76  1  0.37646408  0.93858442  0.53486798  1  0.060557  0  0.104945  0.111622  0  1.059646  0
H  H77  1  0.62354798  0.06142054  0.03486772  1  0.060604  0  0.104945  0.1116  0  1.059636  0
H  H78  1  0.09288360  0.93585178  0.60142380  1  0.083986  0  0.103801  0.118008  0  1.019717  0
H  H79  1  0.90712151  0.06415174  0.10142507  1  0.083995  0  0.103811  0.118055  0  1.019688  0
H  H80  1  0.46234051  0.84970920  0.72739737  1  0.065935  0  0.101747  0.105375  0  1.050769  0
H  H81  1  0.53764892  0.15029079  0.22739686  1  0.065955  0  0.101792  0.105381  0  1.050708  0
H  H82  1  0.73531917  0.84640911  0.66050154  1  0.099996  0  0.107592  0.126476  0  1.012042  0
H  H83  1  0.26466907  0.15358439  0.16049947  1  0.099992  0  0.107597  0.126378  0  1.012179  0
H  H84  1  0.20555091  0.83977543  0.77155037  1  0.040189  0  0.118802  0.042377  0  1.003227  0
H  H85  1  0.79444026  0.16022555  0.27154973  1  0.040092  0  0.118822  0.042406  0  1.003186  0
H  H86  1  0.81859521  0.82044201  0.76667295  1  0.036569  0  0.099194  0.051157  0  0.989107  0
H  H87  1  0.18139967  0.17956048  0.26667124  1  0.036554  0  0.099203  0.051167  0  0.989024  0
H  H88  1  0.80164688  0.97516902  0.73504072  1  0.049775  0  0.106779  0.056819  0  0.997172  0
H  H89  1  0.19835196  0.02483525  0.23504072  1  0.049783  0  0.106775  0.056798  0  0.997171  0
H  H90  1  0.00628067  0.06400471  0.83957679  1  0.047225  0  0.105206  0.04513  0  1.045892  0
H  H91  1  0.99371484  0.93599345  0.33957480  1  0.047264  0  0.105218  0.045166  0  1.045872  0
H  H92  1  0.17925946  0.08208747  0.72388264  1  0.084467  0  0.113087  0.069607  0  0.943479  0
H  H93  1  0.82073832  0.91791762  0.22388076  1  0.084388  0  0.113039  0.069521  0  0.943591  0
H  H94  1  0.49988854  0.15880049  0.76348136  1  0.058061  0  0.104756  0.071236  0  0.976595  0
H  H95  1  0.50011435  0.84119993  0.26347944  1  0.058253  0  0.104739  0.07127  0  0.976545  0
H  H96  1  0.31158052  0.22016886  0.78591063  1  0.070307  0  0.108078  0.081832  0  0.975593  0
H  H97  1  0.68841833  0.77983273  0.28590721  1  0.070313  0  0.108064  0.081825  0  0.975705  0
H  H98  1  0.35006613  0.16961137  0.87166722  1  0.642354  0  0.291438  0.338147  0  1.010054  0
H  H99  1  0.64993390  0.83038720  0.37166528  1  0.642243  0  0.29143  0.338173  0  1.010021  0
H  H100  1  0.53563095  0.97611982  0.78616296  1  0.638134  0  0.30147  0.327722  0  1.009057  0
H  H101  1  0.46436041  0.02388173  0.28616410  1  0.638184  0  0.301421  0.327611  0  1.009048  0
H  H102  1  0.79815279  0.14957893  0.80181554  1  0.61912  0  0.315105  0.342967  0  0.937977  0
H  H103  1  0.20183610  0.85041742  0.30181450  1  0.619204  0  0.315103  0.343075  0  0.937918  0
C  C104  1  0.28022093  0.66827241  0.81038021  1  0.946233  0  0.084106  0.241047  0  3.939195  0
C  C105  1  0.71977703  0.33172749  0.31037700  1  0.946488  0  0.084138  0.241063  0  3.939162  0
C  C106  1  0.48344034  0.71213660  0.83938567  1  0.466627  0  -0.010878  0.064814  0  3.886992  0
C  C107  1  0.51655801  0.28786445  0.33938390  1  0.466552  0  -0.010846  0.064804  0  3.886886  0
C  C108  1  0.61634188  0.63837185  0.84292463  1  0.503125  0  -0.011933  0.126294  0  3.876537  0
C  C109  1  0.38365476  0.36162556  0.34292511  1  0.503026  0  -0.011964  0.126365  0  3.876373  0
C  C110  1  0.49161895  0.54549813  0.86785090  1  0.504728  0  -0.018994  0.094296  0  3.904006  0
C  C111  1  0.50837513  0.45450045  0.36785063  1  0.504669  0  -0.018977  0.094225  0  3.904053  0
C  C112  1  0.30407283  0.50716322  0.83132372  1  0.399332  0  -0.009053  0.078414  0  3.842561  0
C  C113  1  0.69592858  0.49283792  0.33132245  1  0.399442  0  -0.009058  0.078383  0  3.842492  0
C  C114  1  0.16473522  0.41329357  0.85052749  1  0.456881  0  -0.080886  0.016632  0  3.948878  0
C  C115  1  0.83526684  0.58670594  0.35052301  1  0.456868  0  -0.08091  0.016545  0  3.948911  0
C  C116  1  0.16561403  0.64737500  0.71721376  1  0.381761  0  0.0635  0.239276  0  4.053344  0
C  C117  1  0.83439562  0.35263955  0.21721411  1  0.381692  0  0.063311  0.239034  0  4.053528  0
C  C118  1  0.21407209  0.64075389  0.66219841  1  0.05087  0  -0.104426  -0.169791  0  3.998844  0
C  C119  1  0.78592828  0.35924970  0.16220039  1  0.050557  0  -0.104381  -0.169782  0  3.998642  0
C  C120  1  0.06007016  0.62778501  0.62278424  1  -0.014849  0  -0.109377  -0.197941  0  4.00337  0
C  C121  1  0.93994739  0.37222625  0.12278287  1  -0.014328  0  -0.109422  -0.197963  0  4.003096  0
C  C122  1  0.85643641  0.62253982  0.63832409  1  0.389355  0  0.071131  0.253858  0  4.054072  0
C  C123  1  0.14357833  0.37746553  0.13832420  1  0.389305  0  0.071211  0.253895  0  4.054179  0
C  C124  1  0.80827744  0.62812888  0.69346542  1  -0.006837  0  -0.109919  -0.18403  0  4.006861  0
C  C125  1  0.19173378  0.37188233  0.19346635  1  -0.006489  0  -0.109977  -0.184103  0  4.006793  0
C  C126  1  0.96210041  0.63970739  0.73284616  1  -0.078347  0  -0.114789  -0.204636  0  4.03965  0
C  C127  1  0.03791326  0.36031276  0.23284554  1  -0.078895  0  -0.114685  -0.204566  0  4.03967  0
C  C128  1  0.73545567  0.59870590  0.54581364  1  0.935479  0  0.084208  0.249081  0  3.949476  0
C  C129  1  0.26455396  0.40129392  0.04581404  1  0.935843  0  0.08416  0.249021  0  3.949108  0
C  C130  1  0.54790039  0.61300896  0.51395498  1  0.500802  0  -0.021692  0.065094  0  3.978746  0
C  C131  1  0.45211188  0.38698976  0.01395413  1  0.500942  0  -0.021664  0.065338  0  3.978407  0
C  C132  1  0.36604116  0.52796135  0.52470137  1  0.439316  0  -0.013041  0.111984  0  3.855656  0
C  C133  1  0.63396269  0.47203865  0.02470059  1  0.439588  0  -0.013068  0.111826  0  3.855661  0
C  C134  1  0.42396099  0.43252665  0.51311502  1  0.419113  0  -0.01513  0.094469  0  3.87611  0
C  C135  1  0.57603697  0.56747343  0.01311640  1  0.419642  0  -0.015122  0.094541  0  3.876035  0
C  C136  1  0.61980180  0.42631983  0.54432991  1  0.412888  0  -0.005414  0.079096  0  3.851089  0
C  C137  1  0.38019537  0.57367562  0.04433133  1  0.412825  0  -0.00548  0.079044  0  3.851154  0
C  C138  1  0.71129481  0.34236507  0.52691298  1  0.474243  0  -0.073316  0.038121  0  3.931153  0
C  C139  1  0.28870286  0.65763128  0.02691376  1  0.474671  0  -0.073217  0.038258  0  3.931174  0
C  C140  1  0.67845845  0.87606917  0.50153469  1  0.910678  0  0.089413  0.255888  0  3.912499  0
C  C141  1  0.32154030  0.12392602  0.00153311  1  0.911092  0  0.089358  0.255803  0  3.912296  0
C  C142  1  0.83886125  0.83023171  0.47423173  1  0.463045  0  -0.014098  0.059171  0  3.92062  0
C  C143  1  0.16113747  0.16976508  0.97423089  1  0.46302  0  -0.014027  0.059345  0  3.920578  0
C  C144  1  0.04036546  0.90283990  0.46318995  1  0.472105  0  -0.015184  0.11265  0  3.883877  0
C  C145  1  0.95963570  0.09715559  0.96319110  1  0.472202  0  -0.015091  0.112803  0  3.883744  0
C  C146  1  0.00313881  0.99425877  0.43780341  1  0.465073  0  -0.024882  0.087666  0  3.943045  0
C  C147  1  0.99685443  0.00573550  0.93780566  1  0.464655  0  -0.024984  0.087511  0  3.94326  0
C  C148  1  0.85898374  0.03477128  0.47490043  1  0.413784  0  -0.009774  0.080493  0  3.85694  0
C  C149  1  0.14101215  0.96522262  0.97490231  1  0.414209  0  -0.009694  0.080688  0  3.85646  0
C  C150  1  0.81327650  0.12676075  0.45301931  1  0.410076  0  -0.07735  0.01765  0  3.906849  0
C  C151  1  0.18671627  0.87323265  0.95302270  1  0.409741  0  -0.077393  0.017565  0  3.906937  0
C  C152  1  0.57085078  0.89076908  0.59343609  1  0.412185  0  0.067671  0.243433  0  4.065186  0
C  C153  1  0.42915025  0.10922876  0.09343534  1  0.412124  0  0.067739  0.243592  0  4.065046  0
C  C154  1  0.39142480  0.91680064  0.57680101  1  -0.009345  0  -0.112668  -0.206783  0  4.041124  0
C  C155  1  0.60857389  0.08320166  0.07679905  1  -0.009452  0  -0.112711  -0.206845  0  4.041059  0
C  C156  1  0.23544972  0.91782314  0.61422566  1  0.014849  0  -0.105362  -0.172361  0  4.005639  0
C  C157  1  0.76455111  0.08218095  0.11422529  1  0.014901  0  -0.105374  -0.172458  0  4.005504  0
C  C158  1  0.26016317  0.89492542  0.66870492  1  0.389329  0  0.070511  0.246512  0  4.049849  0
C  C159  1  0.73983214  0.10508022  0.16870448  1  0.389538  0  0.070538  0.246621  0  4.049907  0
C  C160  1  0.44123676  0.87036867  0.68549778  1  -0.041556  0  -0.109012  -0.196553  0  4.028566  0
C  C161  1  0.55875274  0.12963103  0.18549650  1  -0.041727  0  -0.109157  -0.196669  0  4.028561  0
C  C162  1  0.59581942  0.86750937  0.64783951  1  0.010543  0  -0.101225  -0.169502  0  3.981558  0
C  C163  1  0.40417825  0.13249148  0.14783828  1  0.010535  0  -0.10122  -0.169459  0  3.981527  0
C  C164  1  0.12921345  0.89705796  0.75971918  1  0.966995  0  0.086326  0.251419  0  3.915992  0
C  C165  1  0.87077267  0.10294168  0.25971788  1  0.967189  0  0.086307  0.251369  0  3.915733  0
C  C166  1  0.92026257  0.88108030  0.78846086  1  0.536228  0  -0.019251  0.082185  0  3.948502  0
C  C167  1  0.07972628  0.11891906  0.28846019  1  0.536118  0  -0.019255  0.082175  0  3.948155  0
C  C168  1  0.83325593  0.97088721  0.77893639  1  0.461048  0  -0.015995  0.102603  0  3.863649  0
C  C169  1  0.16673434  0.02911512  0.27893517  1  0.461034  0  -0.015896  0.102729  0  3.863297  0
C  C170  1  0.98607078  0.06331762  0.79515012  1  0.461665  0  -0.017874  0.093311  0  3.894135  0
C  C171  1  0.01392549  0.93668172  0.29514887  1  0.461586  0  -0.017952  0.093321  0  3.893982  0
C  C172  1  0.19537131  0.07060421  0.76808941  1  0.379812  0  0.000719  0.097572  0  3.812109  0
C  C173  1  0.80462754  0.92940044  0.26808709  1  0.384727  0  0.000721  0.09755  0  3.812288  0
C  C174  1  0.36418204  0.15290831  0.78979287  1  0.449146  0  -0.07278  0.032454  0  3.921502  0
C  C175  1  0.63582093  0.84709255  0.28979006  1  0.444122  0  -0.072756  0.032419  0  3.921763  0
O  O176  1  0.17899594  0.57794622  0.83161310  1  -1.059271  0  -0.244597  -0.315728  0  2.490567  0
O  O177  1  0.82100231  0.42205132  0.33161283  1  -1.05923  0  -0.244566  -0.315692  0  2.490487  0
O  O178  1  0.32825448  0.66325471  0.75397500  1  -1.079742  0  -0.188155  -0.276913  0  2.553131  0
O  O179  1  0.67174601  0.33675009  0.25397261  1  -1.079751  0  -0.188129  -0.276792  0  2.553153  0
O  O180  1  0.44876133  0.74334117  0.89286272  1  -1.173502  0  -0.393389  -0.485848  0  2.361145  0
O  O181  1  0.55124332  0.25665793  0.39285900  1  -1.173391  0  -0.39345  -0.485917  0  2.361038  0
O  O182  1  0.80014395  0.67472383  0.87299788  1  -1.201442  0  -0.460864  -0.559868  0  2.278038  0
O  O183  1  0.19985840  0.32527331  0.37300140  1  -1.201378  0  -0.46087  -0.55998  0  2.277953  0
O  O184  1  0.61689499  0.47827276  0.87500290  1  -1.174545  0  -0.44542  -0.536104  0  2.249759  0
O  O185  1  0.38310684  0.52172651  0.37500246  1  -1.17452  0  -0.445409  -0.536102  0  2.249746  0
O  O186  1  0.08801631  0.41894706  0.90445184  1  -1.179404  0  -0.472278  -0.530215  0  2.30194  0
O  O187  1  0.91198723  0.58104976  0.40444776  1  -1.179409  0  -0.472236  -0.530084  0  2.302054  0
O  O188  1  0.78226096  0.51006651  0.53538720  1  -1.034719  0  -0.202178  -0.255055  0  2.503782  0
O  O189  1  0.21774079  0.48992906  0.03538651  1  -1.03489  0  -0.202135  -0.255008  0  2.503887  0
O  O190  1  0.69399463  0.61204011  0.60229426  1  -1.078015  0  -0.18759  -0.276535  0  2.533869  0
O  O191  1  0.30601995  0.38796131  0.10229509  1  -1.078195  0  -0.187633  -0.276568  0  2.53387  0
O  O192  1  0.58894980  0.62247109  0.45739523  1  -1.169118  0  -0.385177  -0.597889  0  2.263535  0
O  O193  1  0.41105906  0.37752809  0.95739566  1  -1.169244  0  -0.385181  -0.59794  0  2.263563  0
O  O194  1  0.19600475  0.53995929  0.49192374  1  -1.117476  0  -0.442723  -0.519466  0  2.308568  0
O  O195  1  0.80400195  0.46004526  0.99192336  1  -1.117583  0  -0.442742  -0.519398  0  2.308697  0
O  O196  1  0.25796099  0.35418790  0.52899844  1  -1.101719  0  -0.402169  -0.495187  0  2.188833  0
O  O197  1  0.74203649  0.64581130  0.02899788  1  -1.102069  0  -0.402152  -0.495191  0  2.188904  0
O  O198  1  0.78110009  0.34978169  0.47176388  1  -1.181424  0  -0.480654  -0.559312  0  2.379713  0
O  O199  1  0.21890081  0.65021012  0.97176513  1  -1.181782  0  -0.480692  -0.559369  0  2.379773  0
O  O200  1  0.66436034  0.96449970  0.47708954  1  -1.057392  0  -0.249105  -0.325664  0  2.471825  0
O  O201  1  0.33563885  0.03549492  0.97709070  1  -1.057421  0  -0.249109  -0.325691  0  2.471616  0
O  O202  1  0.72965200  0.88630597  0.55786119  1  -1.075736  0  -0.186326  -0.27054  0  2.531791  0
O  O203  1  0.27034936  0.11369224  0.05785966  1  -1.076067  0  -0.186323  -0.270555  0  2.531766  0
O  O204  1  0.76206141  0.78430750  0.42464339  1  -1.169173  0  -0.390672  -0.526308  0  2.313893  0
O  O205  1  0.23794177  0.21569198  0.92464197  1  -1.16921  0  -0.39071  -0.526353  0  2.313892  0
O  O206  1  0.16971672  0.85865482  0.42985055  1  -1.140915  0  -0.44901  -0.53937  0  2.223676  0
O  O207  1  0.83028142  0.14134027  0.92984997  1  -1.140931  0  -0.449021  -0.539282  0  2.223656  0
O  O208  1  0.19336823  0.06027185  0.42808812  1  -1.183174  0  -0.461641  -0.55492  0  2.263317  0
O  O209  1  0.80662694  0.93972325  0.92809067  1  -1.183284  0  -0.461595  -0.554793  0  2.263485  0
O  O210  1  0.73549972  0.11488850  0.39831914  1  -1.178679  0  -0.453585  -0.530215  0  2.372066  0
O  O211  1  0.26449756  0.88510763  0.89832165  1  -1.178518  0  -0.453559  -0.530144  0  2.372184  0
O  O212  1  0.26657775  0.98342093  0.77687472  1  -1.052698  0  -0.205765  -0.292391  0  2.506312  0
O  O213  1  0.73341536  0.01657786  0.27687335  1  -1.052814  0  -0.20573  -0.292321  0  2.506376  0
O  O214  1  0.42571538  0.13865522  0.84440910  1  -1.189115  0  -0.47379  -0.558309  0  2.329143  0
O  O215  1  0.57428358  0.86134076  0.34440585  1  -1.188926  0  -0.473729  -0.558273  0  2.329269  0
O  O216  1  0.09524504  0.89659403  0.70266206  1  -1.113025  0  -0.18188  -0.267388  0  2.560533  0
O  O217  1  0.90474596  0.10340909  0.20266116  1  -1.112948  0  -0.181831  -0.267376  0  2.560582  0
O  O218  1  0.93902475  0.85765011  0.84358021  1  -1.173114  0  -0.381665  -0.58719  0  2.246655  0
O  O219  1  0.06095974  0.14235010  0.34357906  1  -1.17308  0  -0.38174  -0.587246  0  2.246589  0
O  O220  1  0.64603889  0.96251005  0.80923239  1  -1.167803  0  -0.457628  -0.550619  0  2.343966  0
O  O221  1  0.35395275  0.03749557  0.30923312  1  -1.167739  0  -0.457607  -0.550546  0  2.343792  0
O  O222  1  0.91615442  0.14696939  0.77900539  1  -1.137515  0  -0.411284  -0.50734  0  2.187241  0
O  O223  1  0.08384300  0.85303227  0.27900316  1  -1.137574  0  -0.411248  -0.507479  0  2.18712  0
