# generated using pymatgen
data_CdH12C12(NO4)2
_symmetry_space_group_name_H-M   'P 1'
_cell_length_a   3.63830745
_cell_length_b   10.33657822
_cell_length_c   17.73818554
_cell_angle_alpha   88.96510146
_cell_angle_beta   84.11251807
_cell_angle_gamma   79.84650581
_symmetry_Int_Tables_number   1
_chemical_formula_structural   CdH12C12(NO4)2
_chemical_formula_sum   'Cd2 H24 C24 N4 O16'
_cell_volume   653.18052556
_cell_formula_units_Z   2
loop_
 _symmetry_equiv_pos_site_id
 _symmetry_equiv_pos_as_xyz
  1  'x, y, z'
loop_
 _atom_site_type_symbol
 _atom_site_label
 _atom_site_symmetry_multiplicity
 _atom_site_fract_x
 _atom_site_fract_y
 _atom_site_fract_z
 _atom_site_occupancy
 _atom_site_hle17_bader_spin_density
 _atom_site_hle17_ddec_charge
 _atom_site_hle17_ddec_spin_density
 _atom_site_hle17_ddec_sum_bond_order
 _atom_site_hle17_magmom
 _atom_site_hse06_10hf_bader_spin_density
 _atom_site_hse06_10hf_ddec_charge
 _atom_site_hse06_10hf_ddec_spin_density
 _atom_site_hse06_10hf_ddec_sum_bond_order
 _atom_site_hse06_10hf_magmom
 _atom_site_hse06_bader_spin_density
 _atom_site_hse06_ddec_charge
 _atom_site_hse06_ddec_spin_density
 _atom_site_hse06_ddec_sum_bond_order
 _atom_site_hse06_magmom
 _atom_site_pbe_bader_spin_density
 _atom_site_pbe_cm5_charge
 _atom_site_pbe_ddec_charge
 _atom_site_pbe_ddec_spin_density
 _atom_site_pbe_ddec_sum_bond_order
 _atom_site_pbe_magmom
Cd  Cd0  1  0.03272102  0.00010928  0.99984039  1  0  1.289709  0  1.560345  0  0  1.123164  0  1.996287  0  0  1.179302  0  1.93485  0  0  0.763468  1.082249  0  2.03964  0
Cd  Cd1  1  0.28310481  0.50007562  0.50018511  1  0  1.290328  0  1.558448  0  0  1.123981  0  1.994158  0  0  1.180179  0  1.93264  0  0  0.764135  1.083101  0  2.037404  0
H  H2  1  0.27317134  0.60116979  0.26173461  1  0  0.318824  0  0.909736  0  0  0.295803  0  0.974091  0  0  0.305341  0  0.966477  0  0  0.312114  0.288859  0  0.979812  0
H  H3  1  0.13636167  0.39906108  0.73805087  1  0  0.318883  0  0.909828  0  0  0.295103  0  0.975493  0  0  0.304645  0  0.96789  0  0  0.312359  0.288517  0  0.980735  0
H  H4  1  0.78412335  0.10086129  0.23823051  1  0  0.318915  0  0.911066  0  0  0.295726  0  0.975387  0  0  0.305253  0  0.967806  0  0  0.312489  0.288807  0  0.981046  0
H  H5  1  0.12497112  0.89899731  0.76198673  1  0  0.318766  0  0.910231  0  0  0.295072  0  0.975378  0  0  0.304626  0  0.967796  0  0  0.312552  0.28849  0  0.98058  0
H  H6  1  0.34567549  0.37186436  0.24026963  1  0  0.111853  0  0.945503  0  0  0.11339  0  1.019357  0  0  0.11758  0  1.014351  0  0  0.127432  0.11029  0  1.023047  0
H  H7  1  0.95786254  0.62837977  0.75964242  1  0  0.110753  0  0.946998  0  0  0.111936  0  1.021493  0  0  0.1161  0  1.01654  0  0  0.127048  0.108939  0  1.025029  0
H  H8  1  0.83600152  0.87149311  0.25979516  1  0  0.110808  0  0.946394  0  0  0.112118  0  1.020832  0  0  0.116283  0  1.015883  0  0  0.127065  0.109032  0  1.024513  0
H  H9  1  0.96771137  0.12828436  0.74041270  1  0  0.110198  0  0.947411  0  0  0.112115  0  1.021329  0  0  0.116317  0  1.016303  0  0  0.126615  0.109126  0  1.024837  0
H  H10  1  0.99364498  0.42768064  0.02886931  1  0  0.094915  0  0.969549  0  0  0.105968  0  1.032729  0  0  0.108299  0  1.03105  0  0  0.106132  0.10428  0  1.033925  0
H  H11  1  0.44915483  0.57199443  0.97114414  1  0  0.0955  0  0.96922  0  0  0.106159  0  1.032692  0  0  0.108439  0  1.031066  0  0  0.106154  0.104382  0  1.033931  0
H  H12  1  0.27300151  0.92788349  0.47108746  1  0  0.095313  0  0.969516  0  0  0.106038  0  1.032969  0  0  0.10837  0  1.031298  0  0  0.10589  0.104342  0  1.034172  0
H  H13  1  0.67059637  0.07209404  0.52891796  1  0  0.095116  0  0.96934  0  0  0.106543  0  1.032088  0  0  0.108733  0  1.030647  0  0  0.1062  0.104705  0  1.033335  0
H  H14  1  0.89646426  0.66853730  0.05557058  1  0  0.136052  0  0.961804  0  0  0.14326  0  1.022922  0  0  0.147537  0  1.021814  0  0  0.108107  0.140249  0  1.024188  0
H  H15  1  0.61965492  0.33122403  0.94430958  1  0  0.136905  0  0.961682  0  0  0.144194  0  1.022853  0  0  0.148465  0  1.021724  0  0  0.108131  0.141098  0  1.02406  0
H  H16  1  0.20160641  0.16871624  0.44426566  1  0  0.136659  0  0.960416  0  0  0.144344  0  1.021011  0  0  0.148624  0  1.019891  0  0  0.108023  0.141327  0  1.022282  0
H  H17  1  0.81506324  0.83131907  0.55575866  1  0  0.137091  0  0.960512  0  0  0.143945  0  1.022171  0  0  0.148229  0  1.021008  0  0  0.107971  0.140838  0  1.023419  0
H  H18  1  0.51198162  0.87790511  0.11927314  1  0  0.433101  0  0.872464  0  0  0.397739  0  0.941262  0  0  0.410584  0  0.923175  0  0  0.284873  0.388251  0  0.954682  0
H  H19  1  0.50930790  0.12234026  0.88034490  1  0  0.433093  0  0.872516  0  0  0.397783  0  0.94122  0  0  0.410611  0  0.923162  0  0  0.284956  0.388583  0  0.954159  0
H  H20  1  0.88090553  0.37781290  0.38065997  1  0  0.433545  0  0.871626  0  0  0.398355  0  0.940113  0  0  0.411175  0  0.922067  0  0  0.284957  0.388875  0  0.95352  0
H  H21  1  0.64050177  0.62228424  0.61962337  1  0  0.432236  0  0.873659  0  0  0.396827  0  0.942599  0  0  0.409643  0  0.924556  0  0  0.284439  0.387635  0  0.955534  0
H  H22  1  0.50712905  0.03701775  0.11644403  1  0  0.414852  0  0.902051  0  0  0.377997  0  0.97505  0  0  0.39064  0  0.957119  0  0  0.28148  0.36873  0  0.988177  0
H  H23  1  0.66104703  0.96323011  0.88326611  1  0  0.413887  0  0.903757  0  0  0.376948  0  0.976764  0  0  0.389594  0  0.958843  0  0  0.281312  0.368073  0  0.989257  0
H  H24  1  0.87409998  0.53687490  0.38357786  1  0  0.41397  0  0.903347  0  0  0.377082  0  0.976366  0  0  0.389744  0  0.95842  0  0  0.280823  0.367801  0  0.989506  0
H  H25  1  0.79492789  0.46312248  0.61674991  1  0  0.414659  0  0.902658  0  0  0.377577  0  0.975874  0  0  0.390236  0  0.957926  0  0  0.28151  0.36869  0  0.988389  0
C  C26  1  0.47692490  0.43191644  0.19807210  1  0  0.173187  0  3.618581  0  0  0.119509  0  3.881534  0  0  0.134909  0  3.89327  0  0  0.068206  0.109596  0  3.873121  0
C  C27  1  0.10705781  0.56821315  0.80180315  1  0  0.175423  0  3.619206  0  0  0.121891  0  3.882873  0  0  0.137276  0  3.894619  0  0  0.06885  0.111878  0  3.874736  0
C  C28  1  0.92505005  0.93167738  0.30193410  1  0  0.176791  0  3.617003  0  0  0.122509  0  3.880875  0  0  0.13793  0  3.892561  0  0  0.06884  0.112578  0  3.872509  0
C  C29  1  0.15905519  0.06815951  0.69823540  1  0  0.174906  0  3.62015  0  0  0.120323  0  3.883724  0  0  0.135702  0  3.895508  0  0  0.068372  0.110307  0  3.875562  0
C  C30  1  0.67475318  0.38081006  0.13137307  1  0  -0.175029  0  3.78875  0  0  -0.156105  0  4.044917  0  0  -0.1748  0  4.070015  0  0  -0.036057  -0.143814  0  4.027923  0
C  C31  1  0.18691769  0.61916917  0.86854518  1  0  -0.176427  0  3.791311  0  0  -0.157714  0  4.04768  0  0  -0.176557  0  4.072939  0  0  -0.036533  -0.145789  0  4.030932  0
C  C32  1  0.05656962  0.88074100  0.36863336  1  0  -0.176992  0  3.790317  0  0  -0.157775  0  4.046585  0  0  -0.176462  0  4.071636  0  0  -0.036135  -0.145471  0  4.029595  0
C  C33  1  0.30544475  0.11913678  0.63147881  1  0  -0.176481  0  3.790671  0  0  -0.157534  0  4.047501  0  0  -0.176244  0  4.072571  0  0  -0.036014  -0.14567  0  4.030818  0
C  C34  1  0.56619259  0.65321625  0.16317761  1  0  0.55839  0  3.835752  0  0  0.513405  0  4.120632  0  0  0.541848  0  4.124023  0  0  0.222131  0.494195  0  4.117721  0
C  C35  1  0.38270234  0.34682782  0.83658235  1  0  0.557224  0  3.834432  0  0  0.51304  0  4.118166  0  0  0.541355  0  4.121694  0  0  0.223333  0.494276  0  4.1153  0
C  C36  1  0.97864812  0.15310285  0.33671954  1  0  0.558024  0  3.836132  0  0  0.5135  0  4.120364  0  0  0.54193  0  4.123797  0  0  0.222468  0.494304  0  4.117432  0
C  C37  1  0.46984359  0.84682348  0.66343360  1  0  0.555502  0  3.837907  0  0  0.511328  0  4.121269  0  0  0.539706  0  4.124793  0  0  0.222359  0.492499  0  4.118442  0
C  C38  1  0.83180540  0.46852861  0.08067829  1  0  0.011793  0  3.752655  0  0  -0.018119  0  4.003224  0  0  -0.008236  0  4.020968  0  0  -0.067937  -0.023989  0  3.990622  0
C  C39  1  0.38042484  0.53130496  0.91926076  1  0  0.0121  0  3.754578  0  0  -0.017436  0  4.005566  0  0  -0.007497  0  4.023351  0  0  -0.067817  -0.023309  0  3.99318  0
C  C40  1  0.16275867  0.96860091  0.41927216  1  0  0.011749  0  3.755896  0  0  -0.017973  0  4.006585  0  0  -0.008097  0  4.024338  0  0  -0.067912  -0.023833  0  3.993959  0
C  C41  1  0.55007076  0.03134055  0.58078728  1  0  0.011673  0  3.754182  0  0  -0.018584  0  4.004776  0  0  -0.008668  0  4.022574  0  0  -0.068416  -0.024358  0  3.992436  0
C  C42  1  0.78008177  0.60071929  0.09515200  1  0  -0.266901  0  3.694546  0  0  -0.281322  0  3.954809  0  0  -0.296619  0  3.973872  0  0  -0.10644  -0.271425  0  3.942073  0
C  C43  1  0.47535258  0.39911479  0.90472020  1  0  -0.267266  0  3.694831  0  0  -0.281817  0  3.954708  0  0  -0.297153  0  3.973845  0  0  -0.106485  -0.272269  0  3.942172  0
C  C44  1  0.12496191  0.10076415  0.40473888  1  0  -0.266654  0  3.694558  0  0  -0.2816  0  3.954561  0  0  -0.296881  0  3.973563  0  0  -0.105651  -0.271704  0  3.941837  0
C  C45  1  0.63092736  0.89916996  0.59534441  1  0  -0.267014  0  3.694389  0  0  -0.280994  0  3.954  0  0  -0.296283  0  3.973048  0  0  -0.10623  -0.271471  0  3.941504  0
C  C46  1  0.71187528  0.24018783  0.11070424  1  0  0.682896  0  3.882225  0  0  0.623278  0  4.186823  0  0  0.659797  0  4.17938  0  0  0.214711  0.597944  0  4.191685  0
C  C47  1  0.06341628  0.75984051  0.88917670  1  0  0.681328  0  3.88338  0  0  0.62201  0  4.187611  0  0  0.658603  0  4.18016  0  0  0.214669  0.597351  0  4.191714  0
C  C48  1  0.07347337  0.74014798  0.38936984  1  0  0.680745  0  3.882756  0  0  0.621167  0  4.187388  0  0  0.657686  0  4.179929  0  0  0.213512  0.59586  0  4.192233  0
C  C49  1  0.20224038  0.25976319  0.61081995  1  0  0.681912  0  3.881438  0  0  0.622339  0  4.186385  0  0  0.658887  0  4.178905  0  0  0.215162  0.597686  0  4.190541  0
N  N50  1  0.43254860  0.56192586  0.21252264  1  0  -0.351248  0  3.343133  0  0  -0.279779  0  3.573282  0  0  -0.301425  0  3.583276  0  0  -0.362192  -0.265087  0  3.566362  0
N  N51  1  0.20723889  0.43824087  0.78728435  1  0  -0.349813  0  3.342556  0  0  -0.278126  0  3.573229  0  0  -0.299624  0  3.583061  0  0  -0.362168  -0.263913  0  3.566246  0
N  N52  1  0.89456871  0.06167116  0.28742604  1  0  -0.352563  0  3.344744  0  0  -0.280723  0  3.575212  0  0  -0.302322  0  3.585093  0  0  -0.362926  -0.266096  0  3.568415  0
N  N53  1  0.24501634  0.93819797  0.71274884  1  0  -0.348585  0  3.344384  0  0  -0.276518  0  3.574665  0  0  -0.29818  0  3.58478  0  0  -0.361895  -0.262182  0  3.567493  0
O  O54  1  0.49019458  0.77345443  0.18161620  1  0  -0.588968  0  1.97358  0  0  -0.533726  0  2.193531  0  0  -0.557404  0  2.184843  0  0  -0.306841  -0.5166  0  2.199165  0
O  O55  1  0.44586935  0.22663852  0.81803928  1  0  -0.588906  0  1.973709  0  0  -0.534001  0  2.19406  0  0  -0.55771  0  2.185422  0  0  -0.308195  -0.517471  0  2.1995  0
O  O56  1  0.92067697  0.27331289  0.31826493  1  0  -0.588801  0  1.972985  0  0  -0.534088  0  2.193225  0  0  -0.557736  0  2.18451  0  0  -0.307143  -0.516973  0  2.19882  0
O  O57  1  0.51426699  0.72660930  0.68193663  1  0  -0.587091  0  1.973659  0  0  -0.532294  0  2.19374  0  0  -0.555998  0  2.185137  0  0  -0.306892  -0.51576  0  2.199172  0
O  O58  1  0.50198040  0.95736760  0.08329037  1  0  -0.904108  0  1.932188  0  0  -0.820752  0  2.158928  0  0  -0.85026  0  2.119241  0  0  -0.582074  -0.799842  0  2.187621  0
O  O59  1  0.54275492  0.04289020  0.91637326  1  0  -0.904066  0  1.932959  0  0  -0.82113  0  2.160462  0  0  -0.850429  0  2.120554  0  0  -0.581985  -0.79984  0  2.188151  0
O  O60  1  0.83554490  0.45720684  0.41668073  1  0  -0.903518  0  1.931426  0  0  -0.820368  0  2.157994  0  0  -0.849825  0  2.118258  0  0  -0.581266  -0.799501  0  2.186727  0
O  O61  1  0.71012665  0.54281817  0.58361229  1  0  -0.904609  0  1.933851  0  0  -0.821494  0  2.16164  0  0  -0.850804  0  2.12179  0  0  -0.581851  -0.800159  0  2.189189  0
O  O62  1  0.87394874  0.20759652  0.04467821  1  0  -0.656632  0  2.000697  0  0  -0.585021  0  2.253745  0  0  -0.615364  0  2.24215  0  0  -0.327174  -0.563541  0  2.261353  0
O  O63  1  0.12706227  0.79247408  0.95516647  1  0  -0.65602  0  2.000461  0  0  -0.584522  0  2.253084  0  0  -0.614858  0  2.241492  0  0  -0.327266  -0.563172  0  2.260636  0
O  O64  1  0.16952937  0.70765334  0.45540947  1  0  -0.656191  0  2.00022  0  0  -0.584409  0  2.252728  0  0  -0.61481  0  2.241303  0  0  -0.3278  -0.562905  0  2.260236  0
O  O65  1  0.33169942  0.29240035  0.54482138  1  0  -0.6566  0  1.999849  0  0  -0.585008  0  2.252416  0  0  -0.6154  0  2.241038  0  0  -0.327934  -0.563629  0  2.259824  0
O  O66  1  0.57408240  0.16193064  0.15792982  1  0  -0.638069  0  2.002958  0  0  -0.577191  0  2.227177  0  0  -0.602128  0  2.216037  0  0  -0.318229  -0.559148  0  2.234479  0
O  O67  1  0.89494369  0.83815964  0.84190873  1  0  -0.637129  0  2.004897  0  0  -0.575673  0  2.228715  0  0  -0.600683  0  2.217558  0  0  -0.317902  -0.558429  0  2.235812  0
O  O68  1  0.98331834  0.66177647  0.34216052  1  0  -0.63697  0  2.003269  0  0  -0.576024  0  2.227186  0  0  -0.60103  0  2.21616  0  0  -0.317293  -0.558028  0  2.234577  0
O  O69  1  0.98645944  0.33807121  0.65809786  1  0  -0.63692  0  2.003555  0  0  -0.575643  0  2.228002  0  0  -0.600689  0  2.216996  0  0  -0.318195  -0.55837  0  2.235014  0
