# generated using pymatgen
data_NaH6C7SNO5
_symmetry_space_group_name_H-M   'P 1'
_cell_length_a   6.95009510
_cell_length_b   10.80264342
_cell_length_c   12.02531916
_cell_angle_alpha   89.99986169
_cell_angle_beta   90.00008548
_cell_angle_gamma   90.00008094
_symmetry_Int_Tables_number   1
_chemical_formula_structural   NaH6C7SNO5
_chemical_formula_sum   'Na4 H24 C28 S4 N4 O20'
_cell_volume   902.85373619
_cell_formula_units_Z   4
loop_
 _symmetry_equiv_pos_site_id
 _symmetry_equiv_pos_as_xyz
  1  'x, y, z'
loop_
 _atom_site_type_symbol
 _atom_site_label
 _atom_site_symmetry_multiplicity
 _atom_site_fract_x
 _atom_site_fract_y
 _atom_site_fract_z
 _atom_site_occupancy
 _atom_site_hle17_bader_spin_density
 _atom_site_hle17_ddec_charge
 _atom_site_hle17_ddec_spin_density
 _atom_site_hle17_ddec_sum_bond_order
 _atom_site_hle17_magmom
 _atom_site_hse06_10hf_bader_spin_density
 _atom_site_hse06_10hf_ddec_charge
 _atom_site_hse06_10hf_ddec_spin_density
 _atom_site_hse06_10hf_ddec_sum_bond_order
 _atom_site_hse06_10hf_magmom
 _atom_site_hse06_bader_spin_density
 _atom_site_hse06_ddec_charge
 _atom_site_hse06_ddec_spin_density
 _atom_site_hse06_ddec_sum_bond_order
 _atom_site_hse06_magmom
 _atom_site_pbe_bader_spin_density
 _atom_site_pbe_cm5_charge
 _atom_site_pbe_ddec_charge
 _atom_site_pbe_ddec_spin_density
 _atom_site_pbe_ddec_sum_bond_order
 _atom_site_pbe_magmom
Na  Na0  1  0.25000124  0.90286717  0.63232913  1  0  0.89697  0  0.423279  0  0  0.849562  0  0.590935  0  0  0.859687  0  0.568854  0  0  0.72249  0.841933  0  0.606995  0
Na  Na1  1  0.75000062  0.59713087  0.13233047  1  0  0.896984  0  0.42328  0  0  0.849596  0  0.590885  0  0  0.859723  0  0.5688  0  0  0.72251  0.841968  0  0.60695  0
Na  Na2  1  0.24999955  0.40286794  0.86766978  1  0  0.896971  0  0.423271  0  0  0.849572  0  0.590901  0  0  0.859693  0  0.568816  0  0  0.722488  0.841943  0  0.606964  0
Na  Na3  1  0.74999894  0.09713071  0.36767196  1  0  0.896969  0  0.423265  0  0  0.849565  0  0.590904  0  0  0.859689  0  0.568824  0  0  0.722506  0.841938  0  0.606966  0
H  H4  1  0.13900392  0.90688865  0.40935703  1  0  0.416494  0  0.857365  0  0  0.389803  0  0.93132  0  0  0.398456  0  0.918492  0  0  0.303928  0.383659  0  0.940462  0
H  H5  1  0.63900312  0.59311501  0.90936012  1  0  0.41657  0  0.857376  0  0  0.389872  0  0.931241  0  0  0.398527  0  0.918414  0  0  0.30396  0.383726  0  0.94038  0
H  H6  1  0.13900441  0.40688831  0.09064337  1  0  0.416484  0  0.857383  0  0  0.389797  0  0.931328  0  0  0.39845  0  0.918499  0  0  0.303929  0.383653  0  0.940468  0
H  H7  1  0.63900505  0.09311004  0.59064479  1  0  0.416503  0  0.857354  0  0  0.389818  0  0.931293  0  0  0.398473  0  0.918463  0  0  0.303934  0.383673  0  0.940436  0
H  H8  1  0.86099482  0.09311015  0.59064489  1  0  0.416495  0  0.857363  0  0  0.389809  0  0.931309  0  0  0.398462  0  0.918481  0  0  0.303926  0.383663  0  0.940453  0
H  H9  1  0.36099562  0.40688842  0.09064430  1  0  0.416494  0  0.857377  0  0  0.389806  0  0.931316  0  0  0.39846  0  0.918487  0  0  0.303933  0.383663  0  0.940456  0
H  H10  1  0.86099577  0.59311419  0.90935938  1  0  0.416543  0  0.857391  0  0  0.389839  0  0.931287  0  0  0.398493  0  0.918461  0  0  0.303922  0.383692  0  0.940427  0
H  H11  1  0.36099512  0.90688876  0.40935629  1  0  0.4165  0  0.857364  0  0  0.38981  0  0.931313  0  0  0.398465  0  0.918483  0  0  0.303929  0.383665  0  0.940457  0
H  H12  1  0.25000057  0.10445590  0.78574879  1  0  0.387706  0  0.90425  0  0  0.36047  0  0.978548  0  0  0.372448  0  0.965759  0  0  0.303285  0.35199  0  0.987489  0
H  H13  1  0.75000492  0.39554389  0.28575115  1  0  0.387704  0  0.904263  0  0  0.36045  0  0.978578  0  0  0.372428  0  0.965793  0  0  0.303248  0.351972  0  0.987516  0
H  H14  1  0.24999670  0.60445584  0.71424827  1  0  0.387704  0  0.904253  0  0  0.360453  0  0.978566  0  0  0.37243  0  0.965782  0  0  0.303242  0.351974  0  0.987505  0
H  H15  1  0.74999961  0.89554383  0.21425064  1  0  0.387738  0  0.904202  0  0  0.360502  0  0.978498  0  0  0.372481  0  0.965708  0  0  0.303294  0.352024  0  0.987436  0
H  H16  1  0.24999943  0.16446133  0.97338033  1  0  0.118929  0  0.960676  0  0  0.128815  0  1.021719  0  0  0.132827  0  1.019555  0  0  0.110832  0.126149  0  1.023167  0
H  H17  1  0.74999933  0.33553888  0.47338116  1  0  0.118965  0  0.960663  0  0  0.128872  0  1.021686  0  0  0.132885  0  1.019519  0  0  0.110836  0.126206  0  1.023135  0
H  H18  1  0.24999940  0.66446085  0.52661660  1  0  0.118949  0  0.960569  0  0  0.128845  0  1.021613  0  0  0.132856  0  1.019447  0  0  0.110834  0.126178  0  1.023062  0
H  H19  1  0.75000075  0.83553840  0.02662075  1  0  0.118951  0  0.960653  0  0  0.128845  0  1.021676  0  0  0.132855  0  1.019514  0  0  0.110826  0.126179  0  1.023124  0
H  H20  1  0.24999834  0.10301727  0.16879302  1  0  0.103042  0  0.933295  0  0  0.112833  0  0.991834  0  0  0.116213  0  0.98913  0  0  0.109196  0.110095  0  0.994315  0
H  H21  1  0.74999821  0.39698099  0.66879462  1  0  0.103056  0  0.9333  0  0  0.11284  0  0.991843  0  0  0.116218  0  0.989141  0  0  0.109171  0.110103  0  0.994322  0
H  H22  1  0.25000053  0.60301874  0.33120397  1  0  0.103019  0  0.933246  0  0  0.112802  0  0.991796  0  0  0.116181  0  0.989092  0  0  0.109179  0.110064  0  0.994274  0
H  H23  1  0.75000039  0.89698339  0.83120723  1  0  0.103023  0  0.933303  0  0  0.112817  0  0.991848  0  0  0.116195  0  0.989146  0  0  0.109202  0.110079  0  0.994328  0
H  H24  1  0.24999925  0.87716197  0.22290967  1  0  0.108069  0  0.956116  0  0  0.117492  0  1.019338  0  0  0.121755  0  1.015822  0  0  0.108046  0.114271  0  1.022152  0
H  H25  1  0.74999996  0.62283767  0.72291103  1  0  0.108212  0  0.956002  0  0  0.117563  0  1.019307  0  0  0.121825  0  1.015792  0  0  0.108089  0.114342  0  1.022122  0
H  H26  1  0.25000022  0.37716391  0.27708673  1  0  0.108212  0  0.955997  0  0  0.117563  0  1.019293  0  0  0.121825  0  1.01578  0  0  0.108062  0.114345  0  1.02211  0
H  H27  1  0.74999949  0.12283961  0.77709225  1  0  0.108054  0  0.956123  0  0  0.117468  0  1.019343  0  0  0.121728  0  1.015832  0  0  0.108054  0.114253  0  1.022158  0
C  C28  1  0.25000423  0.73818309  0.86643702  1  0  0.602374  0  3.825791  0  0  0.566411  0  4.104617  0  0  0.597606  0  4.101917  0  0  0.241072  0.545186  0  4.106026  0
C  C29  1  0.75000110  0.76181617  0.36643801  1  0  0.602458  0  3.825601  0  0  0.566458  0  4.1045  0  0  0.597651  0  4.101798  0  0  0.241091  0.545236  0  4.105903  0
C  C30  1  0.24999908  0.23818356  0.63355975  1  0  0.602516  0  3.825246  0  0  0.566539  0  4.104102  0  0  0.59773  0  4.101403  0  0  0.241165  0.545318  0  4.105516  0
C  C31  1  0.75000026  0.26181664  0.13356407  1  0  0.602426  0  3.825778  0  0  0.566427  0  4.104617  0  0  0.597623  0  4.101912  0  0  0.241071  0.545205  0  4.106023  0
C  C32  1  0.25000301  0.85183666  0.93701881  1  0  -0.200646  0  3.748446  0  0  -0.190642  0  3.979673  0  0  -0.20226  0  4.003117  0  0  -0.023397  -0.182992  0  3.964223  0
C  C33  1  0.75000106  0.64816334  0.43701921  1  0  -0.200663  0  3.74826  0  0  -0.190698  0  3.979604  0  0  -0.202318  0  4.003044  0  0  -0.023422  -0.183052  0  3.964152  0
C  C34  1  0.24999767  0.35183639  0.56297772  1  0  -0.200684  0  3.748297  0  0  -0.190701  0  3.97961  0  0  -0.202319  0  4.003051  0  0  -0.023397  -0.183056  0  3.964164  0
C  C35  1  0.75000005  0.14816400  0.06298145  1  0  -0.200726  0  3.748511  0  0  -0.190671  0  3.979673  0  0  -0.202291  0  4.003115  0  0  -0.023407  -0.183023  0  3.964222  0
C  C36  1  0.25000167  0.97797897  0.90717747  1  0  0.370031  0  3.802843  0  0  0.357461  0  4.061819  0  0  0.371727  0  4.076832  0  0  0.10662  0.347498  0  4.052029  0
C  C37  1  0.75000233  0.52202018  0.40717898  1  0  0.370131  0  3.802788  0  0  0.357535  0  4.061815  0  0  0.371801  0  4.076829  0  0  0.106635  0.347572  0  4.052021  0
C  C38  1  0.24999641  0.47797955  0.59282128  1  0  0.370076  0  3.802719  0  0  0.357463  0  4.06178  0  0  0.371727  0  4.076795  0  0  0.106606  0.347499  0  4.051987  0
C  C39  1  0.74999995  0.02201983  0.09282362  1  0  0.370029  0  3.80285  0  0  0.357457  0  4.061801  0  0  0.371723  0  4.076813  0  0  0.106595  0.347495  0  4.052009  0
C  C40  1  0.24999935  0.06627237  0.99369674  1  0  -0.197678  0  3.696989  0  0  -0.221475  0  3.955312  0  0  -0.229411  0  3.976725  0  0  -0.09369  -0.216347  0  3.941257  0
C  C41  1  0.74999947  0.43372686  0.49369819  1  0  -0.19788  0  3.69687  0  0  -0.221699  0  3.955225  0  0  -0.229638  0  3.976639  0  0  -0.093808  -0.216574  0  3.94117  0
C  C42  1  0.24999927  0.56627195  0.50629874  1  0  -0.197864  0  3.696783  0  0  -0.221695  0  3.955168  0  0  -0.229632  0  3.976582  0  0  -0.093852  -0.216566  0  3.941109  0
C  C43  1  0.74999939  0.93372828  0.00630351  1  0  -0.197726  0  3.69708  0  0  -0.221531  0  3.955415  0  0  -0.229466  0  3.976828  0  0  -0.093685  -0.216402  0  3.941358  0
C  C44  1  0.24999962  0.03136359  0.10501018  1  0  0.003604  0  3.705616  0  0  -0.014392  0  3.968744  0  0  -0.011028  0  3.985379  0  0  -0.069798  -0.016431  0  3.95787  0
C  C45  1  0.74999677  0.46863668  0.60501245  1  0  0.003593  0  3.705378  0  0  -0.014375  0  3.968468  0  0  -0.011011  0  3.985108  0  0  -0.069715  -0.016413  0  3.957594  0
C  C46  1  0.25000053  0.53136212  0.39498780  1  0  0.003714  0  3.705362  0  0  -0.014229  0  3.968431  0  0  -0.010864  0  3.985069  0  0  -0.069682  -0.016267  0  3.957554  0
C  C47  1  0.75000055  0.96863613  0.89499091  1  0  0.003703  0  3.705564  0  0  -0.014307  0  3.968706  0  0  -0.010943  0  3.985343  0  0  -0.069762  -0.016344  0  3.957833  0
C  C48  1  0.24999917  0.90606520  0.13624250  1  0  -0.073359  0  3.7245  0  0  -0.105706  0  3.986206  0  0  -0.106976  0  4.002657  0  0  -0.088947  -0.104953  0  3.975183  0
C  C49  1  0.74999838  0.59393467  0.63624392  1  0  -0.073377  0  3.724368  0  0  -0.105675  0  3.986092  0  0  -0.106947  0  4.00254  0  0  -0.088913  -0.104922  0  3.975065  0
C  C50  1  0.25000036  0.40606505  0.36375384  1  0  -0.0735  0  3.724372  0  0  -0.105797  0  3.986086  0  0  -0.107069  0  4.002532  0  0  -0.088915  -0.105043  0  3.975057  0
C  C51  1  0.74999957  0.09393268  0.86375776  1  0  -0.073342  0  3.724362  0  0  -0.105675  0  3.986086  0  0  -0.106945  0  4.002536  0  0  -0.088959  -0.104931  0  3.975073  0
C  C52  1  0.25000185  0.82125459  0.05027481  1  0  -0.119149  0  3.807512  0  0  -0.101149  0  4.054561  0  0  -0.103629  0  4.076929  0  0  -0.013087  -0.099148  0  4.039219  0
C  C53  1  0.74999836  0.67874644  0.55027688  1  0  -0.119153  0  3.807311  0  0  -0.101146  0  4.054369  0  0  -0.103615  0  4.076718  0  0  -0.013115  -0.099143  0  4.039027  0
C  C54  1  0.25000037  0.32125421  0.44972088  1  0  -0.119088  0  3.807411  0  0  -0.101084  0  4.054471  0  0  -0.103553  0  4.076818  0  0  -0.013157  -0.099088  0  4.039135  0
C  C55  1  0.74999977  0.17874514  0.94972545  1  0  -0.11915  0  3.807461  0  0  -0.10116  0  4.054475  0  0  -0.103636  0  4.076836  0  0  -0.013087  -0.099159  0  4.039139  0
S  S56  1  0.25000168  0.65786032  0.05785815  1  0  1.258083  0  5.443688  0  0  1.185221  0  5.933821  0  0  1.2278  0  5.918241  0  0  0.56639  1.155539  0  5.944049  0
S  S57  1  0.74999999  0.84213884  0.55785821  1  0  1.25802  0  5.443843  0  0  1.185157  0  5.933964  0  0  1.227732  0  5.918383  0  0  0.566352  1.155477  0  5.944191  0
S  S58  1  0.25000019  0.15785996  0.44213956  1  0  1.257858  0  5.443903  0  0  1.184987  0  5.934055  0  0  1.227566  0  5.918471  0  0  0.566319  1.155312  0  5.944278  0
S  S59  1  0.74999993  0.34213941  0.94214294  1  0  1.258099  0  5.443677  0  0  1.185217  0  5.933825  0  0  1.2278  0  5.918242  0  0  0.566342  1.155537  0  5.944053  0
N  N60  1  0.25000419  0.63063989  0.92541603  1  0  -0.732672  0  2.880576  0  0  -0.692823  0  3.173588  0  0  -0.715749  0  3.170858  0  0  -0.439993  -0.676858  0  3.17546  0
N  N61  1  0.74999985  0.86936014  0.42541595  1  0  -0.732665  0  2.880574  0  0  -0.692788  0  3.173588  0  0  -0.715713  0  3.170861  0  0  -0.439968  -0.676823  0  3.175459  0
N  N62  1  0.25000033  0.13063866  0.57458098  1  0  -0.732668  0  2.880487  0  0  -0.692814  0  3.17353  0  0  -0.715744  0  3.170808  0  0  -0.439979  -0.676823  0  3.17534  0
N  N63  1  0.75000030  0.36935984  0.07458506  1  0  -0.732642  0  2.880473  0  0  -0.692788  0  3.1735  0  0  -0.715721  0  3.170774  0  0  -0.439974  -0.676824  0  3.175374  0
O  O64  1  0.07561416  0.61050509  0.11045798  1  0  -0.680595  0  1.969122  0  0  -0.636469  0  2.225084  0  0  -0.656496  0  2.210675  0  0  -0.388012  -0.622095  0  2.234633  0
O  O65  1  0.57561257  0.88949469  0.61045876  1  0  -0.680601  0  1.969177  0  0  -0.636454  0  2.225101  0  0  -0.656492  0  2.210723  0  0  -0.387998  -0.622082  0  2.23465  0
O  O66  1  0.07561109  0.11050580  0.38953802  1  0  -0.680516  0  1.96904  0  0  -0.636381  0  2.224991  0  0  -0.656411  0  2.2106  0  0  -0.387962  -0.62201  0  2.234535  0
O  O67  1  0.57561238  0.38949448  0.88954129  1  0  -0.680614  0  1.969118  0  0  -0.636474  0  2.225063  0  0  -0.656503  0  2.210662  0  0  -0.387994  -0.6221  0  2.234612  0
O  O68  1  0.92438746  0.38949464  0.88954145  1  0  -0.680609  0  1.969129  0  0  -0.636475  0  2.225087  0  0  -0.656501  0  2.210676  0  0  -0.387986  -0.622102  0  2.234636  0
O  O69  1  0.42438617  0.11050503  0.38953734  1  0  -0.680541  0  1.969186  0  0  -0.636383  0  2.225092  0  0  -0.65642  0  2.210717  0  0  -0.387981  -0.622011  0  2.234636  0
O  O70  1  0.92438765  0.88949393  0.61045975  1  0  -0.680597  0  1.969149  0  0  -0.636457  0  2.225092  0  0  -0.656489  0  2.210703  0  0  -0.388002  -0.622084  0  2.234641  0
O  O71  1  0.42438780  0.61050617  0.11046146  1  0  -0.680609  0  1.969106  0  0  -0.636474  0  2.225047  0  0  -0.656512  0  2.210664  0  0  -0.387998  -0.622101  0  2.234596  0
O  O72  1  0.25000266  0.73925426  0.76119740  1  0  -0.594457  0  1.966737  0  0  -0.544564  0  2.187768  0  0  -0.565575  0  2.177246  0  0  -0.346757  -0.53006  0  2.194784  0
O  O73  1  0.74999953  0.76074435  0.26119922  1  0  -0.594531  0  1.9666  0  0  -0.544623  0  2.187645  0  0  -0.565634  0  2.17712  0  0  -0.346789  -0.530121  0  2.194657  0
O  O74  1  0.24999921  0.23925538  0.73879937  1  0  -0.594555  0  1.966501  0  0  -0.544637  0  2.187527  0  0  -0.565647  0  2.177003  0  0  -0.346832  -0.530137  0  2.194544  0
O  O75  1  0.74999896  0.26074546  0.23880286  1  0  -0.5945  0  1.966727  0  0  -0.544593  0  2.187768  0  0  -0.565604  0  2.177241  0  0  -0.346779  -0.53009  0  2.194781  0
O  O76  1  0.25000048  0.01047426  0.79958553  1  0  -0.570111  0  2.190425  0  0  -0.523102  0  2.419815  0  0  -0.542912  0  2.409598  0  0  -0.404063  -0.508819  0  2.426615  0
O  O77  1  0.75001079  0.48952642  0.29958686  1  0  -0.570139  0  2.190357  0  0  -0.523077  0  2.419723  0  0  -0.542887  0  2.409508  0  0  -0.404026  -0.508794  0  2.426521  0
O  O78  1  0.24998939  0.51047330  0.70041174  1  0  -0.570086  0  2.190339  0  0  -0.523016  0  2.419708  0  0  -0.542826  0  2.409493  0  0  -0.403976  -0.508732  0  2.426506  0
O  O79  1  0.74999970  0.98952547  0.20041473  1  0  -0.570128  0  2.190404  0  0  -0.523116  0  2.419786  0  0  -0.542926  0  2.409568  0  0  -0.404051  -0.508832  0  2.426587  0
O  O80  1  0.24999949  0.85677131  0.43118025  1  0  -0.832522  0  1.776328  0  0  -0.791098  0  1.95339  0  0  -0.806452  0  1.926333  0  0  -0.620037  -0.780206  0  1.972621  0
O  O81  1  0.75000025  0.64322777  0.93118989  1  0  -0.83267  0  1.776435  0  0  -0.791226  0  1.953409  0  0  -0.806573  0  1.926301  0  0  -0.620074  -0.780323  0  1.97266  0
O  O82  1  0.24999993  0.35677196  0.06882035  1  0  -0.832508  0  1.776366  0  0  -0.791076  0  1.953412  0  0  -0.806432  0  1.926357  0  0  -0.620039  -0.780184  0  1.972642  0
O  O83  1  0.74999925  0.14322749  0.56882084  1  0  -0.832504  0  1.776305  0  0  -0.791099  0  1.953384  0  0  -0.806448  0  1.926318  0  0  -0.620042  -0.78021  0  1.972621  0
