# generated using pymatgen
data_CoH14C24S(NO3)2
_symmetry_space_group_name_H-M   'P 1'
_cell_length_a   7.71383790
_cell_length_b   12.45731920
_cell_length_c   12.45713022
_cell_angle_alpha   112.61465575
_cell_angle_beta   101.36783107
_cell_angle_gamma   101.36818293
_symmetry_Int_Tables_number   1
_chemical_formula_structural   CoH14C24S(NO3)2
_chemical_formula_sum   'Co2 H28 C48 S2 N4 O12'
_cell_volume   1032.90489311
_cell_formula_units_Z   2
loop_
 _symmetry_equiv_pos_site_id
 _symmetry_equiv_pos_as_xyz
  1  'x, y, z'
loop_
 _atom_site_type_symbol
 _atom_site_label
 _atom_site_symmetry_multiplicity
 _atom_site_fract_x
 _atom_site_fract_y
 _atom_site_fract_z
 _atom_site_occupancy
 _atom_site_hle17_ddec_charge
 _atom_site_hle17_ddec_spin_density
 _atom_site_hle17_ddec_sum_bond_order
 _atom_site_hle17_magmom
 _atom_site_hse06_10hf_ddec_charge
 _atom_site_hse06_10hf_ddec_spin_density
 _atom_site_hse06_10hf_ddec_sum_bond_order
 _atom_site_hse06_10hf_magmom
 _atom_site_hse06_ddec_charge
 _atom_site_hse06_ddec_spin_density
 _atom_site_hse06_ddec_sum_bond_order
 _atom_site_hse06_magmom
 _atom_site_pbe_cm5_charge
 _atom_site_pbe_ddec_charge
 _atom_site_pbe_ddec_spin_density
 _atom_site_pbe_ddec_sum_bond_order
 _atom_site_pbe_magmom
Co  Co0  1  0.12815326  0.20156766  0.38965201  1  0.977492  2.893033  2.015809  2.584  0.941015  2.85965  2.422897  2.638  1.011625  2.888113  2.356274  2.711  0.691394  0.883421  2.837476  2.481061  2.572
Co  Co1  1  0.62816441  0.38966632  0.20158471  1  0.977493  2.893031  2.015779  2.584  0.940874  2.8597  2.42313  2.638  1.011466  2.888151  2.3565  2.711  0.691282  0.883269  2.837485  2.48117  2.572
H  H2  1  0.13549511  0.64401008  0.42031662  1  0.088928  0.000149  0.967273  0.0  0.096148  8.1e-05  1.037265  0.0  0.09925  2.9e-05  1.034602  0.0  0.100181  0.094135  0.000153  1.038875  0.0
H  H3  1  0.63550689  0.42032982  0.64401212  1  0.088773  0.000149  0.967311  0.0  0.096006  8.1e-05  1.037311  0.0  0.099109  3.1e-05  1.034645  0.0  0.100119  0.094016  0.000153  1.038904  0.0
H  H4  1  0.38198753  0.81870237  0.59675084  1  0.109521  -2.6e-05  0.937115  0.0  0.120209  -4e-06  0.995386  0.0  0.12367  -7e-06  0.993598  0.0  0.107895  0.117999  -7e-06  0.996505  0.0
H  H5  1  0.88198868  0.59676048  0.81870989  1  0.109614  -2.4e-05  0.937004  0.0  0.120253  -4e-06  0.995335  0.0  0.123714  -7e-06  0.993547  0.0  0.107899  0.118044  -7e-06  0.996454  0.0
H  H6  1  0.10721380  0.43489577  0.62423673  1  0.102443  -0.000406  0.978664  0.0  0.109686  -0.000381  1.045478  0.0  0.111685  -0.000337  1.045268  0.0  0.108522  0.108494  -0.000419  1.045503  0.0
H  H7  1  0.60721910  0.62423911  0.43488758  1  0.102479  -0.000405  0.97851  0.0  0.109682  -0.000381  1.04537  0.0  0.111685  -0.000337  1.045158  0.0  0.108547  0.108485  -0.00042  1.045398  0.0
H  H8  1  0.61059677  0.96769141  0.78433827  1  0.111878  6e-06  0.945865  0.0  0.123474  1e-06  1.001255  0.0  0.12704  -0.0  0.999333  0.0  0.107057  0.121127  3e-06  1.002539  0.0
H  H9  1  0.11060987  0.78434512  0.96770429  1  0.111887  7e-06  0.945726  0.0  0.123451  1e-06  1.001151  0.0  0.127024  -0.0  0.999222  0.0  0.107056  0.121099  3e-06  1.002441  0.0
H  H10  1  0.83477525  0.09852545  0.99107928  1  0.094857  3.3e-05  0.975618  0.0  0.103198  4.4e-05  1.042135  0.0  0.105595  1.6e-05  1.041271  0.0  0.104571  0.10134  4.6e-05  1.04312  0.0
H  H11  1  0.33477363  0.99108419  0.09852539  1  0.094831  3.2e-05  0.975633  0.0  0.103142  4.4e-05  1.042197  0.0  0.105535  1.6e-05  1.041342  0.0  0.104527  0.101326  4.6e-05  1.043142  0.0
H  H12  1  0.67914142  0.81907581  0.10620093  1  0.103618  0.000134  0.963333  0.0  0.110645  8.8e-05  1.030987  0.0  0.113494  7e-05  1.029424  0.0  0.106073  0.108843  8e-05  1.031853  0.0
H  H13  1  0.17913611  0.10619731  0.81907352  1  0.103579  0.000135  0.963386  0.0  0.110608  8.8e-05  1.031023  0.0  0.113459  7e-05  1.029463  0.0  0.106057  0.108807  8e-05  1.031888  0.0
H  H14  1  0.46355750  0.14741036  0.31526456  1  0.105657  0.000622  0.920686  0.002  0.112761  0.000507  0.982062  0.001  0.117037  0.00034  0.97764  0.001  0.126583  0.108685  0.000666  0.986575  0.001
H  H15  1  0.96354288  0.31527031  0.14742658  1  0.105672  0.000623  0.920565  0.002  0.11279  0.000507  0.981967  0.001  0.117072  0.00034  0.97754  0.001  0.126578  0.10876  0.000667  0.986422  0.001
H  H16  1  0.58903741  0.97121837  0.26065023  1  0.121154  0.000434  0.99367  0.0  0.128152  0.000506  1.059102  0.0  0.132857  0.000318  1.057185  0.0  0.10804  0.12435  0.000709  1.060899  0.001
H  H17  1  0.08905482  0.26066311  0.97123499  1  0.121119  0.000435  0.99368  0.0  0.128137  0.000505  1.059117  0.0  0.132846  0.000318  1.057196  0.0  0.107975  0.124331  0.000708  1.060917  0.001
H  H18  1  0.17810935  0.80181105  0.38623581  1  0.107487  0.000293  0.970198  0.0  0.117847  0.000345  1.03356  0.0  0.121032  0.000235  1.03241  0.0  0.106295  0.115346  0.000462  1.034868  0.0
H  H19  1  0.67810953  0.38624077  0.80180661  1  0.107416  0.000293  0.970168  0.0  0.117807  0.000345  1.033523  0.0  0.121003  0.000235  1.032353  0.0  0.106279  0.115304  0.000463  1.034835  0.0
H  H20  1  0.07814834  0.98662580  0.44146159  1  0.08985  0.000441  0.953469  0.002  0.09361  0.000407  1.022968  0.001  0.096945  0.000287  1.019211  0.001  0.116528  0.091192  0.000555  1.025802  0.001
H  H21  1  0.57814270  0.44146228  0.98662715  1  0.089871  0.000442  0.953562  0.002  0.093597  0.000406  1.023074  0.001  0.096926  0.000287  1.01933  0.001  0.116533  0.091175  0.000555  1.025908  0.001
H  H22  1  0.74109857  0.84727957  0.32114102  1  0.126701  0.000281  0.943885  0.0  0.136137  0.000354  1.004103  0.0  0.140271  0.000218  1.001941  0.0  0.11415  0.13301  0.000516  1.005981  0.001
H  H23  1  0.24108806  0.32114816  0.84727476  1  0.126685  0.000284  0.943954  0.0  0.13614  0.000354  1.004139  0.0  0.140276  0.000218  1.001973  0.0  0.114176  0.133014  0.000516  1.006014  0.001
H  H24  1  0.82469070  0.65323488  0.26339652  1  0.082545  0.000602  0.927166  0.002  0.091356  0.000533  0.990702  0.001  0.094234  0.000375  0.987119  0.001  0.118641  0.089012  0.000726  0.993921  0.001
H  H25  1  0.32467223  0.26339738  0.65322913  1  0.082558  0.000602  0.927314  0.002  0.091335  0.000532  0.990874  0.001  0.094193  0.000375  0.987315  0.001  0.118643  0.088994  0.000725  0.994095  0.001
H  H26  1  0.27869813  0.44677343  0.16258902  1  0.093468  0.000352  0.958657  0.002  0.099126  0.000158  1.024889  0.001  0.101873  4e-05  1.022015  0.001  0.121592  0.096632  0.000257  1.027886  0.001
H  H27  1  0.77868511  0.16257675  0.44676826  1  0.093584  0.000352  0.958582  0.002  0.099126  0.000157  1.024932  0.001  0.101869  3.9e-05  1.022061  0.001  0.121608  0.096636  0.000256  1.027925  0.001
H  H28  1  0.16900862  0.63023126  0.21169957  1  0.106761  0.00015  0.940862  0.0  0.118946  0.000339  0.996604  0.0  0.122122  0.000218  0.995689  0.0  0.11009  0.116513  0.000485  0.997795  0.0
H  H29  1  0.66901824  0.21169710  0.63023738  1  0.106751  0.000151  0.940986  0.0  0.118939  0.000339  0.996721  0.0  0.122116  0.000218  0.995804  0.0  0.110089  0.116511  0.000485  0.997914  0.0
C  C30  1  0.95889001  0.42678992  0.40329051  1  0.660066  -0.007808  3.879549  -0.004  0.62054  0.001684  4.173536  0.004  0.659562  0.001938  4.164343  0.004  0.217605  0.592107  0.000703  4.1778  0.003
C  C31  1  0.45891674  0.40329234  0.42679179  1  0.660101  -0.007813  3.878834  -0.004  0.620553  0.001686  4.172793  0.004  0.659585  0.001938  4.163588  0.004  0.217629  0.592113  0.000705  4.177069  0.003
C  C32  1  0.10897364  0.52918090  0.51069888  1  -0.049342  0.004212  3.709316  0.007  -0.023793  0.001727  3.937025  0.003  -0.031992  0.001192  3.95715  0.002  -0.00779  -0.020166  0.002164  3.926354  0.004
C  C33  1  0.60899513  0.51070157  0.52917429  1  -0.049509  0.004215  3.709296  0.007  -0.023791  0.001725  3.936781  0.003  -0.032002  0.001192  3.9569  0.002  -0.007874  -0.020142  0.002164  3.926081  0.004
C  C34  1  0.18646461  0.63771462  0.50489324  1  -0.041743  -0.00379  3.704581  -0.003  -0.071424  -0.000722  3.961212  0.0  -0.068098  -0.000672  3.978417  0.0  -0.075323  -0.07356  -0.000985  3.950118  0.0
C  C35  1  0.68647384  0.50490487  0.63771854  1  -0.041506  -0.003801  3.70453  -0.003  -0.071241  -0.000721  3.961115  0.0  -0.067908  -0.000678  3.978317  0.0  -0.075251  -0.073405  -0.000984  3.950021  0.0
C  C36  1  0.32273945  0.73567856  0.60383551  1  -0.087583  0.000787  3.701258  0.001  -0.111039  7e-06  3.963127  0.0  -0.114758  0.000126  3.981803  0.0  -0.081544  -0.108345  -0.000163  3.950004  0.0
C  C37  1  0.82274161  0.60384157  0.73568529  1  -0.087693  0.000791  3.70141  0.001  -0.111133  7e-06  3.963316  0.0  -0.114854  0.000127  3.981989  0.0  -0.081552  -0.108438  -0.000162  3.950203  0.0
C  C38  1  0.38083862  0.72612994  0.71240947  1  0.046481  -0.003288  3.804797  -0.002  0.050134  -0.000695  4.043559  0.0  0.052383  -0.000585  4.067135  0.0  -0.002302  0.048557  -0.00131  4.027584  -0.001
C  C39  1  0.88083931  0.71240853  0.72613368  1  0.046568  -0.003297  3.804781  -0.002  0.050205  -0.000692  4.043534  0.0  0.052459  -0.000585  4.067102  0.0  -0.002266  0.048626  -0.00131  4.027558  -0.001
C  C40  1  0.30104778  0.61695885  0.71720752  1  -0.150531  0.001177  3.722567  0.002  -0.13022  0.000324  3.972584  0.0  -0.138489  0.000281  3.994144  0.0  -0.019358  -0.12471  0.000324  3.958298  0.001
C  C41  1  0.80104666  0.71721659  0.61696526  1  -0.150554  0.001181  3.722583  0.002  -0.130207  0.000323  3.972543  0.0  -0.138478  0.000277  3.994106  0.0  -0.019362  -0.124694  0.000324  3.958253  0.001
C  C42  1  0.16797480  0.51831504  0.61892849  1  -0.039346  -0.003083  3.710256  -0.002  -0.077145  -0.000576  3.963171  0.0  -0.072826  -0.000585  3.981091  0.0  -0.070532  -0.079899  -0.00064  3.95134  0.0
C  C43  1  0.66798879  0.61893776  0.51831862  1  -0.03926  -0.003095  3.709944  -0.002  -0.077051  -0.000574  3.962749  0.0  -0.072731  -0.000583  3.98067  0.0  -0.070445  -0.079812  -0.00064  3.950921  0.0
C  C44  1  0.51787088  0.81794311  0.82762624  1  0.051638  -0.001465  3.806441  -0.001  0.05523  -0.000236  4.045493  0.0  0.057179  3.6e-05  4.069496  0.0  -0.000178  0.054021  -0.00092  4.029185  0.0
C  C45  1  0.01786600  0.82762571  0.81794165  1  0.051435  -0.00145  3.806619  -0.001  0.055046  -0.000234  4.045653  0.0  0.056993  3.6e-05  4.069661  0.0  -0.000229  0.053843  -0.000917  4.029338  0.0
C  C46  1  0.62327748  0.93497757  0.85407383  1  -0.096821  2.8e-05  3.698079  0.0  -0.118305  -8.4e-05  3.955794  0.0  -0.122716  -0.000139  3.974934  0.0  -0.080906  -0.115408  -0.000298  3.942775  0.0
C  C47  1  0.12327964  0.85407436  0.93497849  1  -0.096757  2.1e-05  3.697978  0.0  -0.118206  -8.5e-05  3.955697  0.0  -0.122622  -0.000136  3.974836  0.0  -0.080885  -0.115308  -0.000299  3.942691  0.0
C  C48  1  0.74944889  0.00808360  0.96962125  1  -0.028652  -0.001375  3.686964  -0.001  -0.058434  1.6e-05  3.941426  0.0  -0.054762  0.000149  3.958688  0.0  -0.069365  -0.060968  -9.4e-05  3.930692  0.0
C  C49  1  0.24944361  0.96962060  0.00808406  1  -0.028707  -0.001363  3.68717  -0.001  -0.058518  1.7e-05  3.941651  0.0  -0.054842  0.000148  3.958914  0.0  -0.069401  -0.061084  -9.2e-05  3.930898  0.0
C  C50  1  0.76927267  0.96811404  0.06095689  1  -0.042172  0.001086  3.718149  0.001  -0.016364  0.00036  3.949073  0.0  -0.022424  -9.9e-05  3.966753  0.0  -0.007727  -0.013884  0.000537  3.938959  0.001
C  C51  1  0.26926491  0.06095379  0.96811705  1  -0.042116  0.00108  3.718133  0.001  -0.016211  0.000361  3.948919  0.0  -0.02228  -0.000102  3.966616  0.0  -0.007655  -0.013733  0.000539  3.938813  0.001
C  C52  1  0.66338292  0.85079062  0.03569282  1  -0.056196  -0.000848  3.707408  0.0  -0.090582  0.000229  3.954443  0.0  -0.087579  0.000312  3.972195  0.0  -0.072189  -0.091972  4.1e-05  3.942048  0.0
C  C53  1  0.16337584  0.03569354  0.85079282  1  -0.05617  -0.000839  3.707347  0.0  -0.09057  0.00023  3.954331  0.0  -0.087569  0.000314  3.972092  0.0  -0.072177  -0.091959  4.3e-05  3.941938  0.0
C  C54  1  0.54145495  0.77823289  0.91960427  1  -0.151523  0.000253  3.734657  0.001  -0.131716  0.00013  3.984386  0.0  -0.139909  2.6e-05  4.006796  0.0  -0.020759  -0.126112  0.00016  3.968942  0.0
C  C55  1  0.04144513  0.91960482  0.77823308  1  -0.151478  0.000245  3.734634  0.001  -0.131675  0.000129  3.984356  0.0  -0.139865  2.6e-05  4.006762  0.0  -0.020753  -0.126078  0.00016  3.968918  0.0
C  C56  1  0.89828774  0.05118553  0.18553594  1  0.619933  -0.012582  3.896613  -0.01  0.577052  -0.003859  4.190873  -0.003  0.613913  -0.002343  4.186969  -0.002  0.200784  0.550922  -0.004913  4.190473  -0.005
C  C57  1  0.39828759  0.18553287  0.05119080  1  0.619827  -0.012566  3.897115  -0.01  0.576936  -0.003852  4.191303  -0.003  0.613796  -0.002335  4.187395  -0.002  0.200632  0.550801  -0.004907  4.190906  -0.005
C  C58  1  0.40585596  0.06916253  0.33081010  1  0.130086  -0.021915  3.67003  -0.015  0.10524  -0.005248  3.926155  -0.003  0.115871  -0.002395  3.936898  -0.002  0.04945  0.096785  -0.008055  3.921534  -0.005
C  C59  1  0.90585269  0.33081574  0.06917332  1  0.130162  -0.021928  3.669792  -0.015  0.105267  -0.00525  3.925969  -0.003  0.115901  -0.002395  3.936726  -0.002  0.049453  0.096772  -0.00806  3.921336  -0.005
C  C60  1  0.47256281  0.96893543  0.29804515  1  -0.157598  0.00773  3.676215  0.011  -0.173839  0.00183  3.915938  0.003  -0.181623  0.001292  3.932514  0.002  -0.082701  -0.169544  0.001567  3.907386  0.004
C  C61  1  0.97256789  0.29805227  0.96894549  1  -0.157438  0.007735  3.675993  0.011  -0.173705  0.00183  3.915729  0.003  -0.181492  0.001289  3.932311  0.002  -0.082591  -0.169415  0.001566  3.907182  0.004
C  C62  1  0.38852355  0.86708631  0.31294415  1  0.095343  -0.021989  3.763149  -0.014  0.109793  -0.007285  3.987103  -0.004  0.115798  -0.002491  4.005904  -0.001  0.010303  0.104925  -0.013324  3.976086  -0.007
C  C63  1  0.88852247  0.31294815  0.86709237  1  0.095076  -0.022  3.763225  -0.014  0.10952  -0.007286  3.987195  -0.004  0.115524  -0.002485  4.006002  -0.001  0.010185  0.10466  -0.013329  3.976158  -0.007
C  C64  1  0.24458839  0.87459347  0.36651544  1  -0.158606  0.006795  3.702213  0.01  -0.17535  0.001134  3.940634  0.002  -0.182823  0.000925  3.959076  0.002  -0.084716  -0.171273  0.000255  3.930336  0.002
C  C65  1  0.74458589  0.36651746  0.87459655  1  -0.158454  0.006797  3.702063  0.01  -0.175246  0.001134  3.940505  0.002  -0.182719  0.000922  3.958926  0.002  -0.084664  -0.171173  0.000255  3.930205  0.002
C  C66  1  0.18826523  0.97858360  0.39888954  1  0.138318  -0.021967  3.707471  -0.014  0.109061  -0.005874  3.964962  -0.003  0.119023  -0.003075  3.978403  -0.002  0.043515  0.101526  -0.008308  3.957008  -0.004
C  C67  1  0.68825703  0.39888852  0.97858610  1  0.138288  -0.02198  3.707197  -0.014  0.10908  -0.005874  3.964642  -0.003  0.119056  -0.003072  3.978082  -0.002  0.043491  0.101539  -0.008311  3.956692  -0.004
C  C68  1  0.44688580  0.75605725  0.27433465  1  0.101032  -0.024673  3.75269  -0.016  0.111825  -0.011177  3.982752  -0.006  0.118402  -0.007091  4.000451  -0.004  0.013298  0.106049  -0.017483  3.972933  -0.01
C  C69  1  0.94688135  0.27433480  0.75606156  1  0.101157  -0.024672  3.752663  -0.016  0.112005  -0.011182  3.982651  -0.006  0.118582  -0.007092  4.00035  -0.004  0.013351  0.106226  -0.017489  3.972837  -0.01
C  C70  1  0.63315042  0.76043216  0.28457695  1  -0.157056  0.007452  3.689063  0.011  -0.17646  0.001924  3.938321  0.004  -0.18273  0.002089  3.953865  0.003  -0.08005  -0.173375  0.001178  3.930558  0.004
C  C71  1  0.13314249  0.28457600  0.76042609  1  -0.157186  0.007443  3.689282  0.011  -0.176595  0.001924  3.938527  0.004  -0.182866  0.00209  3.954059  0.003  -0.08007  -0.173507  0.001177  3.930764  0.004
C  C72  1  0.68072302  0.65277204  0.25259688  1  0.12508  -0.021186  3.695684  -0.013  0.094943  -0.006513  3.958341  -0.003  0.105194  -0.004799  3.971994  -0.002  0.046816  0.086866  -0.008714  3.951099  -0.004
C  C73  1  0.18071209  0.25260024  0.65276504  1  0.125273  -0.02118  3.695746  -0.013  0.095158  -0.006515  3.958445  -0.003  0.105425  -0.004808  3.972096  -0.002  0.046858  0.087083  -0.008716  3.951205  -0.004
C  C74  1  0.37499490  0.53739523  0.19734032  1  0.144547  -0.023176  3.681834  -0.015  0.114549  -0.008289  3.937663  -0.004  0.125887  -0.006479  3.950936  -0.003  0.051278  0.105649  -0.01052  3.93091  -0.005
C  C75  1  0.87498428  0.19733777  0.53739203  1  0.144444  -0.02317  3.681825  -0.015  0.114594  -0.008292  3.93764  -0.004  0.125935  -0.006482  3.95091  -0.003  0.051261  0.105697  -0.010524  3.930893  -0.005
C  C76  1  0.31658139  0.64050332  0.22687705  1  -0.149308  0.007554  3.703186  0.011  -0.166132  0.002115  3.947894  0.004  -0.173501  0.002079  3.965166  0.003  -0.07761  -0.162144  0.001534  3.938719  0.004
C  C77  1  0.81658290  0.22687488  0.64050449  1  -0.149342  0.007548  3.703452  0.011  -0.166208  0.002115  3.948104  0.004  -0.17358  0.002078  3.965377  0.003  -0.077658  -0.162222  0.001533  3.938934  0.004
S  S78  1  0.39454463  0.62633549  0.86433263  1  1.080198  0.000185  5.210054  0.0  1.015789  0.000139  5.693202  0.0  1.057367  9.5e-05  5.680062  0.0  0.478392  0.986307  0.000185  5.702367  0.0
S  S79  1  0.89454748  0.86433072  0.62633154  1  1.080214  0.000184  5.210048  0.0  1.015772  0.000141  5.693204  0.0  1.057353  0.000101  5.680063  0.0  0.478407  0.986292  0.000185  5.702369  0.0
N  N80  1  0.26406766  0.07385155  0.37912588  1  -0.331097  0.042624  3.353871  0.079  -0.286198  0.02927  3.640066  0.049  -0.30744  0.024026  3.648736  0.039  -0.338208  -0.271596  0.033364  3.635405  0.055
N  N81  1  0.76406733  0.37913049  0.07386065  1  -0.331225  0.042621  3.353779  0.079  -0.286257  0.029266  3.639943  0.049  -0.307527  0.024025  3.648628  0.039  -0.338204  -0.271654  0.033362  3.635292  0.055
N  N82  1  0.55498330  0.54275064  0.21193059  1  -0.325154  0.041182  3.326523  0.065  -0.274895  0.030379  3.613957  0.042  -0.297756  0.024303  3.627755  0.034  -0.335261  -0.258438  0.035792  3.605768  0.05
N  N83  1  0.05497442  0.21193031  0.54274025  1  -0.325206  0.041175  3.326217  0.065  -0.275031  0.030375  3.613653  0.042  -0.297896  0.024305  3.627446  0.034  -0.335299  -0.258585  0.035782  3.605486  0.05
O  O84  1  0.93733386  0.31772797  0.38478188  1  -0.607643  0.013467  2.037589  0.028  -0.576157  0.011529  2.294214  0.022  -0.604649  0.008518  2.281644  0.017  -0.30221  -0.552704  0.01572  2.300998  0.028
O  O85  1  0.43734536  0.38478701  0.31771782  1  -0.607728  0.01348  2.037132  0.028  -0.576228  0.011534  2.293789  0.022  -0.604728  0.008522  2.281213  0.017  -0.302233  -0.552769  0.015728  2.300564  0.028
O  O86  1  0.85750254  0.46181017  0.33613021  1  -0.636336  0.055942  2.139445  0.094  -0.60845  0.043054  2.435827  0.067  -0.651918  0.030812  2.426536  0.047  -0.322117  -0.569931  0.057194  2.437815  0.089
O  O87  1  0.35750491  0.33611959  0.46180097  1  -0.636322  0.055934  2.138877  0.094  -0.608503  0.043049  2.435247  0.067  -0.651965  0.030809  2.425937  0.047  -0.32215  -0.57  0.057182  2.437273  0.089
O  O88  1  0.03143245  0.14079383  0.20142123  1  -0.570135  0.051501  1.963158  0.087  -0.544022  0.036476  2.219706  0.059  -0.584177  0.024663  2.214356  0.039  -0.30165  -0.509684  0.049275  2.219562  0.078
O  O89  1  0.53142416  0.20140352  0.14078581  1  -0.570002  0.051474  1.963214  0.087  -0.543935  0.036454  2.219795  0.059  -0.584078  0.024643  2.214434  0.039  -0.301513  -0.509598  0.049258  2.219644  0.078
O  O90  1  0.87465325  0.03270156  0.27621444  1  -0.621475  0.031014  1.991107  0.056  -0.584446  0.025614  2.236801  0.045  -0.621761  0.01795  2.233043  0.033  -0.305438  -0.552507  0.034171  2.23576  0.058
O  O91  1  0.37464274  0.27620083  0.03270728  1  -0.621406  0.030996  1.991233  0.056  -0.584388  0.0256  2.236995  0.045  -0.621698  0.017937  2.233229  0.033  -0.305393  -0.552449  0.034159  2.235945  0.058
O  O92  1  0.25384333  0.62165292  0.92626786  1  -0.576378  6.9e-05  1.894407  0.0  -0.535876  1.1e-05  2.122304  0.0  -0.55819  1.6e-05  2.114174  0.0  -0.315395  -0.519228  -7e-06  2.127111  0.0
O  O93  1  0.75383248  0.92626756  0.62164747  1  -0.576447  7e-05  1.894092  0.0  -0.535949  1e-05  2.121987  0.0  -0.558264  1.3e-05  2.113861  0.0  -0.315447  -0.5193  -7e-06  2.126794  0.0
O  O94  1  0.50370711  0.54266725  0.85924791  1  -0.580393  2.2e-05  1.944419  0.0  -0.535533  -2.1e-05  2.187241  0.0  -0.5591  1.2e-05  2.179121  0.0  -0.305642  -0.518262  -0.000111  2.192295  0.0
O  O95  1  0.00369498  0.85924472  0.54266883  1  -0.580347  2.3e-05  1.944745  0.0  -0.53546  -2.2e-05  2.187551  0.0  -0.559025  8e-06  2.179429  0.0  -0.305645  -0.518196  -0.000111  2.192605  0.0
