# generated using pymatgen
data_Zn2H17C41Br6(NO4)2
_symmetry_space_group_name_H-M   'P 1'
_cell_length_a   16.52664751
_cell_length_b   17.92379653
_cell_length_c   29.11515636
_cell_angle_alpha   90.24153936
_cell_angle_beta   89.64847658
_cell_angle_gamma   89.91342432
_symmetry_Int_Tables_number   1
_chemical_formula_structural   Zn2H17C41Br6(NO4)2
_chemical_formula_sum   'Zn4 H34 C82 Br12 N4 O16'
_cell_volume   8624.25026086
_cell_formula_units_Z   2
loop_
 _symmetry_equiv_pos_site_id
 _symmetry_equiv_pos_as_xyz
  1  'x, y, z'
loop_
 _atom_site_type_symbol
 _atom_site_label
 _atom_site_symmetry_multiplicity
 _atom_site_fract_x
 _atom_site_fract_y
 _atom_site_fract_z
 _atom_site_occupancy
 _atom_site_pbe_bader_charge
 _atom_site_pbe_bader_spin_density
 _atom_site_pbe_cm5_charge
 _atom_site_pbe_ddec_charge
 _atom_site_pbe_ddec_spin_density
 _atom_site_pbe_ddec_sum_bond_order
 _atom_site_pbe_magmom
Zn  Zn0  1  0.58291128  0.50043064  0.50239343  1  1.298471  0  0.664036  0.810716  0  2.415452  0
Zn  Zn1  1  0.41470045  0.49976790  0.49858104  1  1.291014  0  0.671196  0.82398  0  2.454576  0
Zn  Zn2  1  0.41495603  0.50293408  0.88742169  1  1.286631  0  0.670692  0.825002  0  2.448846  0
Zn  Zn3  1  0.58330337  0.50128869  0.88165014  1  1.275072  0  0.664577  0.811533  0  2.419006  0
H  H4  1  0.28461518  0.58431889  0.54766725  1  0.164447  0  0.128906  0.108645  0  0.977183  0
H  H5  1  0.13206568  0.58671122  0.54968101  1  0.115462  0  0.122743  0.135047  0  0.968478  0
H  H6  1  0.28769799  0.41567394  0.44986744  1  0.154587  0  0.13313  0.12184  0  0.967274  0
H  H7  1  0.71083847  0.58171101  0.55261033  1  0.142575  0  0.132535  0.119607  0  0.974364  0
H  H8  1  0.71267662  0.42019176  0.45044596  1  0.149335  0  0.135101  0.113579  0  0.962072  0
H  H9  1  0.86532600  0.41684255  0.44839955  1  0.113273  0  0.12344  0.13487  0  0.968897  0
H  H10  1  0.62629454  0.73722156  0.50107050  1  0.097247  0  0.105773  0.111977  0  0.998944  0
H  H11  1  0.62723339  0.87713221  0.50011668  1  0.08229  0  0.109094  0.114135  0  0.984102  0
H  H12  1  0.36664978  0.73874145  0.50031829  1  0.151601  0  0.107184  0.126312  0  0.999406  0
H  H13  1  0.62896082  0.26605179  0.50084074  1  0.119961  0  0.106258  0.124832  0  1.000934  0
H  H14  1  0.36942838  0.25821697  0.49989868  1  0.115456  0  0.1072  0.113704  0  0.997551  0
H  H15  1  0.37450590  0.11833034  0.49958583  1  0.083165  0  0.108923  0.114115  0  0.985412  0
H  H16  1  0.68210326  0.55227450  0.73546066  1  0.030683  0  0.092719  0.099742  0  0.990627  0
H  H17  1  0.68340588  0.45279410  0.73540311  1  0.037775  0  0.096867  0.108422  0  0.980982  0
H  H18  1  0.68368500  0.45269244  0.64844765  1  0.033614  0  0.096947  0.109378  0  0.979498  0
H  H19  1  0.68253323  0.55215879  0.64882181  1  0.049476  0  0.091226  0.098857  0  0.996504  0
H  H20  1  0.37508007  0.50321546  0.03294053  1  0.104234  0  0.106191  0.112391  0  1.00026  0
H  H21  1  0.37758193  0.50211716  0.11906079  1  0.102075  0  0.108829  0.113978  0  0.984351  0
H  H22  1  0.63471192  0.50151924  0.02929665  1  0.092489  0  0.106651  0.125449  0  0.998804  0
H  H23  1  0.37283760  0.49950766  0.35491505  1  0.083033  0  0.10727  0.126914  0  0.998801  0
H  H24  1  0.63249234  0.50078386  0.35276652  1  0.096699  0  0.105708  0.111335  0  0.999753  0
H  H25  1  0.63123998  0.50112514  0.26655710  1  0.089884  0  0.108292  0.113175  0  0.985234  0
H  H26  1  0.71477995  0.58187342  0.83272703  1  0.117024  0  0.134018  0.110757  0  0.968343  0
H  H27  1  0.86752057  0.58527312  0.83281500  1  0.113047  0  0.122637  0.134002  0  0.971802  0
H  H28  1  0.70919111  0.42158193  0.93476197  1  0.153669  0  0.132891  0.121439  0  0.96745  0
H  H29  1  0.28814295  0.58786963  0.83772242  1  0.159046  0  0.127157  0.117207  0  0.982326  0
H  H30  1  0.28450342  0.41912716  0.93456189  1  0.142211  0  0.13488  0.113083  0  0.961726  0
H  H31  1  0.13185073  0.41622663  0.93568161  1  0.105918  0  0.123367  0.135144  0  0.969022  0
H  H32  1  0.36987738  0.74372762  0.88386244  1  0.088652  0  0.106956  0.114089  0  0.99836  0
H  H33  1  0.37432653  0.88361224  0.88394939  1  0.111927  0  0.108448  0.112955  0  0.985405  0
H  H34  1  0.62945523  0.73612434  0.88310535  1  0.112062  0  0.106438  0.124653  0  1.000504  0
H  H35  1  0.36648377  0.26391053  0.88526444  1  0.104583  0  0.106923  0.125215  0  0.999759  0
H  H36  1  0.62615305  0.26439438  0.88393878  1  0.079375  0  0.106134  0.112925  0  0.999463  0
H  H37  1  0.62689729  0.12448651  0.88406803  1  0.108975  0  0.108848  0.114009  0  0.983765  0
C  C38  1  0.49515143  0.64636734  0.50142489  1  1.593926  0  0.215101  0.591519  0  4.170027  0
C  C39  1  0.50252529  0.50031392  0.59061730  1  1.584125  0  0.215124  0.607868  0  4.161138  0
C  C40  1  0.49628435  0.35379058  0.50004688  1  1.602601  0  0.213957  0.592429  0  4.166816  0
C  C41  1  0.50235455  0.49936517  0.41024456  1  1.602228  0  0.214598  0.590916  0  4.172109  0
C  C42  1  0.49697231  0.64834539  0.88330314  1  1.553166  0  0.214989  0.59228  0  4.169584  0
C  C43  1  0.50240209  0.50089840  0.79439653  1  1.612492  0  0.214395  0.606819  0  4.161557  0
C  C44  1  0.49532869  0.35584185  0.88508706  1  1.529299  0  0.21601  0.594429  0  4.167284  0
C  C45  1  0.50306812  0.50221241  0.97472096  1  1.528267  0  0.214845  0.592547  0  4.168507  0
C  C46  1  0.24856164  0.54726991  0.52623208  1  0.377183  0  0.058536  0.096415  0  3.922693  0
C  C47  1  0.16473981  0.54835633  0.52712921  1  0.051099  0  -0.063496  -0.146023  0  3.887496  0
C  C48  1  0.12114427  0.49916015  0.49853567  1  0.137911  0  0.016896  0.126298  0  4.08435  0
C  C49  1  0.16654329  0.45059774  0.46992598  1  -0.107744  0  -0.001297  0.025113  0  3.913398  0
C  C50  1  0.25070865  0.45260015  0.47121890  1  0.61799  0  0.059523  0.053431  0  3.898092  0
C  C51  1  0.03586406  0.49933609  0.49907533  1  -0.20739  0  -0.026259  -0.069879  0  4.086759  0
C  C52  1  0.96217768  0.50101866  0.50063972  1  -0.15831  0  -0.028253  -0.075202  0  4.090378  0
C  C53  1  0.87690156  0.50144230  0.50131020  1  0.200627  0  0.017055  0.125842  0  4.089327  0
C  C54  1  0.83175189  0.54845624  0.53100466  1  -0.080817  0  -0.001789  0.024639  0  3.914866  0
C  C55  1  0.74758045  0.54650122  0.53006325  1  0.576479  0  0.059017  0.051351  0  3.905204  0
C  C56  1  0.74906684  0.45556896  0.47276685  1  0.454638  0  0.062032  0.094056  0  3.923743  0
C  C57  1  0.83288650  0.45409648  0.47174986  1  0.019891  0  -0.062054  -0.145932  0  3.894588  0
C  C58  1  0.49645177  0.73000289  0.50106199  1  -0.071262  0  -0.012885  -0.010449  0  3.955609  0
C  C59  1  0.57001522  0.76888440  0.50092161  1  0.051088  0  -0.085367  -0.09843  0  3.999391  0
C  C60  1  0.57049730  0.84622022  0.50034310  1  -0.108103  0  -0.078049  -0.109173  0  3.943772  0
C  C61  1  0.49747330  0.88752158  0.50000269  1  0.183701  0  -0.002438  0.094302  0  4.100276  0
C  C62  1  0.42399183  0.84704383  0.50008816  1  -0.161483  0  -0.009173  0.075998  0  3.91273  0
C  C63  1  0.42331065  0.76959707  0.50053393  1  0.06623  0  -0.089097  -0.148175  0  3.972274  0
C  C64  1  0.49979621  0.96610473  0.49965592  1  -0.07927  0  -0.044413  -0.090288  0  4.129902  0
C  C65  1  0.50491069  0.03403269  0.49956272  1  -0.31726  0  -0.044561  -0.090522  0  4.129422  0
C  C66  1  0.50459496  0.11267316  0.49969161  1  0.098716  0  -0.002398  0.095039  0  4.097118  0
C  C67  1  0.57625182  0.15576320  0.50001242  1  -0.134582  0  -0.009933  0.074759  0  3.914794  0
C  C68  1  0.57364176  0.23321114  0.50033671  1  0.082536  0  -0.089872  -0.147868  0  3.971962  0
C  C69  1  0.49888181  0.27015746  0.50010023  1  -0.069141  0  -0.012417  -0.010786  0  3.954328  0
C  C70  1  0.42701293  0.22862744  0.49983180  1  0.012466  0  -0.084092  -0.097225  0  3.995618  0
C  C71  1  0.42984245  0.15132948  0.49968873  1  -0.006416  0  -0.0773  -0.107733  0  3.939087  0
C  C72  1  0.49470260  0.49972711  0.74286345  1  -0.051586  0  -0.013632  -0.102991  0  3.92045  0
C  C73  1  0.49483953  0.49954348  0.64220044  1  0.033576  0  -0.013257  -0.102348  0  3.918626  0
C  C74  1  0.56506766  0.50105148  0.71621601  1  0.080251  0  -0.005769  0.067197  0  3.903048  0
C  C75  1  0.42188020  0.49720643  0.66838433  1  -0.05485  0  -0.015283  0.044145  0  3.87398  0
C  C76  1  0.56517209  0.50102546  0.66840408  1  -0.087173  0  -0.006281  0.066857  0  3.900703  0
C  C77  1  0.42179784  0.49734837  0.71715581  1  -0.009875  0  -0.015474  0.043084  0  3.874242  0
C  C78  1  0.65659042  0.50217766  0.71923510  1  0.09953  0  -0.153058  -0.194925  0  3.889121  0
C  C79  1  0.65675897  0.50213902  0.66492635  1  -0.027926  0  -0.153595  -0.196881  0  3.887323  0
C  C80  1  0.50468023  0.50202714  0.02619619  1  0.059927  0  -0.013033  -0.009866  0  3.954413  0
C  C81  1  0.43210255  0.50240156  0.05145210  1  0.005421  0  -0.084689  -0.097842  0  3.996191  0
C  C82  1  0.43354186  0.50190367  0.09904565  1  -0.070604  0  -0.07794  -0.10892  0  3.941008  0
C  C83  1  0.50763449  0.50114773  0.12314572  1  0.128849  0  -0.002946  0.094362  0  4.098313  0
C  C84  1  0.58005107  0.50103404  0.09693228  1  -0.066693  0  -0.009351  0.07517  0  3.913103  0
C  C85  1  0.57880401  0.50143311  0.04924390  1  -0.062933  0  -0.088735  -0.147493  0  3.971943  0
C  C86  1  0.50705006  0.50071581  0.17153221  1  0.027238  0  -0.044415  -0.088945  0  4.13099  0
C  C87  1  0.50250825  0.50044635  0.21338599  1  -0.376394  0  -0.04479  -0.091507  0  4.131431  0
C  C88  1  0.50134988  0.50023615  0.26178784  1  0.21515  0  -0.002236  0.09368  0  4.100526  0
C  C89  1  0.42850084  0.49985462  0.28758165  1  -0.169237  0  -0.009488  0.075385  0  3.915429  0
C  C90  1  0.42904830  0.49959809  0.33525388  1  0.110343  0  -0.088689  -0.145835  0  3.968376  0
C  C91  1  0.50280738  0.49965637  0.35874313  1  -0.005448  0  -0.013159  -0.010676  0  3.954328  0
C  C92  1  0.57576842  0.50025978  0.33393676  1  0.013965  0  -0.085089  -0.099443  0  4.001624  0
C  C93  1  0.57502350  0.50054204  0.28631488  1  -0.134508  0  -0.07795  -0.107988  0  3.941623  0
C  C94  1  0.75038085  0.54675508  0.85547798  1  0.547775  0  0.061905  0.094176  0  3.924677  0
C  C95  1  0.83417717  0.54828129  0.85565804  1  -0.010349  0  -0.063138  -0.149008  0  3.898652  0
C  C96  1  0.87704963  0.50117281  0.88572507  1  0.0349  0  0.017042  0.128134  0  4.086076  0
C  C97  1  0.83087993  0.45452199  0.91481176  1  -0.050137  0  -0.001495  0.023771  0  3.914296  0
C  C98  1  0.74675367  0.45649655  0.91270186  1  0.534524  0  0.059015  0.05369  0  3.898324  0
C  C99  1  0.96232182  0.50140852  0.88598885  1  -0.017389  0  -0.027883  -0.07443  0  4.088692  0
C  C100  1  0.03602353  0.50321625  0.88491827  1  -0.210323  0  -0.027147  -0.071783  0  4.087397  0
C  C101  1  0.12130292  0.50371310  0.88492616  1  0.1368  0  0.017348  0.126731  0  4.085307  0
C  C102  1  0.16695298  0.55240376  0.85687513  1  -0.139402  0  -0.002327  0.025926  0  3.90453  0
C  C103  1  0.25112611  0.55089174  0.85873679  1  0.599534  0  0.054627  0.053298  0  3.910113  0
C  C104  1  0.24851659  0.45622388  0.91323354  1  0.414155  0  0.062054  0.097088  0  3.921044  0
C  C105  1  0.16470749  0.45475786  0.91359463  1  0.095699  0  -0.063889  -0.149037  0  3.896309  0
C  C106  1  0.49938033  0.73194643  0.88320298  1  0.001377  0  -0.012391  -0.009868  0  3.955367  0
C  C107  1  0.42732197  0.77338514  0.88356196  1  -0.061118  0  -0.085212  -0.099687  0  3.998039  0
C  C108  1  0.42981301  0.85067490  0.88370321  1  -0.019624  0  -0.076568  -0.105232  0  3.938667  0
C  C109  1  0.50438377  0.88940257  0.88366648  1  0.135896  0  -0.002497  0.093661  0  4.098699  0
C  C110  1  0.57624951  0.84638780  0.88338863  1  -0.123218  0  -0.00939  0.075687  0  3.914204  0
C  C111  1  0.57398964  0.76893728  0.88311726  1  0.051037  0  -0.090055  -0.147894  0  3.971979  0
C  C112  1  0.50441941  0.96803730  0.88403322  1  0.091214  0  -0.045131  -0.091083  0  4.130411  0
C  C113  1  0.49926286  0.03596808  0.88437653  1  -0.35438  0  -0.044523  -0.089762  0  4.128999  0
C  C114  1  0.49710375  0.11458527  0.88459429  1  0.056689  0  -0.002667  0.09366  0  4.098402  0
C  C115  1  0.42369921  0.15540074  0.88495486  1  -0.195817  0  -0.008978  0.075475  0  3.912136  0
C  C116  1  0.42313304  0.23287022  0.88512179  1  0.137048  0  -0.08896  -0.146793  0  3.97066  0
C  C117  1  0.49632735  0.27217480  0.88483677  1  0.008849  0  -0.01285  -0.010795  0  3.95509  0
C  C118  1  0.56983024  0.23296668  0.88434798  1  0.007071  0  -0.085176  -0.098969  0  3.998929  0
C  C119  1  0.57019608  0.15561163  0.88433432  1  -0.007647  0  -0.077461  -0.10837  0  3.94145  0
Br  Br120  1  0.11540948  0.38279136  0.42977574  1  -0.008341  0  0.049104  -0.035417  0  1.332547  0
Br  Br121  1  0.88348963  0.61413768  0.57226478  1  -0.018441  0  0.047531  -0.038529  0  1.337258  0
Br  Br122  1  0.32364493  0.89919685  0.49950413  1  -0.074344  0  -0.001501  -0.092385  0  1.320662  0
Br  Br123  1  0.67868095  0.10712492  0.50002233  1  -0.077436  0  -0.004536  -0.09524  0  1.31906  0
Br  Br124  1  0.68159471  0.50038995  0.12733552  1  -0.073992  0  -0.002293  -0.093181  0  1.322478  0
Br  Br125  1  0.32736373  0.49981292  0.25673083  1  -0.075775  0  -0.001371  -0.092092  0  1.321757  0
Br  Br126  1  0.88101636  0.38926503  0.95666461  1  -0.010588  0  0.050522  -0.033571  0  1.333132  0
Br  Br127  1  0.11608153  0.61994159  0.81668729  1  -0.010811  0  0.047635  -0.03478  0  1.342669  0
Br  Br128  1  0.67846835  0.89508314  0.88364323  1  -0.081057  0  -0.004247  -0.094967  0  1.318849  0
Br  Br129  1  0.32328934  0.10361040  0.88516172  1  -0.077831  0  -0.002032  -0.092768  0  1.321731  0
Br  Br130  1  0.31961413  0.49233511  0.63850028  1  -0.035866  0  0.007052  -0.07004  0  1.606283  0
Br  Br131  1  0.31941157  0.49281622  0.74763611  1  -0.034465  0  0.00855  -0.067946  0  1.622297  0
N  N132  1  0.29026934  0.49999759  0.49886806  1  -1.215156  0  -0.309785  -0.168235  0  3.506183  0
N  N133  1  0.70763359  0.50096862  0.50142356  1  -1.234706  0  -0.308796  -0.167203  0  3.510669  0
N  N134  1  0.70791435  0.50156861  0.88348218  1  -1.208529  0  -0.309267  -0.168175  0  3.509973  0
N  N135  1  0.29047381  0.50358797  0.88637524  1  -1.222888  0  -0.309598  -0.171988  0  3.510374  0
O  O136  1  0.56351209  0.61327861  0.50295054  1  -1.164927  0  -0.318832  -0.549958  0  2.330927  0
O  O137  1  0.42626525  0.61489231  0.50001633  1  -1.157212  0  -0.317268  -0.542837  0  2.314641  0
O  O138  1  0.43843378  0.49982622  0.56690274  1  -1.180323  0  -0.318182  -0.550701  0  2.460008  0
O  O139  1  0.57435122  0.50151929  0.57444170  1  -1.158017  0  -0.312442  -0.536329  0  2.279303  0
O  O140  1  0.42695097  0.38445002  0.49786697  1  -1.169215  0  -0.3165  -0.54553  0  2.312889  0
O  O141  1  0.56403801  0.38769628  0.50214774  1  -1.169155  0  -0.319  -0.549885  0  2.331845  0
O  O142  1  0.57024092  0.49918731  0.43065956  1  -1.165247  0  -0.318103  -0.553022  0  2.302731  0
O  O143  1  0.43291260  0.49941493  0.42960647  1  -1.156986  0  -0.319206  -0.544586  0  2.341007  0
O  O144  1  0.42756281  0.61790116  0.88547436  1  -1.163798  0  -0.317074  -0.543806  0  2.313187  0
O  O145  1  0.56475159  0.61425750  0.88135787  1  -1.175253  0  -0.319214  -0.550087  0  2.332769  0
O  O146  1  0.57436090  0.50094662  0.80997530  1  -1.158061  0  -0.31286  -0.537014  0  2.27947  0
O  O147  1  0.43843313  0.50200717  0.81863215  1  -1.175466  0  -0.316651  -0.549304  0  2.454671  0
O  O148  1  0.56370899  0.38845354  0.88211964  1  -1.166975  0  -0.31882  -0.550038  0  2.329884  0
O  O149  1  0.42667792  0.38778583  0.88820924  1  -1.172003  0  -0.318041  -0.547503  0  2.316577  0
O  O150  1  0.43320324  0.50413653  0.95635070  1  -1.156434  0  -0.31938  -0.548305  0  2.334113  0
O  O151  1  0.57044408  0.50040791  0.95334359  1  -1.162811  0  -0.317912  -0.55076  0  2.307869  0
