# generated using pymatgen
data_CaH11C17N2O5
_symmetry_space_group_name_H-M   'P 1'
_cell_length_a   10.01904825
_cell_length_b   11.91954000
_cell_length_c   14.71220000
_cell_angle_alpha   108.43417103
_cell_angle_beta   90.00000000
_cell_angle_gamma   114.85178334
_symmetry_Int_Tables_number   1
_chemical_formula_structural   CaH11C17N2O5
_chemical_formula_sum   'Ca4 H44 C68 N8 O20'
_cell_volume   1494.33036235
_cell_formula_units_Z   4
loop_
 _symmetry_equiv_pos_site_id
 _symmetry_equiv_pos_as_xyz
  1  'x, y, z'
loop_
 _atom_site_type_symbol
 _atom_site_label
 _atom_site_symmetry_multiplicity
 _atom_site_fract_x
 _atom_site_fract_y
 _atom_site_fract_z
 _atom_site_occupancy
 _atom_site_hle17_bader_spin_density
 _atom_site_hle17_ddec_charge
 _atom_site_hle17_ddec_spin_density
 _atom_site_hle17_ddec_sum_bond_order
 _atom_site_hle17_magmom
 _atom_site_hse06_10hf_bader_spin_density
 _atom_site_hse06_10hf_ddec_charge
 _atom_site_hse06_10hf_ddec_spin_density
 _atom_site_hse06_10hf_ddec_sum_bond_order
 _atom_site_hse06_10hf_magmom
 _atom_site_hse06_bader_spin_density
 _atom_site_hse06_ddec_charge
 _atom_site_hse06_ddec_spin_density
 _atom_site_hse06_ddec_sum_bond_order
 _atom_site_hse06_magmom
 _atom_site_pbe_bader_charge
 _atom_site_pbe_bader_spin_density
 _atom_site_pbe_cm5_charge
 _atom_site_pbe_ddec_charge
 _atom_site_pbe_ddec_spin_density
 _atom_site_pbe_ddec_sum_bond_order
 _atom_site_pbe_magmom
Ca  Ca0  1  0.60170230  0.91557787  0.90932678  1  0  1.448242  0  1.176171  0  0  1.294683  0  1.530889  0  0  1.341777  0  1.488378  0  1.619306  0  0.875106  1.259203  0  1.561957  0
Ca  Ca1  1  0.68592132  0.08431635  0.59061934  1  0  1.448314  0  1.175393  0  0  1.294328  0  1.530996  0  0  1.341435  0  1.48848  0  1.619093  0  0.87491  1.258942  0  1.562007  0
Ca  Ca2  1  0.39829707  0.08442190  0.09067289  1  0  1.448223  0  1.176149  0  0  1.294677  0  1.53088  0  0  1.341765  0  1.488372  0  1.619337  0  0.8751  1.259192  0  1.56195  0
Ca  Ca3  1  0.31407854  0.91568441  0.40938059  1  0  1.448319  0  1.175398  0  0  1.294333  0  1.530992  0  0  1.341434  0  1.488479  0  1.619093  0  0.874908  1.258941  0  1.562006  0
H  H4  1  0.21898296  0.75057910  0.88404146  1  0  0.073805  0  0.94893  0  0  0.083675  0  1.011776  0  0  0.085525  0  1.010133  0  0.08331  0  0.122583  0.082303  0  1.01312  0
H  H5  1  0.46776936  0.24937727  0.61595389  1  0  0.073395  0  0.949336  0  0  0.08315  0  1.012484  0  0  0.084923  0  1.010928  0  0.108925  0  0.122423  0.081853  0  1.013748  0
H  H6  1  0.78101542  0.24942067  0.11595957  1  0  0.073839  0  0.94891  0  0  0.083711  0  1.011751  0  0  0.085566  0  1.010103  0  0.083277  0  0.122584  0.082338  0  1.013098  0
H  H7  1  0.53223151  0.75062349  0.38404671  1  0  0.073402  0  0.949332  0  0  0.083156  0  1.01248  0  0  0.084929  0  1.010924  0  0.108924  0  0.12243  0.08186  0  1.013742  0
H  H8  1  0.00659312  0.52551979  0.82652938  1  0  0.098311  0  0.961389  0  0  0.107959  0  1.022989  0  0  0.110341  0  1.023925  0  0.075155  0  0.104684  0.106991  0  1.021165  0
H  H9  1  0.48047760  0.47442869  0.67353124  1  0  0.098198  0  0.961714  0  0  0.107842  0  1.023223  0  0  0.110303  0  1.024066  0  0.086341  0  0.104602  0.106813  0  1.021433  0
H  H10  1  0.99340776  0.47447899  0.17347072  1  0  0.098317  0  0.961383  0  0  0.107931  0  1.023016  0  0  0.110312  0  1.023954  0  0.075125  0  0.104678  0.106962  0  1.021191  0
H  H11  1  0.51952177  0.52557109  0.32646911  1  0  0.098189  0  0.961738  0  0  0.107856  0  1.02322  0  0  0.110315  0  1.024068  0  0.086351  0  0.104602  0.106826  0  1.021432  0
H  H12  1  0.05753408  0.32958621  0.80391004  1  0  0.115856  0  0.953756  0  0  0.125919  0  1.012794  0  0  0.129612  0  1.009842  0  0.146267  0  0.109608  0.1231  0  1.015112  0
H  H13  1  0.72742500  0.67039778  0.69618347  1  0  0.116182  0  0.953398  0  0  0.12677  0  1.011627  0  0  0.130439  0  1.008719  0  0.131634  0  0.110054  0.123949  0  1.013986  0
H  H14  1  0.94246779  0.67041454  0.19608920  1  0  0.115903  0  0.9538  0  0  0.125965  0  1.012824  0  0  0.129658  0  1.009872  0  0.146255  0  0.109636  0.123146  0  1.015142  0
H  H15  1  0.27257586  0.32960298  0.30381782  1  0  0.116159  0  0.953435  0  0  0.126761  0  1.011656  0  0  0.130431  0  1.008747  0  0.131636  0  0.110034  0.12394  0  1.014016  0
H  H16  1  0.50281362  0.28756909  0.85990246  1  0  0.111626  0  0.947109  0  0  0.122238  0  1.006742  0  0  0.12541  0  1.005165  0  0.116416  0  0.108303  0.120032  0  1.007933  0
H  H17  1  0.21469229  0.71235768  0.64030689  1  0  0.111901  0  0.946191  0  0  0.122109  0  1.006333  0  0  0.125277  0  1.004738  0  0.113235  0  0.108205  0.119908  0  1.00751  0
H  H18  1  0.49718924  0.71243167  0.14009814  1  0  0.111682  0  0.947059  0  0  0.122261  0  1.006733  0  0  0.125434  0  1.005155  0  0.116432  0  0.108314  0.120056  0  1.007923  0
H  H19  1  0.78530708  0.28764209  0.35969210  1  0  0.111915  0  0.946188  0  0  0.122119  0  1.006332  0  0  0.125288  0  1.004737  0  0.113234  0  0.108207  0.119919  0  1.007509  0
H  H20  1  0.24191243  0.24628882  0.82107680  1  0  0.091906  0  0.987128  0  0  0.102516  0  1.051139  0  0  0.103068  0  1.054315  0  0.088324  0  0.099613  0.101952  0  1.049183  0
H  H21  1  0.99509015  0.75368432  0.67904112  1  0  0.091559  0  0.986814  0  0  0.102193  0  1.050823  0  0  0.102763  0  1.053959  0  0.085856  0  0.099307  0.101685  0  1.048822  0
H  H22  1  0.75808994  0.75371095  0.17892219  1  0  0.091892  0  0.98715  0  0  0.102497  0  1.051168  0  0  0.103049  0  1.054344  0  0.088296  0  0.099604  0.101934  0  1.049207  0
H  H23  1  0.00491022  0.24631546  0.32095923  1  0  0.091616  0  0.986815  0  0  0.102272  0  1.050788  0  0  0.102841  0  1.053924  0  0.085848  0  0.099336  0.101763  0  1.048787  0
H  H24  1  0.76882642  0.44555943  0.91899879  1  0  0.104046  0  0.923038  0  0  0.118612  0  0.976382  0  0  0.1218  0  0.974024  0  0.081834  0  0.112615  0.116142  0  0.978427  0
H  H25  1  0.32269504  0.55445317  0.58133246  1  0  0.104113  0  0.921819  0  0  0.118923  0  0.974965  0  0  0.122095  0  0.972659  0  0.091391  0  0.112822  0.11656  0  0.976817  0
H  H26  1  0.23117594  0.55444035  0.08100088  1  0  0.104031  0  0.92308  0  0  0.118608  0  0.976407  0  0  0.121796  0  0.974047  0  0.081854  0  0.112618  0.116139  0  0.978451  0
H  H27  1  0.67730533  0.44554660  0.41866653  1  0  0.104123  0  0.921828  0  0  0.118937  0  0.97497  0  0  0.122109  0  0.972664  0  0.091395  0  0.112833  0.116573  0  0.976822  0
H  H28  1  0.96641388  0.68325168  0.97940611  1  0  0.107653  0  0.942267  0  0  0.120509  0  0.996017  0  0  0.123424  0  0.99558  0  0.108451  0  0.111177  0.119202  0  0.995089  0
H  H29  1  0.28276429  0.31684278  0.52082378  1  0  0.108097  0  0.941181  0  0  0.120207  0  0.995938  0  0  0.123089  0  0.995534  0  0.090754  0  0.111042  0.118866  0  0.995053  0
H  H30  1  0.03358699  0.31674908  0.02059382  1  0  0.107673  0  0.942249  0  0  0.12053  0  0.995998  0  0  0.123444  0  0.995563  0  0.108469  0  0.111188  0.119223  0  0.995069  0
H  H31  1  0.71723558  0.68315798  0.47917683  1  0  0.1081  0  0.941169  0  0  0.120208  0  0.99593  0  0  0.12309  0  0.995525  0  0.090852  0  0.111042  0.118868  0  0.995043  0
H  H32  1  0.89439445  0.85893032  0.98373562  1  0  0.084572  0  0.986156  0  0  0.086742  0  1.059777  0  0  0.089554  0  1.057103  0  0.152315  0  0.115458  0.084573  0  1.062053  0
H  H33  1  0.03502062  0.14102802  0.51628470  1  0  0.084021  0  0.986558  0  0  0.087273  0  1.059217  0  0  0.090115  0  1.056541  0  0.141305  0  0.115681  0.085078  0  1.061399  0
H  H34  1  0.10560692  0.14106945  0.01626473  1  0  0.084594  0  0.986105  0  0  0.086766  0  1.059729  0  0  0.08958  0  1.057051  0  0.152326  0  0.115446  0.084596  0  1.062011  0
H  H35  1  0.96497875  0.85897175  0.48371565  1  0  0.084017  0  0.986542  0  0  0.08727  0  1.059211  0  0  0.090113  0  1.056533  0  0.141296  0  0.115689  0.085075  0  1.061394  0
H  H36  1  0.10904693  0.94162304  0.89916568  1  0  0.119902  0  0.946235  0  0  0.127613  0  1.012093  0  0  0.131803  0  1.008957  0  0.125396  0  0.119159  0.12438  0  1.01496  0
H  H37  1  0.16777032  0.05848721  0.60090308  1  0  0.119922  0  0.946295  0  0  0.128075  0  1.011623  0  0  0.132253  0  1.008508  0  0.121023  0  0.119297  0.124973  0  1.014212  0
H  H38  1  0.89095195  0.05837574  0.10083374  1  0  0.119899  0  0.946248  0  0  0.127606  0  1.012107  0  0  0.131796  0  1.00897  0  0.125422  0  0.119154  0.124374  0  1.014974  0
H  H39  1  0.83222905  0.94151256  0.39909659  1  0  0.119927  0  0.946286  0  0  0.128081  0  1.011612  0  0  0.132259  0  1.008497  0  0.121024  0  0.119301  0.124979  0  1.014201  0
H  H40  1  0.62707794  0.13150621  0.83378725  1  0  0.42123  0  0.880438  0  0  0.393056  0  0.94063  0  0  0.403574  0  0.92499  0  0.637823  0  0.298671  0.385581  0  0.951754  0
H  H41  1  0.49560028  0.86848863  0.66628253  1  0  0.420779  0  0.881203  0  0  0.39264  0  0.941229  0  0  0.40317  0  0.925609  0  0.621664  0  0.298524  0.385142  0  0.952357  0
H  H42  1  0.37292143  0.86849356  0.16621378  1  0  0.421164  0  0.880524  0  0  0.393025  0  0.940644  0  0  0.403542  0  0.925006  0  0.637815  0  0.29868  0.385551  0  0.951766  0
H  H43  1  0.50440010  0.13151114  0.33371782  1  0  0.420743  0  0.881255  0  0  0.392604  0  0.94128  0  0  0.403134  0  0.925661  0  0.621663  0  0.298503  0.385107  0  0.952409  0
H  H44  1  0.78174787  0.13696697  0.84122750  1  0  0.420624  0  0.87198  0  0  0.393515  0  0.933821  0  0  0.403675  0  0.918765  0  0.625358  0  0.300282  0.386216  0  0.944682  0
H  H45  1  0.64479124  0.86299532  0.65889851  1  0  0.42097  0  0.872492  0  0  0.393282  0  0.934406  0  0  0.403463  0  0.91932  0  0.634099  0  0.300225  0.385982  0  0.945263  0
H  H46  1  0.21825199  0.86303379  0.15877311  1  0  0.420611  0  0.871975  0  0  0.393499  0  0.933834  0  0  0.403659  0  0.91878  0  0.625349  0  0.300278  0.386201  0  0.944694  0
H  H47  1  0.35520913  0.13700446  0.34110184  1  0  0.420974  0  0.872508  0  0  0.393292  0  0.934399  0  0  0.403474  0  0.919314  0  0.634106  0  0.30023  0.385992  0  0.945258  0
C  C48  1  0.23908992  0.66447044  0.87268930  1  0  0.1544  0  3.719939  0  0  0.122173  0  3.983366  0  0  0.130761  0  3.998858  0  0.514101  0  0.063028  0.11615  0  3.972592  0
C  C49  1  0.57398887  0.33546620  0.62727109  1  0  0.154759  0  3.720363  0  0  0.122425  0  3.983924  0  0  0.131053  0  3.999418  0  0.501666  0  0.062905  0.116288  0  3.973213  0
C  C50  1  0.76091144  0.33552934  0.12731105  1  0  0.154392  0  3.720018  0  0  0.122158  0  3.983444  0  0  0.130742  0  3.998936  0  0.513949  0  0.063026  0.116136  0  3.972669  0
C  C51  1  0.42601050  0.66453357  0.37272858  1  0  0.15475  0  3.72041  0  0  0.122411  0  3.983982  0  0  0.131038  0  3.999476  0  0.501704  0  0.062897  0.116274  0  3.97327  0
C  C52  1  0.11916264  0.53739124  0.84155331  1  0  -0.128936  0  3.757842  0  0  -0.141946  0  4.012811  0  0  -0.148644  0  4.034467  0  -0.053505  0  -0.087553  -0.13783  0  3.997161  0
C  C53  1  0.58118029  0.46256415  0.65846557  1  0  -0.128698  0  3.757847  0  0  -0.141526  0  4.012598  0  0  -0.14828  0  4.034213  0  -0.023938  0  -0.087527  -0.137414  0  3.997067  0
C  C54  1  0.88083724  0.46260755  0.15844610  1  0  -0.128992  0  3.757959  0  0  -0.141969  0  4.012937  0  0  -0.148666  0  4.034595  0  -0.053368  0  -0.087574  -0.137853  0  3.997289  0
C  C55  1  0.41881957  0.53743661  0.34153503  1  0  -0.128726  0  3.757832  0  0  -0.141571  0  4.012586  0  0  -0.148325  0  4.034209  0  -0.023978  0  -0.087528  -0.137458  0  3.997055  0
C  C56  1  0.14738261  0.43008956  0.82900627  1  0  -0.047436  0  3.67487  0  0  -0.070799  0  3.919631  0  0  -0.068996  0  3.937443  0  -0.047351  0  -0.064295  -0.071238  0  3.907617  0
C  C57  1  0.71671392  0.56986287  0.67102953  1  0  -0.048342  0  3.6735  0  0  -0.071704  0  3.918882  0  0  -0.069904  0  3.93672  0  -0.098136  0  -0.064337  -0.072225  0  3.906973  0
C  C58  1  0.85261876  0.56991022  0.17099204  1  0  -0.047419  0  3.67498  0  0  -0.07078  0  3.91973  0  0  -0.068975  0  3.937539  0  -0.047311  0  -0.064286  -0.071217  0  3.907712  0
C  C59  1  0.28328546  0.43013690  0.32897082  1  0  -0.048293  0  3.673508  0  0  -0.071669  0  3.918878  0  0  -0.069869  0  3.936716  0  -0.098073  0  -0.064331  -0.072188  0  3.906969  0
C  C60  1  0.29576396  0.45154299  0.84961304  1  0  0.016488  0  3.806766  0  0  0.034526  0  4.035711  0  0  0.032014  0  4.060637  0  0.004835  0  -0.00619  0.035347  0  4.019412  0
C  C61  1  0.84361489  0.54837689  0.65040219  1  0  0.018398  0  3.806973  0  0  0.035431  0  4.037621  0  0  0.032919  0  4.062549  0  0.017148  0  -0.006155  0.036261  0  4.021351  0
C  C62  1  0.70423790  0.54845777  0.15038553  1  0  0.016445  0  3.806897  0  0  0.034465  0  4.035835  0  0  0.031952  0  4.060761  0  0.005008  0  -0.006223  0.035287  0  4.019536  0
C  C63  1  0.15638597  0.45162387  0.34959842  1  0  0.018436  0  3.807009  0  0  0.035491  0  4.03764  0  0  0.03298  0  4.062567  0  0.017078  0  -0.006124  0.03632  0  4.02137  0
C  C64  1  0.41014645  0.58356213  0.87988642  1  0  0.128695  0  3.744015  0  0  0.124805  0  3.982111  0  0  0.129133  0  4.002763  0  0.479868  0  0.120973  0.121704  0  3.967981  0
C  C65  1  0.82594680  0.41633703  0.62005756  1  0  0.127335  0  3.745726  0  0  0.123181  0  3.985751  0  0  0.127512  0  4.006445  0  0.446476  0  0.120569  0.120081  0  3.971633  0
C  C66  1  0.58985441  0.41643863  0.12011282  1  0  0.128641  0  3.743995  0  0  0.124835  0  3.982043  0  0  0.129163  0  4.002695  0  0.479772  0  0.120969  0.121732  0  3.967915  0
C  C67  1  0.17405357  0.58366274  0.37994279  1  0  0.127316  0  3.745693  0  0  0.123157  0  3.985746  0  0  0.12749  0  4.006439  0  0.446479  0  0.12057  0.120056  0  3.971629  0
C  C68  1  0.56266221  0.60825000  0.90338202  1  0  0.128435  0  3.757973  0  0  0.124232  0  3.99908  0  0  0.128706  0  4.020017  0  0.480386  0  0.122096  0.121991  0  3.983917  0
C  C69  1  0.95378350  0.39165212  0.59657496  1  0  0.129483  0  3.756084  0  0  0.124165  0  3.998754  0  0  0.128623  0  4.019728  0  0.500246  0  0.122096  0.121725  0  3.983856  0
C  C70  1  0.43733765  0.39175076  0.09661722  1  0  0.128544  0  3.757872  0  0  0.124213  0  3.999129  0  0  0.128686  0  4.020066  0  0.480401  0  0.122086  0.12197  0  3.983965  0
C  C71  1  0.04621636  0.60834864  0.40342564  1  0  0.129464  0  3.756063  0  0  0.124102  0  3.998805  0  0  0.128554  0  4.019791  0  0.500264  0  0.122074  0.121662  0  3.983907  0
C  C72  1  0.59375414  0.49978337  0.89644727  1  0  0.02242  0  3.796144  0  0  0.038277  0  4.029751  0  0  0.035793  0  4.054288  0  0.031006  0  -0.003167  0.04019  0  4.012571  0
C  C73  1  0.09335873  0.50013157  0.60366117  1  0  0.021477  0  3.798423  0  0  0.038535  0  4.03101  0  0  0.036033  0  4.055604  0  0.038915  0  -0.00356  0.040458  0  4.013867  0
C  C74  1  0.40624723  0.50021640  0.10355240  1  0  0.022423  0  3.796228  0  0  0.038312  0  4.02985  0  0  0.035829  0  4.054385  0  0.03102  0  -0.003147  0.04023  0  4.012671  0
C  C75  1  0.90664064  0.49986820  0.39633918  1  0  0.021547  0  3.798398  0  0  0.038626  0  4.030978  0  0  0.036126  0  4.055573  0  0.038912  0  -0.003539  0.04055  0  4.013831  0
C  C76  1  0.47562407  0.36872499  0.86551669  1  0  -0.093548  0  3.734056  0  0  -0.119115  0  3.995142  0  0  -0.121844  0  4.017427  0  -0.036961  0  -0.08434  -0.117851  0  3.980468  0
C  C77  1  0.10631702  0.63120771  0.63464048  1  0  -0.095109  0  3.735232  0  0  -0.120615  0  3.996268  0  0  -0.123328  0  4.018569  0  -0.052431  0  -0.085028  -0.119295  0  3.981481  0
C  C78  1  0.52437729  0.63127478  0.13448298  1  0  -0.093634  0  3.734057  0  0  -0.119177  0  3.995142  0  0  -0.121906  0  4.017426  0  -0.037068  0  -0.084367  -0.117917  0  3.98047  0
C  C79  1  0.89368235  0.36879207  0.36535851  1  0  -0.095121  0  3.735249  0  0  -0.120624  0  3.996287  0  0  -0.123337  0  4.018587  0  -0.052466  0  -0.085032  -0.119304  0  3.981498  0
C  C80  1  0.33222007  0.34570218  0.84295337  1  0  -0.104266  0  3.756726  0  0  -0.127134  0  4.010257  0  0  -0.131278  0  4.036369  0  -0.083799  0  -0.089284  -0.123953  0  3.993099  0
C  C81  1  0.98593260  0.65424433  0.65714209  1  0  -0.103755  0  3.757622  0  0  -0.126147  0  4.011267  0  0  -0.130279  0  4.037362  0  -0.052957  0  -0.088692  -0.123059  0  3.994063  0
C  C82  1  0.66778279  0.65429858  0.15704655  1  0  -0.104226  0  3.756704  0  0  -0.127084  0  4.010206  0  0  -0.131229  0  4.03632  0  -0.083778  0  -0.089246  -0.1239  0  3.993049  0
C  C83  1  0.01406678  0.34575545  0.34285826  1  0  -0.103881  0  3.757682  0  0  -0.126302  0  4.011336  0  0  -0.130432  0  4.037432  0  -0.052918  0  -0.088747  -0.123211  0  3.99413  0
C  C84  1  0.74266898  0.52704084  0.92280479  1  0  -0.053035  0  3.702554  0  0  -0.079446  0  3.954202  0  0  -0.077005  0  3.971938  0  -0.05936  0  -0.065613  -0.080671  0  3.941579  0
C  C85  1  0.21506160  0.47292638  0.57738502  1  0  -0.052071  0  3.702541  0  0  -0.078781  0  3.95378  0  0  -0.076339  0  3.971488  0  -0.144467  0  -0.064932  -0.079908  0  3.941054  0
C  C86  1  0.25733288  0.47295992  0.07719514  1  0  -0.053046  0  3.702604  0  0  -0.079462  0  3.954239  0  0  -0.077021  0  3.971974  0  -0.059374  0  -0.065629  -0.08069  0  3.941616  0
C  C87  1  0.78493777  0.52707339  0.42261465  1  0  -0.052129  0  3.702553  0  0  -0.078848  0  3.953797  0  0  -0.076406  0  3.971504  0  -0.144461  0  -0.064963  -0.079974  0  3.94107  0
C  C88  1  0.85071493  0.65630198  0.95515228  1  0  -0.120695  0  3.739923  0  0  -0.13347  0  3.994776  0  0  -0.139956  0  4.015801  0  -0.090029  0  -0.085516  -0.129968  0  3.980168  0
C  C89  1  0.19391595  0.34369286  0.54498207  1  0  -0.121956  0  3.739328  0  0  -0.134022  0  3.99479  0  0  -0.140467  0  4.015758  0  0.013054  0  -0.085491  -0.130499  0  3.980123  0
C  C90  1  0.14928693  0.34369878  0.04484764  1  0  -0.120695  0  3.739918  0  0  -0.133468  0  3.994772  0  0  -0.139955  0  4.015797  0  -0.090444  0  -0.085511  -0.129965  0  3.980163  0
C  C91  1  0.80608491  0.65630790  0.45501786  1  0  -0.121973  0  3.739318  0  0  -0.13403  0  3.994781  0  0  -0.140475  0  4.015749  0  0.01295  0  -0.085491  -0.130505  0  3.980111  0
C  C92  1  0.80969546  0.75676882  0.95861765  1  0  0.139157  0  3.701007  0  0  0.11008  0  3.961109  0  0  0.116914  0  3.978625  0  0.516096  0  0.055009  0.105485  0  3.949986  0
C  C93  1  0.05239195  0.24317374  0.54135988  1  0  0.141049  0  3.699952  0  0  0.110743  0  3.960406  0  0  0.117568  0  3.977915  0  0.518175  0  0.054924  0.106245  0  3.949092  0
C  C94  1  0.19030640  0.24323194  0.04138295  1  0  0.139133  0  3.701052  0  0  0.110056  0  3.96114  0  0  0.116889  0  3.978655  0  0.516552  0  0.055015  0.105459  0  3.950016  0
C  C95  1  0.94760743  0.75682603  0.45864047  1  0  0.141134  0  3.699885  0  0  0.110811  0  3.960362  0  0  0.117636  0  3.977871  0  0.518099  0  0.054947  0.106312  0  3.949049  0
C  C96  1  0.86618541  0.95547224  0.83339166  1  0  0.637508  0  3.944178  0  0  0.58589  0  4.24239  0  0  0.619415  0  4.23513  0  1.611705  0  0.199724  0.563285  0  4.24603  0
C  C97  1  0.91073213  0.04443382  0.66643514  1  0  0.639019  0  3.947487  0  0  0.587272  0  4.245334  0  0  0.620816  0  4.238021  0  1.589376  0  0.200031  0.564684  0  4.248939  0
C  C98  1  0.13381495  0.04452951  0.16660987  1  0  0.63743  0  3.944174  0  0  0.585848  0  4.242354  0  0  0.61937  0  4.235097  0  1.611684  0  0.199733  0.563244  0  4.245994  0
C  C99  1  0.08926773  0.95556693  0.33356478  1  0  0.639015  0  3.947443  0  0  0.58727  0  4.245285  0  0  0.620812  0  4.237971  0  1.589383  0  0.20002  0.564681  0  4.248893  0
C  C100  1  0.00880355  0.98332155  0.79203876  1  0  -0.048873  0  3.710802  0  0  -0.038866  0  3.953895  0  0  -0.041266  0  3.969351  0  -0.109938  0  -0.003954  -0.037062  0  3.943647  0
C  C101  1  0.02550529  0.01659438  0.70784971  1  0  -0.051482  0  3.713599  0  0  -0.040137  0  3.955578  0  0  -0.042406  0  3.970877  0  0.013085  0  -0.00479  -0.038465  0  3.945453  0
C  C102  1  0.99119533  0.01667723  0.20796066  1  0  -0.048824  0  3.710732  0  0  -0.038823  0  3.953818  0  0  -0.041223  0  3.969275  0  -0.10992  0  -0.003929  -0.03702  0  3.943572  0
C  C103  1  0.97449308  0.98340540  0.29214996  1  0  -0.051489  0  3.713609  0  0  -0.04014  0  3.955592  0  0  -0.042408  0  3.970889  0  0.013105  0  -0.004789  -0.038469  0  3.945467  0
C  C104  1  0.12236251  0.96821666  0.83410437  1  0  -0.088692  0  3.68991  0  0  -0.12294  0  3.94733  0  0  -0.122123  0  3.962626  0  -0.004795  0  -0.070468  -0.124686  0  3.938584  0
C  C105  1  0.15429652  0.03181271  0.66591716  1  0  -0.087639  0  3.689832  0  0  -0.122407  0  3.94667  0  0  -0.121604  0  3.961898  0  -0.055566  0  -0.069838  -0.124049  0  3.937858  0
C  C106  1  0.87763487  0.03178114  0.16589412  1  0  -0.088649  0  3.689869  0  0  -0.122887  0  3.947286  0  0  -0.122069  0  3.962584  0  -0.0048  0  -0.070464  -0.124634  0  3.938542  0
C  C107  1  0.84570185  0.96818706  0.33408319  1  0  -0.087645  0  3.689861  0  0  -0.12243  0  3.946687  0  0  -0.121628  0  3.961913  0  -0.055593  0  -0.069844  -0.124074  0  3.937874  0
C  C108  1  0.36027509  0.94932789  0.83311034  1  0  0.66614  0  3.910465  0  0  0.613943  0  4.205355  0  0  0.648625  0  4.195788  0  1.562936  0  0.221149  0.590466  0  4.210533  0
C  C109  1  0.41105395  0.05073994  0.66705291  1  0  0.666893  0  3.909723  0  0  0.613662  0  4.206056  0  0  0.648467  0  4.196355  0  1.556888  0  0.221409  0.59003  0  4.211536  0
C  C110  1  0.63972130  0.05066991  0.16688883  1  0  0.666113  0  3.910568  0  0  0.613913  0  4.205467  0  0  0.648595  0  4.195904  0  1.562968  0  0.221135  0.590435  0  4.210643  0
C  C111  1  0.58894493  0.94925884  0.33294719  1  0  0.666853  0  3.909671  0  0  0.613626  0  4.20598  0  0  0.648432  0  4.196278  0  1.556905  0  0.221388  0.589997  0  4.211459  0
C  C112  1  0.25112450  0.98289542  0.79204310  1  0  -0.05753  0  3.709554  0  0  -0.046475  0  3.950265  0  0  -0.049338  0  3.966552  0  0.011268  0  -0.002509  -0.044204  0  3.939137  0
C  C113  1  0.26829121  0.01711816  0.70803963  1  0  -0.058309  0  3.709481  0  0  -0.04696  0  3.950701  0  0  -0.049875  0  3.966964  0  -0.022401  0  -0.002959  -0.044791  0  3.939794  0
C  C114  1  0.74887239  0.01710139  0.20795513  1  0  -0.057684  0  3.709581  0  0  -0.046663  0  3.950308  0  0  -0.049528  0  3.9666  0  0.011228  0  -0.002555  -0.044391  0  3.939181  0
C  C115  1  0.73170767  0.98288063  0.29195979  1  0  -0.05825  0  3.709426  0  0  -0.046845  0  3.950557  0  0  -0.04976  0  3.966821  0  -0.022382  0  -0.002959  -0.044677  0  3.939651  0
N  N116  1  0.38060513  0.68806537  0.88988404  1  0  -0.383542  0  3.141425  0  0  -0.331118  0  3.401295  0  0  -0.346874  0  3.418164  0  -1.225946  0  -0.338598  -0.31959  0  3.389483  0
N  N117  1  0.69187326  0.31183675  0.61002264  1  0  -0.383282  0  3.140802  0  0  -0.330456  0  3.400969  0  0  -0.346192  0  3.417811  0  -1.233961  0  -0.338282  -0.318873  0  3.389104  0
N  N118  1  0.61939524  0.31193441  0.11011631  1  0  -0.383549  0  3.141349  0  0  -0.331136  0  3.401194  0  0  -0.346892  0  3.418067  0  -1.225946  0  -0.3386  -0.319607  0  3.389384  0
N  N119  1  0.30812711  0.68816302  0.38997771  1  0  -0.383263  0  3.140794  0  0  -0.330431  0  3.400964  0  0  -0.346167  0  3.417808  0  -1.233963  0  -0.338285  -0.318846  0  3.389098  0
N  N120  1  0.67077101  0.73465647  0.93282243  1  0  -0.386424  0  3.157716  0  0  -0.337193  0  3.421843  0  0  -0.353349  0  3.441052  0  -1.242834  0  -0.337502  -0.326238  0  3.40833  0
N  N121  1  0.93551716  0.26523085  0.56707366  1  0  -0.387803  0  3.155483  0  0  -0.337726  0  3.420213  0  0  -0.353902  0  3.439437  0  -1.240201  0  -0.337932  -0.326868  0  3.406787  0
N  N122  1  0.32922936  0.26534330  0.06717724  1  0  -0.386465  0  3.157707  0  0  -0.337206  0  3.421878  0  0  -0.353359  0  3.441083  0  -1.242883  0  -0.337502  -0.326248  0  3.408365  0
N  N123  1  0.06448222  0.73476892  0.43292737  1  0  -0.387833  0  3.155451  0  0  -0.337734  0  3.420206  0  0  -0.353907  0  3.439432  0  -1.240144  0  -0.337924  -0.326877  0  3.406782  0
O  O124  1  0.87249489  0.01020638  0.92359941  1  0  -0.647338  0  1.953611  0  0  -0.586626  0  2.18275  0  0  -0.613058  0  2.174733  0  -1.200956  0  -0.34592  -0.567681  0  2.187356  0
O  O125  1  0.86233006  0.98974407  0.57622789  1  0  -0.646764  0  1.953661  0  0  -0.586763  0  2.183642  0  0  -0.613276  0  2.175707  0  -1.201236  0  -0.345741  -0.567805  0  2.188238  0
O  O126  1  0.12750597  0.98979438  0.07640119  1  0  -0.647307  0  1.953513  0  0  -0.586625  0  2.18267  0  0  -0.613053  0  2.174652  0  -1.200911  0  -0.345929  -0.567675  0  2.187266  0
O  O127  1  0.13766980  0.01025669  0.42377271  1  0  -0.646775  0  1.953641  0  0  -0.586767  0  2.183613  0  0  -0.613279  0  2.175676  0  -1.201257  0  -0.345727  -0.567791  0  2.188174  0
O  O128  1  0.74383579  0.87482138  0.77553056  1  0  -0.689659  0  1.964431  0  0  -0.630224  0  2.191158  0  0  -0.656745  0  2.181651  0  -1.216767  0  -0.350255  -0.611572  0  2.198012  0
O  O129  1  0.86899752  0.12504720  0.72431111  1  0  -0.690402  0  1.965371  0  0  -0.630994  0  2.19214  0  0  -0.657519  0  2.182588  0  -1.206826  0  -0.350424  -0.612346  0  2.199069  0
O  O130  1  0.25616157  0.12518036  0.22447097  1  0  -0.689594  0  1.964399  0  0  -0.630222  0  2.191191  0  0  -0.656743  0  2.181689  0  -1.216786  0  -0.350275  -0.611571  0  2.198046  0
O  O131  1  0.13100185  0.87495258  0.27568924  1  0  -0.690398  0  1.96537  0  0  -0.630988  0  2.192136  0  0  -0.657511  0  2.182584  0  -1.206812  0  -0.350417  -0.612341  0  2.199064  0
O  O132  1  0.70007710  0.13231309  0.87941409  1  0  -0.853408  0  1.783456  0  0  -0.807558  0  1.948804  0  0  -0.826604  0  1.919438  0  -1.273782  0  -0.609322  -0.793306  0  1.969331  0
O  O133  1  0.56778104  0.86760481  0.62065772  1  0  -0.853348  0  1.784014  0  0  -0.806595  0  1.949136  0  0  -0.825707  0  1.919704  0  -1.266251  0  -0.609099  -0.79235  0  1.969605  0
O  O134  1  0.29992227  0.86768668  0.12058694  1  0  -0.853331  0  1.783522  0  0  -0.807489  0  1.9489  0  0  -0.826537  0  1.91953  0  -1.273764  0  -0.609314  -0.793239  0  1.969425  0
O  O135  1  0.43221933  0.13239496  0.37934263  1  0  -0.853323  0  1.784091  0  0  -0.80657  0  1.949186  0  0  -0.825681  0  1.919757  0  -1.26626  0  -0.609079  -0.792324  0  1.969656  0
O  O136  1  0.39003066  0.98512471  0.92525516  1  0  -0.715892  0  1.993829  0  0  -0.645147  0  2.243589  0  0  -0.674714  0  2.23351  0  -1.232334  0  -0.386899  -0.623738  0  2.249284  0
O  O137  1  0.40505532  0.01499540  0.57490652  1  0  -0.716863  0  1.992797  0  0  -0.645947  0  2.243694  0  0  -0.675514  0  2.233457  0  -1.235727  0  -0.387558  -0.624547  0  2.24946  0
O  O138  1  0.60996671  0.01487506  0.07474451  1  0  -0.715856  0  1.993899  0  0  -0.645107  0  2.24366  0  0  -0.674674  0  2.233581  0  -1.232397  0  -0.386879  -0.623697  0  2.249354  0
O  O139  1  0.59494405  0.98500437  0.42509383  1  0  -0.716847  0  1.992711  0  0  -0.645928  0  2.243589  0  0  -0.675503  0  2.233359  0  -1.235751  0  -0.387537  -0.62453  0  2.249354  0
O  O140  1  0.41576334  0.88161380  0.77623213  1  0  -0.671262  0  2.01327  0  0  -0.612817  0  2.244157  0  0  -0.639078  0  2.235256  0  -1.200885  0  -0.327624  -0.594511  0  2.250525  0
O  O141  1  0.53425218  0.11847968  0.72394720  1  0  -0.670521  0  2.013049  0  0  -0.611508  0  2.244261  0  0  -0.637767  0  2.23522  0  -1.199138  0  -0.326905  -0.593225  0  2.250808  0
O  O142  1  0.58423554  0.11838498  0.22376865  1  0  -0.671229  0  2.013285  0  0  -0.612789  0  2.244177  0  0  -0.639045  0  2.235267  0  -1.200898  0  -0.327611  -0.594485  0  2.250547  0
O  O143  1  0.46574619  0.88152009  0.27605315  1  0  -0.670504  0  2.013111  0  0  -0.611502  0  2.244285  0  0  -0.637755  0  2.235237  0  -1.199161  0  -0.326908  -0.593222  0  2.250841  0
