# generated using pymatgen
data_Cd3H30C42N4(ClO2)4
_symmetry_space_group_name_H-M   'P 1'
_cell_length_a   7.82917014
_cell_length_b   9.66342645
_cell_length_c   15.55429391
_cell_angle_alpha   87.00037323
_cell_angle_beta   79.74190128
_cell_angle_gamma   68.43021322
_symmetry_Int_Tables_number   1
_chemical_formula_structural   Cd3H30C42N4(ClO2)4
_chemical_formula_sum   'Cd3 H30 C42 N4 Cl4 O8'
_cell_volume   1076.77141762
_cell_formula_units_Z   1
loop_
 _symmetry_equiv_pos_site_id
 _symmetry_equiv_pos_as_xyz
  1  'x, y, z'
loop_
 _atom_site_type_symbol
 _atom_site_label
 _atom_site_symmetry_multiplicity
 _atom_site_fract_x
 _atom_site_fract_y
 _atom_site_fract_z
 _atom_site_occupancy
 _atom_site_hle17_bader_spin_density
 _atom_site_hle17_ddec_charge
 _atom_site_hle17_ddec_spin_density
 _atom_site_hle17_ddec_sum_bond_order
 _atom_site_hle17_magmom
 _atom_site_hse06_10hf_bader_spin_density
 _atom_site_hse06_10hf_ddec_charge
 _atom_site_hse06_10hf_ddec_spin_density
 _atom_site_hse06_10hf_ddec_sum_bond_order
 _atom_site_hse06_10hf_magmom
 _atom_site_hse06_bader_spin_density
 _atom_site_hse06_ddec_charge
 _atom_site_hse06_ddec_spin_density
 _atom_site_hse06_ddec_sum_bond_order
 _atom_site_hse06_magmom
 _atom_site_pbe_bader_spin_density
 _atom_site_pbe_cm5_charge
 _atom_site_pbe_ddec_charge
 _atom_site_pbe_ddec_spin_density
 _atom_site_pbe_ddec_sum_bond_order
 _atom_site_pbe_magmom
Cd  Cd0  1  0.99999313  0.00000223  0.00000168  1  0  1.190759  0  1.801991  0  0  1.034975  0  2.265787  0  0  1.087288  0  2.21022  0  0  0.693898  0.998544  0  2.304849  0
Cd  Cd1  1  0.88125075  0.96979265  0.23522805  1  0  1.048924  0  1.833341  0  0  0.877836  0  2.298081  0  0  0.932339  0  2.247196  0  0  0.647768  0.838348  0  2.334184  0
Cd  Cd2  1  0.11874838  0.03019990  0.76477348  1  0  1.048941  0  1.833305  0  0  0.877866  0  2.298024  0  0  0.932372  0  2.247137  0  0  0.647784  0.838379  0  2.334133  0
H  H3  1  0.33933329  0.10141199  0.02180637  1  0  0.097246  0  0.974363  0  0  0.102721  0  1.049705  0  0  0.105952  0  1.046701  0  0  0.095217  0.100265  0  1.052119  0
H  H4  1  0.66065479  0.89859058  0.97819574  1  0  0.097234  0  0.974249  0  0  0.10262  0  1.049715  0  0  0.105851  0  1.046713  0  0  0.095181  0.100166  0  1.052131  0
H  H5  1  0.30542830  0.55360700  0.97530723  1  0  0.097006  0  0.979151  0  0  0.104615  0  1.049522  0  0  0.108254  0  1.046372  0  0  0.101255  0.101815  0  1.052165  0
H  H6  1  0.69457199  0.44638866  0.02468507  1  0  0.096989  0  0.979107  0  0  0.104613  0  1.049459  0  0  0.108255  0  1.046306  0  0  0.10125  0.101814  0  1.052103  0
H  H7  1  0.96272199  0.45386588  0.19784113  1  0  0.102597  0  0.963149  0  0  0.108804  0  1.032728  0  0  0.112429  0  1.030282  0  0  0.101165  0.106271  0  1.034483  0
H  H8  1  0.03727467  0.54613776  0.80215889  1  0  0.102639  0  0.963131  0  0  0.108847  0  1.032717  0  0  0.112473  0  1.030271  0  0  0.101199  0.106315  0  1.034471  0
H  H9  1  0.63371990  0.28485491  0.93502667  1  0  0.104723  0  0.957274  0  0  0.117967  0  1.02021  0  0  0.119194  0  1.019832  0  0  0.11533  0.116778  0  1.02104  0
H  H10  1  0.36627107  0.71512994  0.06497913  1  0  0.104792  0  0.957224  0  0  0.117937  0  1.020246  0  0  0.119187  0  1.019828  0  0  0.115318  0.116747  0  1.021076  0
H  H11  1  0.56142074  0.14211301  0.91010274  1  0  0.111987  0  0.926148  0  0  0.123048  0  0.991695  0  0  0.125077  0  0.989839  0  0  0.118784  0.121425  0  0.993268  0
H  H12  1  0.43856160  0.85788503  0.08989687  1  0  0.112021  0  0.926147  0  0  0.123112  0  0.991675  0  0  0.125133  0  0.989815  0  0  0.118793  0.121488  0  0.993249  0
H  H13  1  0.44033411  0.14218105  0.79406238  1  0  0.108425  0  0.937644  0  0  0.113556  0  1.006698  0  0  0.116396  0  1.003478  0  0  0.126666  0.111372  0  1.009183  0
H  H14  1  0.55966027  0.85782475  0.20593518  1  0  0.108396  0  0.937729  0  0  0.113536  0  1.006799  0  0  0.116381  0  1.00357  0  0  0.126671  0.11135  0  1.009279  0
H  H15  1  0.35822283  0.24863824  0.65274088  1  0  0.123143  0  0.959704  0  0  0.13075  0  1.022288  0  0  0.134355  0  1.021035  0  0  0.105442  0.127643  0  1.024101  0
H  H16  1  0.64178423  0.75136540  0.34725820  1  0  0.123065  0  0.959663  0  0  0.130652  0  1.022287  0  0  0.134272  0  1.021016  0  0  0.105404  0.127543  0  1.024101  0
H  H17  1  0.42551895  0.65145919  0.72762457  1  0  0.132535  0  0.935437  0  0  0.140607  0  0.994675  0  0  0.143963  0  0.993448  0  0  0.118123  0.136932  0  0.997689  0
H  H18  1  0.57450071  0.34853673  0.27237690  1  0  0.1325  0  0.935491  0  0  0.14052  0  0.994775  0  0  0.143876  0  0.993546  0  0  0.118106  0.136845  0  0.997787  0
H  H19  1  0.51888639  0.52310523  0.86309451  1  0  0.103323  0  0.945765  0  0  0.112785  0  1.0077  0  0  0.11461  0  1.006994  0  0  0.13031  0.111169  0  1.008816  0
H  H20  1  0.48112600  0.47688957  0.13690703  1  0  0.103349  0  0.945742  0  0  0.112727  0  1.007763  0  0  0.114553  0  1.00706  0  0  0.130332  0.111125  0  1.008861  0
H  H21  1  0.29180216  0.44774558  0.55638012  1  0  0.090468  0  0.949448  0  0  0.104428  0  1.004832  0  0  0.107403  0  1.004082  0  0  0.104922  0.102065  0  1.00577  0
H  H22  1  0.70820236  0.55226364  0.44361960  1  0  0.090481  0  0.949439  0  0  0.104436  0  1.004821  0  0  0.107409  0  1.004076  0  0  0.104895  0.102074  0  1.005761  0
H  H23  1  0.32161378  0.74318986  0.60629194  1  0  0.106683  0  0.974845  0  0  0.114595  0  1.04103  0  0  0.117623  0  1.038885  0  0  0.097781  0.112205  0  1.042956  0
H  H24  1  0.67839505  0.25681275  0.39371024  1  0  0.106648  0  0.974852  0  0  0.114601  0  1.040984  0  0  0.117585  0  1.038886  0  0  0.09774  0.11221  0  1.042911  0
H  H25  1  0.17338877  0.53033644  0.44810832  1  0  0.103092  0  0.947539  0  0  0.117799  0  0.999056  0  0  0.120962  0  0.998227  0  0  0.108923  0.115594  0  0.999757  0
H  H26  1  0.82663012  0.46965834  0.55189199  1  0  0.103101  0  0.947633  0  0  0.117834  0  0.999114  0  0  0.120986  0  0.998299  0  0  0.108949  0.115628  0  0.999819  0
H  H27  1  0.05602964  0.64926402  0.31407686  1  0  0.087825  0  0.947795  0  0  0.096551  0  1.009207  0  0  0.099517  0  1.006793  0  0  0.113599  0.09433  0  1.010997  0
H  H28  1  0.94398715  0.35072967  0.68592432  1  0  0.08784  0  0.947776  0  0  0.09651  0  1.009226  0  0  0.09947  0  1.006824  0  0  0.113633  0.094301  0  1.01099  0
H  H29  1  0.14297204  0.03387906  0.36055538  1  0  0.091262  0  0.922952  0  0  0.100953  0  0.981279  0  0  0.103533  0  0.979234  0  0  0.118745  0.099158  0  0.982544  0
H  H30  1  0.85701819  0.96613017  0.63944562  1  0  0.091189  0  0.922949  0  0  0.100869  0  0.981292  0  0  0.103446  0  0.979254  0  0  0.118693  0.099074  0  0.982557  0
H  H31  1  0.26871973  0.93115108  0.49758218  1  0  0.12202  0  0.956092  0  0  0.128539  0  1.019932  0  0  0.13224  0  1.018595  0  0  0.101596  0.125831  0  1.021097  0
H  H32  1  0.73127027  0.06886150  0.50241936  1  0  0.122036  0  0.956129  0  0  0.128564  0  1.01995  0  0  0.132271  0  1.018607  0  0  0.101596  0.125857  0  1.021112  0
C  C33  1  0.06977601  0.15880612  0.16526581  1  0  0.643754  0  3.898486  0  0  0.595115  0  4.180172  0  0  0.629903  0  4.174099  0  0  0.196595  0.571643  0  4.183221  0
C  C34  1  0.93021746  0.84119316  0.83473789  1  0  0.643706  0  3.89865  0  0  0.59507  0  4.180368  0  0  0.629858  0  4.174295  0  0  0.196557  0.571591  0  4.183415  0
C  C35  1  0.14359357  0.26681065  0.11497197  1  0  -0.052782  0  3.74296  0  0  -0.024032  0  3.971965  0  0  -0.033411  0  3.994201  0  0  -0.01665  -0.018236  0  3.957438  0
C  C36  1  0.85639764  0.73319074  0.88502735  1  0  -0.052743  0  3.742896  0  0  -0.024034  0  3.971951  0  0  -0.033414  0  3.994194  0  0  -0.016548  -0.018215  0  3.957394  0
C  C37  1  0.28300597  0.21843729  0.04113571  1  0  -0.072555  0  3.6761  0  0  -0.110482  0  3.9271  0  0  -0.107617  0  3.944998  0  0  -0.076394  -0.111774  0  3.914976  0
C  C38  1  0.71697954  0.78156519  0.95886278  1  0  -0.072558  0  3.675916  0  0  -0.110422  0  3.926967  0  0  -0.107553  0  3.944854  0  0  -0.076449  -0.111726  0  3.914843  0
C  C39  1  0.34889999  0.31890802  0.99178283  1  0  0.067541  0  3.743701  0  0  0.090013  0  3.989859  0  0  0.08633  0  4.014272  0  0  -0.016226  0.092218  0  3.973211  0
C  C40  1  0.65108915  0.68109220  0.00821414  1  0  0.067554  0  3.743915  0  0  0.090142  0  3.989891  0  0  0.086448  0  4.014304  0  0  -0.016197  0.092344  0  3.973245  0
C  C41  1  0.26557085  0.46969165  0.01406875  1  0  -0.119101  0  3.723977  0  0  -0.157067  0  3.978962  0  0  -0.15562  0  3.998306  0  0  -0.088801  -0.157424  0  3.965465  0
C  C42  1  0.73442247  0.53031079  0.98592776  1  0  -0.119053  0  3.724091  0  0  -0.157  0  3.979035  0  0  -0.155554  0  3.998378  0  0  -0.088739  -0.157355  0  3.965536  0
C  C43  1  0.12600313  0.51961434  0.08757242  1  0  -0.073508  0  3.783741  0  0  -0.046126  0  4.021353  0  0  -0.055852  0  4.04468  0  0  -0.024364  -0.039584  0  4.004983  0
C  C44  1  0.87398370  0.48038809  0.91242403  1  0  -0.073387  0  3.783657  0  0  -0.046108  0  4.021387  0  0  -0.055829  0  4.04471  0  0  -0.024348  -0.039569  0  4.00502  0
C  C45  1  0.06860598  0.41723359  0.13956547  1  0  -0.05758  0  3.680259  0  0  -0.094743  0  3.924443  0  0  -0.090944  0  3.941823  0  0  -0.075182  -0.09698  0  3.912872  0
C  C46  1  0.93138676  0.58276443  0.86043256  1  0  -0.057741  0  3.680265  0  0  -0.094893  0  3.92456  0  0  -0.091096  0  3.941939  0  0  -0.075279  -0.097136  0  3.912981  0
C  C47  1  0.04432504  0.68385008  0.10714405  1  0  0.661224  0  3.913069  0  0  0.6057  0  4.210126  0  0  0.641583  0  4.202194  0  0  0.20596  0.581345  0  4.214421  0
C  C48  1  0.95565708  0.31615128  0.89285479  1  0  0.661273  0  3.912861  0  0  0.605804  0  4.209897  0  0  0.641684  0  4.201955  0  0  0.205994  0.581449  0  4.214194  0
C  C49  1  0.51492839  0.26267421  0.91924663  1  0  -0.06435  0  3.592321  0  0  -0.131202  0  3.836149  0  0  -0.127187  0  3.846334  0  0  -0.050208  -0.133708  0  3.82959  0
C  C50  1  0.48506426  0.73731831  0.08075421  1  0  -0.064508  0  3.592484  0  0  -0.131401  0  3.836438  0  0  -0.127363  0  3.846546  0  0  -0.050205  -0.133904  0  3.829877  0
C  C51  1  0.43611668  0.25351245  0.77548707  1  0  0.126049  0  3.580728  0  0  0.080283  0  3.835772  0  0  0.090921  0  3.849645  0  0  0.072976  0.073333  0  3.82658  0
C  C52  1  0.56388779  0.74649116  0.22451096  1  0  0.126254  0  3.580574  0  0  0.080417  0  3.83568  0  0  0.091048  0  3.849569  0  0  0.073034  0.073476  0  3.826477  0
C  C53  1  0.38908244  0.31627907  0.69730935  1  0  -0.142065  0  3.671291  0  0  -0.162834  0  3.925041  0  0  -0.171949  0  3.944074  0  0  -0.069054  -0.156652  0  3.913186  0
C  C54  1  0.61092097  0.68372118  0.30268826  1  0  -0.142012  0  3.671133  0  0  -0.162738  0  3.924941  0  0  -0.171862  0  3.943974  0  0  -0.069049  -0.15656  0  3.913085  0
C  C55  1  0.37869021  0.46251222  0.67733850  1  0  0.157172  0  3.764916  0  0  0.167827  0  4.001139  0  0  0.177371  0  4.020212  0  0  0.024376  0.161699  0  3.988185  0
C  C56  1  0.62131262  0.53748360  0.32266000  1  0  0.157148  0  3.764872  0  0  0.167802  0  4.001098  0  0  0.177338  0  4.020187  0  0  0.024386  0.161671  0  3.988147  0
C  C57  1  0.42696489  0.53876416  0.73864458  1  0  -0.125246  0  3.653628  0  0  -0.143594  0  3.903261  0  0  -0.151189  0  3.922175  0  0  -0.060857  -0.138429  0  3.891274  0
C  C58  1  0.57305063  0.46122945  0.26135350  1  0  -0.125172  0  3.653585  0  0  -0.143476  0  3.903212  0  0  -0.151066  0  3.922131  0  0  -0.060778  -0.138315  0  3.891228  0
C  C59  1  0.47677669  0.47014628  0.81498066  1  0  0.085869  0  3.601041  0  0  0.043624  0  3.852391  0  0  0.051616  0  3.86849  0  0  0.062038  0.038112  0  3.841873  0
C  C60  1  0.52323600  0.52985070  0.18501882  1  0  0.08583  0  3.601112  0  0  0.043664  0  3.852403  0  0  0.051649  0  3.868511  0  0  0.06191  0.038148  0  3.841873  0
C  C61  1  0.31866351  0.52489341  0.59625462  1  0  -0.112231  0  3.709694  0  0  -0.132253  0  3.961871  0  0  -0.139533  0  3.983597  0  0  -0.080366  -0.127479  0  3.947457  0
C  C62  1  0.68133863  0.47511248  0.40374609  1  0  -0.112222  0  3.709679  0  0  -0.132252  0  3.961862  0  0  -0.139528  0  3.983576  0  0  -0.080316  -0.127475  0  3.947446  0
C  C63  1  0.29321605  0.66473687  0.56793917  1  0  -0.049403  0  3.642284  0  0  -0.071959  0  3.88956  0  0  -0.071145  0  3.907436  0  0  -0.061981  -0.072046  0  3.876896  0
C  C64  1  0.70679462  0.33526453  0.43205903  1  0  -0.049476  0  3.642106  0  0  -0.072017  0  3.889392  0  0  -0.071173  0  3.907298  0  0  -0.061996  -0.072102  0  3.876723  0
C  C65  1  0.22797141  0.72266123  0.48644314  1  0  0.124762  0  3.783857  0  0  0.142072  0  4.013257  0  0  0.145915  0  4.036656  0  0  0.00801  0.139554  0  3.997248  0
C  C66  1  0.77204026  0.27733799  0.51355699  1  0  0.124899  0  3.783586  0  0  0.142097  0  4.013155  0  0  0.145945  0  4.036536  0  0  0.008003  0.139581  0  3.997147  0
C  C67  1  0.16918531  0.64263073  0.43231164  1  0  -0.164926  0  3.719386  0  0  -0.18157  0  3.960809  0  0  -0.189505  0  3.983383  0  0  -0.084194  -0.176451  0  3.945551  0
C  C68  1  0.83082996  0.35736629  0.56768955  1  0  -0.164933  0  3.719292  0  0  -0.181557  0  3.960738  0  0  -0.189484  0  3.983315  0  0  -0.084165  -0.17644  0  3.945485  0
C  C69  1  0.10305242  0.70768635  0.35747279  1  0  0.113676  0  3.738095  0  0  0.083805  0  3.993683  0  0  0.08966  0  4.013739  0  0  0.036252  0.080291  0  3.979763  0
C  C70  1  0.89696314  0.29231290  0.64252827  1  0  0.113654  0  3.737933  0  0  0.083826  0  3.993543  0  0  0.089683  0  4.013591  0  0  0.036226  0.080314  0  3.979626  0
C  C71  1  0.15222748  0.92276591  0.38292647  1  0  0.136694  0  3.695683  0  0  0.104776  0  3.954241  0  0  0.112009  0  3.972855  0  0  0.049678  0.100249  0  3.941309  0
C  C72  1  0.84776586  0.07724218  0.61707366  1  0  0.136724  0  3.695788  0  0  0.10483  0  3.954334  0  0  0.112062  0  3.972951  0  0  0.049702  0.100302  0  3.941406  0
C  C73  1  0.22108568  0.86549927  0.45910805  1  0  -0.14723  0  3.653938  0  0  -0.164191  0  3.897986  0  0  -0.172508  0  3.919898  0  0  -0.074062  -0.158748  0  3.883481  0
C  C74  1  0.77891076  0.13450771  0.54089185  1  0  -0.147295  0  3.654085  0  0  -0.16423  0  3.898143  0  0  -0.172551  0  3.920049  0  0  -0.074047  -0.158786  0  3.883639  0
N  N75  1  0.09177726  0.84662218  0.33321978  1  0  -0.330106  0  3.236813  0  0  -0.260534  0  3.508214  0  0  -0.28012  0  3.528048  0  0  -0.328994  -0.247203  0  3.494318  0
N  N76  1  0.90822793  0.15337701  0.66677965  1  0  -0.330099  0  3.236828  0  0  -0.26053  0  3.50821  0  0  -0.280114  0  3.528039  0  0  -0.329023  -0.247201  0  3.494318  0
N  N77  1  0.47711323  0.33054947  0.83368734  1  0  -0.000835  0  3.513664  0  0  0.095268  0  3.723861  0  0  0.080913  0  3.749883  0  0  -0.205607  0.104555  0  3.706297  0
N  N78  1  0.52289298  0.66944747  0.16631144  1  0  -0.000966  0  3.513813  0  0  0.095194  0  3.723963  0  0  0.080827  0  3.749989  0  0  -0.205602  0.104474  0  3.706399  0
Cl  Cl79  1  0.68345559  0.08119871  0.10917542  1  0  -0.59081  0  0.925382  0  0  -0.523991  0  1.195847  0  0  -0.545237  0  1.174044  0  0  -0.30623  -0.508801  0  1.211668  0
Cl  Cl80  1  0.31653275  0.91880615  0.89082915  1  0  -0.590785  0  0.925411  0  0  -0.524009  0  1.195935  0  0  -0.545258  0  1.174136  0  0  -0.306197  -0.508811  0  1.211748  0
Cl  Cl81  1  0.60171780  0.03293237  0.35399605  1  0  -0.633631  0  0.780293  0  0  -0.576947  0  1.00507  0  0  -0.593865  0  0.984262  0  0  -0.368194  -0.563896  0  1.020084  0
Cl  Cl82  1  0.39829376  0.96706140  0.64600881  1  0  -0.633669  0  0.780299  0  0  -0.576975  0  1.005061  0  0  -0.593896  0  0.984256  0  0  -0.368198  -0.563921  0  1.020076  0
O  O83  1  0.11265289  0.02952123  0.12949762  1  0  -0.688862  0  2.06986  0  0  -0.611824  0  2.326873  0  0  -0.643282  0  2.315576  0  0  -0.343025  -0.590196  0  2.33523  0
O  O84  1  0.88734469  0.97047474  0.87050713  1  0  -0.688831  0  2.070039  0  0  -0.611774  0  2.327029  0  0  -0.643232  0  2.315733  0  0  -0.343007  -0.590146  0  2.335387  0
O  O85  1  0.96564667  0.19525367  0.23877485  1  0  -0.613228  0  1.940805  0  0  -0.558065  0  2.173783  0  0  -0.585181  0  2.166592  0  0  -0.320575  -0.538484  0  2.177589  0
O  O86  1  0.03435249  0.80474452  0.76122967  1  0  -0.613245  0  1.940693  0  0  -0.558096  0  2.173703  0  0  -0.585213  0  2.166514  0  0  -0.320639  -0.538516  0  2.177514  0
O  O87  1  0.95399195  0.72826643  0.18327229  1  0  -0.645028  0  2.048329  0  0  -0.578176  0  2.305399  0  0  -0.607495  0  2.295917  0  0  -0.325323  -0.557153  0  2.31118  0
O  O88  1  0.04600853  0.27173173  0.81673082  1  0  -0.645017  0  2.048381  0  0  -0.578142  0  2.305394  0  0  -0.607455  0  2.295909  0  0  -0.325283  -0.557138  0  2.311215  0
O  O89  1  0.07946861  0.76385702  0.04420635  1  0  -0.659927  0  2.126595  0  0  -0.591884  0  2.390215  0  0  -0.622016  0  2.38026  0  0  -0.332171  -0.570185  0  2.39692  0
O  O90  1  0.92050703  0.23614431  0.95579179  1  0  -0.659909  0  2.126316  0  0  -0.59197  0  2.390064  0  0  -0.622118  0  2.38015  0  0  -0.332243  -0.570269  0  2.39677  0
