# generated using pymatgen
data_ZnH15C18N(O2F)2
_symmetry_space_group_name_H-M   'P 1'
_cell_length_a   8.98016968
_cell_length_b   14.68248073
_cell_length_c   16.14521050
_cell_angle_alpha   88.47234896
_cell_angle_beta   90.14891117
_cell_angle_gamma   81.49687718
_symmetry_Int_Tables_number   1
_chemical_formula_structural   ZnH15C18N(O2F)2
_chemical_formula_sum   'Zn2 H30 C36 N2 O8 F4'
_cell_volume   2104.57071086
_cell_formula_units_Z   2
loop_
 _symmetry_equiv_pos_site_id
 _symmetry_equiv_pos_as_xyz
  1  'x, y, z'
loop_
 _atom_site_type_symbol
 _atom_site_label
 _atom_site_symmetry_multiplicity
 _atom_site_fract_x
 _atom_site_fract_y
 _atom_site_fract_z
 _atom_site_occupancy
 _atom_site_pbe_bader_charge
 _atom_site_pbe_bader_spin_density
 _atom_site_pbe_cm5_charge
 _atom_site_pbe_ddec_charge
 _atom_site_pbe_ddec_spin_density
 _atom_site_pbe_ddec_sum_bond_order
 _atom_site_pbe_magmom
Zn  Zn0  1  0.51045078  0.40317564  0.50333041  1  1.318657  0  0.688753  0.894142  0  2.437391  0
Zn  Zn1  1  0.48957077  0.59685533  0.49666397  1  1.320648  0  0.688753  0.89409  0  2.437623  0
H  H2  1  0.56552002  0.21591522  0.99092370  1  0.042417  0  0.084182  0.113547  0  1.007484  0
H  H3  1  0.62313056  0.65117643  0.13409874  1  0.043261  0  0.101101  0.101774  0  0.955227  0
H  H4  1  0.19864793  0.83154283  0.51432025  1  0.062466  0  0.094203  0.131598  0  0.997777  0
H  H5  1  0.09593818  0.94482388  0.50710944  1  0.016842  0  0.082448  0.101918  0  1.043491  0
H  H6  1  0.06120196  0.85981812  0.43554924  1  0.052416  0  0.096454  0.131843  0  0.981825  0
H  H7  1  0.21274155  0.96429995  0.36368649  1  0.048233  0  0.100752  0.099576  0  0.987226  0
H  H8  1  0.32398604  0.85627091  0.37971903  1  0.061437  0  0.105075  0.107771  0  0.965345  0
H  H9  1  0.90418249  0.05510125  0.49307092  1  0.018426  0  0.082188  0.101668  0  1.043691  0
H  H10  1  0.80139889  0.16832688  0.48567994  1  0.063318  0  0.094178  0.131705  0  0.997682  0
H  H11  1  0.93872003  0.14025176  0.56450654  1  0.052021  0  0.09638  0.131603  0  0.982091  0
H  H12  1  0.67602107  0.14380602  0.62033607  1  0.059837  0  0.105176  0.107845  0  0.964935  0
H  H13  1  0.36643838  0.24167991  0.99112772  1  0.045373  0  0.084643  0.114837  0  1.006838  0
H  H14  1  0.78718176  0.03576987  0.63642194  1  0.047025  0  0.100826  0.099466  0  0.986959  0
H  H15  1  0.38769890  0.18495375  0.32805477  1  0.050466  0  0.094156  0.127354  0  0.99382  0
H  H16  1  0.31099538  0.08822922  0.29204308  1  0.034279  0  0.086626  0.109635  0  1.011588  0
H  H17  1  0.19380222  0.19638062  0.30173695  1  0.066609  0  0.099933  0.135274  0  0.978867  0
H  H18  1  0.14556925  0.09326154  0.42066588  1  0.040461  0  0.099761  0.098743  0  0.991229  0
H  H19  1  0.22678544  0.18704278  0.45552972  1  0.084534  0  0.104556  0.109428  0  0.974686  0
H  H20  1  0.68893038  0.91176676  0.70802543  1  0.034318  0  0.08665  0.109511  0  1.011976  0
H  H21  1  0.61235750  0.81500425  0.67198763  1  0.050285  0  0.09411  0.127329  0  0.993793  0
H  H22  1  0.80623459  0.80366610  0.69831483  1  0.067651  0  0.099933  0.135281  0  0.978967  0
H  H23  1  0.77321596  0.81301174  0.54450150  1  0.085168  0  0.10449  0.109338  0  0.974588  0
H  H24  1  0.45971258  0.18625334  0.90530007  1  0.008717  0  0.085087  0.109898  0  1.002638  0
H  H25  1  0.85440622  0.90681300  0.57940782  1  0.041234  0  0.099915  0.098701  0  0.991406  0
H  H26  1  0.37674414  0.34879511  0.86588954  1  0.042346  0  0.101063  0.101716  0  0.955559  0
H  H27  1  0.57175925  0.32287514  0.86438788  1  0.047982  0  0.099373  0.099385  0  0.960145  0
H  H28  1  0.63339155  0.75828341  0.00885199  1  0.043154  0  0.084745  0.114929  0  1.006644  0
H  H29  1  0.43430012  0.78401563  0.00906137  1  0.040292  0  0.08432  0.113604  0  1.007377  0
H  H30  1  0.54009238  0.81371193  0.09468455  1  0.009789  0  0.084937  0.109625  0  1.002491  0
H  H31  1  0.42812426  0.67706529  0.13560948  1  0.048177  0  0.099379  0.09935  0  0.960394  0
C  C32  1  0.49795635  0.49812782  0.33874246  1  1.72929  0  0.217092  0.664631  0  4.245111  0
C  C33  1  0.79212252  0.46974893  0.49991126  1  1.616765  0  0.205104  0.552862  0  4.254397  0
C  C34  1  0.04010659  0.53572476  0.50045465  1  0.515458  0  0.091402  0.059833  0  3.960713  0
C  C35  1  0.95991335  0.46427193  0.49952840  1  0.619342  0  0.091323  0.0601  0  3.960178  0
C  C36  1  0.48778933  0.41510455  0.95735650  1  0.04559  0  -0.00637  -0.015998  0  3.931465  0
C  C37  1  0.51213215  0.58484004  0.04264391  1  0.036607  0  -0.005931  -0.015142  0  3.931093  0
C  C38  1  0.50041389  0.49909639  0.91361861  1  0.141576  0  -0.007648  -0.016465  0  4.134539  0
C  C39  1  0.49951427  0.50084820  0.08638181  1  0.152175  0  -0.008161  -0.016981  0  4.134461  0
C  C40  1  0.51205144  0.58001307  0.95681837  1  0.484445  0  0.100101  0.175039  0  4.028648  0
C  C41  1  0.48783724  0.41993354  0.04318077  1  0.483968  0  0.100495  0.175431  0  4.027769  0
C  C42  1  0.50139816  0.50218036  0.82621007  1  -0.345481  0  -0.034688  -0.038126  0  4.155467  0
C  C43  1  0.50205736  0.50189893  0.66125754  1  1.727698  0  0.216947  0.664469  0  4.245415  0
C  C44  1  0.49853929  0.49777177  0.17379459  1  -0.345802  0  -0.034681  -0.038427  0  4.156141  0
C  C45  1  0.49798968  0.49748396  0.24925910  1  0.005729  0  -0.035942  -0.168275  0  3.938796  0
C  C46  1  0.50198874  0.50250969  0.75073760  1  0.005583  0  -0.036086  -0.168715  0  3.93839  0
C  C47  1  0.37499520  0.05816740  0.46082158  1  0.055161  0  0.013622  0.053235  0  3.905085  0
C  C48  1  0.62494753  0.94186872  0.53928482  1  0.059253  0  0.013176  0.053669  0  3.903484  0
C  C49  1  0.47542294  0.33097428  0.90713414  1  0.014454  0  -0.152077  -0.112834  0  3.963393  0
C  C50  1  0.46630535  0.23887112  0.95179404  1  -0.055174  0  -0.247345  -0.355689  0  3.993116  0
C  C51  1  0.52444858  0.66898761  0.09285426  1  0.011613  0  -0.152009  -0.112918  0  3.963389  0
C  C52  1  0.53352245  0.76108734  0.04818820  1  -0.050735  0  -0.247629  -0.355705  0  3.992998  0
C  C53  1  0.26796389  0.91692402  0.41196298  1  -0.037523  0  -0.156623  -0.154938  0  3.977266  0
C  C54  1  0.49130556  0.09257444  0.50397038  1  0.111672  0  0.010894  -0.060196  0  4.051717  0
C  C55  1  0.14910507  0.88664089  0.47090723  1  -0.068971  0  -0.239305  -0.353682  0  3.936074  0
C  C56  1  0.73199966  0.08312215  0.58811790  1  -0.035423  0  -0.156442  -0.154511  0  3.976488  0
C  C57  1  0.85089873  0.11332331  0.52917720  1  -0.072101  0  -0.239244  -0.353652  0  3.93674  0
C  C58  1  0.24995589  0.12391114  0.41966367  1  -0.025024  0  -0.156349  -0.15698  0  3.979862  0
C  C59  1  0.28802139  0.14968109  0.33004817  1  -0.102006  0  -0.234487  -0.347955  0  3.936801  0
C  C60  1  0.75004376  0.87612841  0.58040244  1  -0.025857  0  -0.156619  -0.15731  0  3.98023  0
C  C61  1  0.71198677  0.85032831  0.67000780  1  -0.10365  0  -0.234267  -0.347664  0  3.937523  0
C  C62  1  0.50863172  0.90746576  0.49613906  1  0.106134  0  0.011065  -0.059738  0  4.051149  0
C  C63  1  0.61524042  0.03779758  0.54395203  1  0.014884  0  0.013188  0.053998  0  3.896444  0
C  C64  1  0.38473797  0.96224251  0.45612211  1  0.015439  0  0.013053  0.053878  0  3.897556  0
C  C65  1  0.48656983  0.18947035  0.50625189  1  0.832781  0  0.24461  0.315604  0  3.969833  0
C  C66  1  0.51340549  0.81057749  0.49380977  1  0.833166  0  0.244676  0.315305  0  3.969862  0
C  C67  1  0.20789755  0.53024281  0.50007990  1  1.616312  0  0.205094  0.552895  0  4.254415  0
N  N68  1  0.51149096  0.73177427  0.49227538  1  -1.192649  0  -0.281002  -0.296412  0  3.11308  0
N  N69  1  0.48852029  0.26825397  0.50776362  1  -1.193923  0  -0.280966  -0.296583  0  3.113587  0
O  O70  1  0.51216353  0.41991745  0.37628185  1  -1.141294  0  -0.313937  -0.5426  0  2.252277  0
O  O71  1  0.48786901  0.58011418  0.62371624  1  -1.140232  0  -0.313777  -0.542485  0  2.252211  0
O  O72  1  0.48391200  0.57716428  0.37109027  1  -1.139961  0  -0.317482  -0.547874  0  2.252204  0
O  O73  1  0.51610052  0.42286730  0.62890905  1  -1.1396  0  -0.317537  -0.54772  0  2.252275  0
O  O74  1  0.28348982  0.45009784  0.50240450  1  -1.149616  0  -0.313358  -0.542998  0  2.381818  0
O  O75  1  0.71651681  0.54989872  0.49758536  1  -1.149062  0  -0.313449  -0.543155  0  2.381744  0
O  O76  1  0.25822101  0.60667777  0.49752420  1  -1.13272  0  -0.316826  -0.526236  0  2.295185  0
O  O77  1  0.74180795  0.39331870  0.50247434  1  -1.133398  0  -0.316762  -0.526143  0  2.29539  0
F  F78  1  0.96628993  0.62290214  0.50171196  1  -0.615202  0  -0.095531  -0.096374  0  1.423523  0
F  F79  1  0.03372672  0.37708977  0.49826743  1  -0.614361  0  -0.095624  -0.096557  0  1.423209  0
F  F80  1  0.47598741  0.34345548  0.09096001  1  -0.636876  0  -0.093989  -0.128228  0  1.379921  0
F  F81  1  0.52395040  0.65648157  0.90903927  1  -0.636296  0  -0.093852  -0.128169  0  1.380386  0
