# generated using pymatgen
data_Al6H40C95Cl8O33
_symmetry_space_group_name_H-M   'P 1'
_cell_length_a   12.37141147
_cell_length_b   12.22573414
_cell_length_c   27.89734165
_cell_angle_alpha   94.31968082
_cell_angle_beta   90.25510736
_cell_angle_gamma   121.32353637
_symmetry_Int_Tables_number   1
_chemical_formula_structural   Al6H40C95Cl8O33
_chemical_formula_sum   'Al6 H40 C95 Cl8 O33'
_cell_volume   3589.50281303
_cell_formula_units_Z   1
loop_
 _symmetry_equiv_pos_site_id
 _symmetry_equiv_pos_as_xyz
  1  'x, y, z'
loop_
 _atom_site_type_symbol
 _atom_site_label
 _atom_site_symmetry_multiplicity
 _atom_site_fract_x
 _atom_site_fract_y
 _atom_site_fract_z
 _atom_site_occupancy
 _atom_site_pbe_bader_charge
 _atom_site_pbe_bader_spin_density
 _atom_site_pbe_cm5_charge
 _atom_site_pbe_ddec_charge
 _atom_site_pbe_ddec_spin_density
 _atom_site_pbe_ddec_sum_bond_order
 _atom_site_pbe_magmom
Al  Al0  1  0.41089872  0.81237990  0.49503826  1  2.495313  0  0.3973  1.696082  0  2.543281  0
Al  Al1  1  0.66285684  0.08842035  0.50268216  1  2.482701  0  0.509094  1.66568  0  2.495206  0
Al  Al2  1  0.41429958  0.07773824  0.50525113  1  2.481871  0  0.505213  1.65908  0  2.508636  0
Al  Al3  1  0.90581191  0.83659834  0.01021136  1  2.492348  0  0.400058  1.682195  0  2.562151  0
Al  Al4  1  0.90864566  0.57632914  0.00555386  1  2.482954  0  0.505891  1.666106  0  2.507929  0
Al  Al5  1  0.65549278  0.55751421  0.00603079  1  2.481702  0  0.509925  1.665632  0  2.48959  0
H  H6  1  0.87460059  0.47282650  0.32034762  1  0.109377  0  0.103525  0.105109  0  1.032274  0
H  H7  1  0.98248472  0.47408595  0.70986264  1  0.069982  0  0.092153  0.093719  0  1.048238  0
H  H8  1  0.49051995  0.29657589  0.87949464  1  0.097978  0  0.114779  0.124554  0  0.98307  0
H  H9  1  0.35640638  0.20867463  0.80285276  1  0.060546  0  0.106836  0.117396  0  0.987753  0
H  H10  1  0.34019477  0.17396662  0.71394073  1  0.091758  0  0.093052  0.0967  0  1.046755  0
H  H11  1  0.44264315  0.18808036  0.63647099  1  0.138372  0  0.114094  0.126307  0  1.000646  0
H  H12  1  0.27344094  0.73931567  0.70743928  1  0.092557  0  0.115319  0.137661  0  0.999886  0
H  H13  1  0.71640959  0.03303931  0.73302664  1  0.077754  0  0.113399  0.120893  0  0.979508  0
H  H14  1  0.69747897  0.97812347  0.81787841  1  0.066496  0  0.116318  0.122493  0  0.971741  0
H  H15  1  0.58859962  0.58923192  0.76887854  1  0.096102  0  0.110649  0.11664  0  0.989861  0
H  H16  1  0.60646537  0.64386416  0.68398596  1  0.1009  0  0.116076  0.124185  0  0.973276  0
H  H17  1  0.25179829  0.04874317  0.37957831  1  0.133717  0  0.108247  0.12067  0  1.026021  0
H  H18  1  0.46663819  0.26530990  0.29741079  1  0.094441  0  0.104993  0.121023  0  1.026775  0
H  H19  1  0.08229366  0.61025063  0.12969210  1  0.111126  0  0.114351  0.123596  0  0.990173  0
H  H20  1  0.14132284  0.54085155  0.20183947  1  0.062139  0  0.11065  0.125999  0  1.001048  0
H  H21  1  0.09113786  0.96663611  0.14042219  1  0.142018  0  0.110741  0.126266  0  1.017004  0
H  H22  1  0.74567961  0.10841098  0.07727199  1  0.046538  0  0.101323  0.103084  0  0.978568  0
H  H23  1  0.65055072  0.93670753  0.06471763  1  0.046625  0  0.097669  0.091436  0  1.001988  0
H  H24  1  0.81487068  0.02216640  0.04957356  1  0.165187  0  0.111638  0.140993  0  1.017433  0
H  H25  1  0.72279701  0.16352738  0.37491685  1  0.051637  0  0.092124  0.087055  0  1.036373  0
H  H26  1  0.86056978  0.24878385  0.34109271  1  0.044209  0  0.082588  0.073005  0  1.044147  0
H  H27  1  0.87416086  0.26259207  0.40568751  1  0.071327  0  0.10687  0.119817  0  0.975528  0
H  H28  1  0.90293621  0.15078423  0.29335416  1  0.07211  0  0.101184  0.115789  0  1.069133  0
H  H29  1  0.04284234  0.27363040  0.24749797  1  0.06421  0  0.077045  0.070001  0  1.091806  0
H  H30  1  0.91382353  0.30076684  0.24720688  1  0.05062  0  0.088315  0.086962  0  1.037682  0
H  H31  1  0.01483444  0.33970905  0.19713627  1  0.049938  0  0.102403  0.112898  0  0.987834  0
H  H32  1  0.40160969  0.71942660  0.76149561  1  0.075268  0  0.096283  0.094567  0  1.032177  0
H  H33  1  0.25405743  0.57034724  0.74712298  1  0.039624  0  0.102414  0.103383  0  0.980696  0
H  H34  1  0.34207639  0.59745773  0.80273170  1  0.08642  0  0.114735  0.127294  0  0.96675  0
H  H35  1  0.92453545  0.80138940  0.83807977  1  0.053508  0  0.095352  0.098708  0  1.006818  0
H  H36  1  0.89071585  0.86577112  0.78793936  1  0.061732  0  0.085981  0.081647  0  1.045399  0
H  H37  1  0.92832360  0.94965469  0.84720034  1  0.083143  0  0.112231  0.128778  0  0.962904  0
H  H38  1  0.53129767  0.57871184  0.13305288  1  0.10415  0  0.108911  0.118606  0  0.998431  0
H  H39  1  0.44508868  0.49303265  0.21054806  1  0.054155  0  0.089646  0.092172  0  1.034795  0
H  H40  1  0.44811204  0.52346836  0.29888130  1  0.083239  0  0.08354  0.086573  0  1.065281  0
H  H41  1  0.89665192  0.49171699  0.23230690  1  0.119839  0  0.104111  0.10567  0  1.037324  0
H  H42  1  0.89473720  0.46857311  0.87684279  1  0.113604  0  0.1131  0.12312  0  1.005355  0
H  H43  1  0.99858007  0.50227759  0.79868469  1  0.080214  0  0.104653  0.112151  0  1.005482  0
H  H44  1  0.32843404  0.60386544  0.51758064  1  0.577182  0  0.292917  0.383386  0  0.922208  0
H  H45  1  0.02378564  0.04639039  0.98658777  1  0.585559  0  0.295796  0.382906  0  0.922638  0
C  C46  1  0.63204752  0.90993946  0.42852568  1  1.56714  0  0.270636  0.663039  0  4.052865  0
C  C47  1  0.16147482  0.72704443  0.30427724  1  0.000327  0  -0.011282  -0.048888  0  3.970491  0
C  C48  1  0.12366401  0.70814196  0.20155732  1  0.013132  0  -0.006033  0.089814  0  4.060561  0
C  C49  1  0.60497702  0.24563337  0.44723367  1  1.647604  0  0.285737  0.717695  0  4.149875  0
C  C50  1  0.13914810  0.61638171  0.22431198  1  0.081883  0  -0.093614  -0.208569  0  3.998837  0
C  C51  1  0.15726054  0.62455717  0.27317201  1  0.013252  0  0.015908  0.111992  0  4.036457  0
C  C52  1  0.09687750  0.69464684  0.15181396  1  -0.058305  0  -0.072405  -0.132156  0  3.90889  0
C  C53  1  0.08520607  0.78801631  0.13057421  1  0.014521  0  -0.012249  -0.032595  0  4.010393  0
C  C54  1  0.22024084  0.95810973  0.35821601  1  -0.012723  0  -0.077624  -0.115826  0  3.939332  0
C  C55  1  0.18734487  0.94354065  0.30908408  1  -0.006545  0  -0.012646  0.024074  0  4.029362  0
C  C56  1  0.16350819  0.82944504  0.28108240  1  0.03703  0  0.009456  0.035253  0  3.908487  0
C  C57  1  0.57413652  0.32271539  0.23399711  1  0.021234  0  0.030114  0.121815  0  4.010665  0
C  C58  1  0.18046580  0.04089106  0.28561711  1  0.080484  0  0.008408  0.028438  0  4.046893  0
C  C59  1  0.15088953  0.02554455  0.23703737  1  0.147186  0  0.005905  0.019329  0  4.081702  0
C  C60  1  0.13142428  0.91410577  0.20778001  1  -0.029088  0  -0.008904  0.030135  0  4.037508  0
C  C61  1  0.26941376  0.88704708  0.43157462  1  1.591395  0  0.274568  0.64813  0  4.086338  0
C  C62  1  0.14008195  0.81769718  0.23041577  1  0.03784  0  0.004434  0.00692  0  3.919491  0
C  C63  1  0.10257232  0.89675227  0.15816591  1  -0.028135  0  -0.075631  -0.125405  0  3.911925  0
C  C64  1  0.21289909  0.85752973  0.38136113  1  0.076124  0  -0.015069  -0.093333  0  3.965423  0
C  C65  1  0.75106884  0.97584517  0.35188870  1  0.572437  0  0.091661  0.203413  0  3.983714  0
C  C66  1  0.75096538  0.95712030  0.30120465  1  -0.04083  0  -0.021122  -0.00434  0  4.078696  0
C  C67  1  0.73759576  0.92573806  0.19803993  1  -0.00164  0  -0.017884  -0.127235  0  3.944866  0
C  C68  1  0.56074417  0.31419806  0.28321787  1  0.082959  0  -0.075658  -0.172824  0  3.896707  0
C  C69  1  0.82167905  0.04900850  0.22458307  1  0.474831  0  0.083944  0.232916  0  4.055863  0
C  C70  1  0.83256531  0.06057539  0.27403282  1  0.053572  0  -0.127892  -0.290197  0  4.037196  0
C  C71  1  0.72764232  0.90583723  0.14658082  1  0.624514  0  0.116043  0.240781  0  3.96538  0
C  C72  1  0.65912548  0.77798787  0.12389301  1  -0.014323  0  -0.036703  -0.189301  0  4.022857  0
C  C73  1  0.63274972  0.90884035  0.56529694  1  1.70018  0  0.279154  0.714211  0  4.159224  0
C  C74  1  0.58433184  0.75208134  0.35440961  1  0.044116  0  0.017857  0.089005  0  3.967603  0
C  C75  1  0.58524880  0.72911869  0.30397616  1  0.027628  0  -0.021688  0.003043  0  4.028933  0
C  C76  1  0.66512331  0.83490160  0.27685288  1  0.004181  0  -0.001607  0.017077  0  3.935002  0
C  C77  1  0.50736842  0.60466071  0.27839118  1  -0.050109  0  -0.109696  -0.139877  0  4.061007  0
C  C78  1  0.50570340  0.58815002  0.22944442  1  -0.020377  0  -0.099755  -0.127898  0  4.020585  0
C  C79  1  0.66918287  0.36695375  0.31462034  1  0.158842  0  0.014387  0.146949  0  4.077369  0
C  C80  1  0.58172382  0.69313702  0.20134368  1  0.04015  0  -0.022001  0.054197  0  4.067708  0
C  C81  1  0.66279529  0.81867358  0.22540513  1  -0.018918  0  0.004937  0.034653  0  3.91532  0
C  C82  1  0.58395354  0.67538904  0.15140839  1  -0.093435  0  -0.081582  -0.120116  0  3.962293  0
C  C83  1  0.66014576  0.87751589  0.37888650  1  0.010151  0  -0.026607  -0.212537  0  3.916676  0
C  C84  1  0.76398183  0.34859676  0.65318414  1  0.008013  0  0.025943  0.088256  0  3.970419  0
C  C85  1  0.61877140  0.23072745  0.57701331  1  1.576884  0  0.275681  0.661345  0  4.065791  0
C  C86  1  0.77683806  0.37180642  0.70400240  1  0.017443  0  -0.013382  0.009928  0  4.011324  0
C  C87  1  0.79541725  0.40683113  0.80682926  1  0.01038  0  -0.008014  0.076059  0  4.046026  0
C  C88  1  0.90613475  0.45309803  0.77934187  1  0.037299  0  -0.087564  -0.122479  0  3.981222  0
C  C89  1  0.89733346  0.43745865  0.73019690  1  -0.088897  0  -0.09646  -0.124389  0  4.016698  0
C  C90  1  0.69558639  0.38631121  0.21468414  1  0.134042  0  0.004436  0.065976  0  4.068671  0
C  C91  1  0.80286678  0.42172104  0.85726842  1  -0.045726  0  -0.075478  -0.13834  0  3.909768  0
C  C92  1  0.69327338  0.38179413  0.88299852  1  -0.033014  0  -0.015939  -0.04707  0  4.020823  0
C  C93  1  0.53503082  0.24040735  0.65580700  1  -0.044621  0  -0.074578  -0.125536  0  3.915806  0
C  C94  1  0.54286833  0.26273902  0.70602377  1  0.032567  0  -0.011696  0.067941  0  4.051638  0
C  C95  1  0.66472225  0.32650424  0.73060002  1  -0.008507  0  0.003823  0.010593  0  3.924719  0
C  C96  1  0.43235087  0.22159661  0.73337167  1  -0.074354  0  -0.090576  -0.124794  0  3.998008  0
C  C97  1  0.27766539  0.89950187  0.56847672  1  1.660046  0  0.274932  0.703233  0  4.17164  0
C  C98  1  0.44136586  0.24088854  0.78246306  1  -0.045101  0  -0.089016  -0.133535  0  3.99146  0
C  C99  1  0.56216378  0.30261735  0.80839700  1  -0.037786  0  -0.007272  0.071858  0  4.041435  0
C  C100  1  0.67411981  0.34515450  0.78182753  1  -0.009781  0  0.004018  -0.00075  0  3.908027  0
C  C101  1  0.70741217  0.39460225  0.16459159  1  -0.477046  0  -0.007712  0.009894  0  4.068  0
C  C102  1  0.57417007  0.32415724  0.85881983  1  0.023607  0  -0.073226  -0.134191  0  3.912623  0
C  C103  1  0.64304845  0.27943534  0.62912361  1  0.035221  0  -0.01793  -0.102987  0  3.97264  0
C  C104  1  0.22994885  0.87990386  0.61591153  1  0.309029  0  -0.028528  -0.174735  0  3.9258  0
C  C105  1  0.23112412  0.78225034  0.72989866  1  0.017505  0  -0.10073  -0.263956  0  3.948865  0
C  C106  1  0.21640543  0.76535264  0.77870045  1  0.514314  0  0.09646  0.232724  0  4.065378  0
C  C107  1  0.12413336  0.90107711  0.78510637  1  0.589117  0  0.091732  0.176607  0  4.054084  0
C  C108  1  0.13577534  0.91449650  0.73567984  1  0.060455  0  0.005995  -0.022569  0  4.024637  0
C  C109  1  0.63613419  0.31435010  0.40504391  1  0.239821  0  -0.028888  -0.196824  0  3.914385  0
C  C110  1  0.19040577  0.85591394  0.70794661  1  0.125952  0  0.000672  0.109527  0  4.138782  0
C  C111  1  0.16173418  0.82422432  0.80689175  1  0.163433  0  -0.011533  -0.075514  0  4.093502  0
C  C112  1  0.65307388  0.34466418  0.36384667  1  -0.491223  0  0.004301  0.012732  0  4.01822  0
C  C113  1  0.13914066  0.80390457  0.85571346  1  -0.433271  0  -0.013677  0.019913  0  4.118202  0
C  C114  1  0.20838849  0.87070164  0.65843532  1  -0.541652  0  -0.023577  -0.024468  0  4.10029  0
C  C115  1  0.11064086  0.78625815  0.89741019  1  0.215729  0  -0.032579  -0.194876  0  3.917071  0
C  C116  1  0.66532553  0.89049307  0.61243307  1  0.233662  0  -0.030664  -0.180239  0  3.919268  0
C  C117  1  0.68811246  0.93605690  0.74106184  1  -0.012929  0  -0.074795  -0.118771  0  3.949676  0
C  C118  1  0.67708194  0.90536833  0.78836252  1  -0.009712  0  -0.073259  -0.117269  0  3.953312  0
C  C119  1  0.61581505  0.68592929  0.76082003  1  -0.043585  0  -0.076618  -0.121973  0  3.959661  0
C  C120  1  0.62634199  0.71645549  0.71349499  1  -0.006823  0  -0.074456  -0.119045  0  3.944662  0
C  C121  1  0.79092356  0.43215247  0.29598254  1  -0.035819  0  -0.074663  -0.119669  0  3.928097  0
C  C122  1  0.66286608  0.84198691  0.70286100  1  0.032931  0  0.005325  0.123337  0  4.117436  0
C  C123  1  0.71260403  0.40118374  0.12116805  1  0.270946  0  -0.031302  -0.195278  0  3.923183  0
C  C124  1  0.64145554  0.78011345  0.79900537  1  0.118385  0  0.003844  0.113799  0  4.12776  0
C  C125  1  0.63899054  0.75267303  0.84748984  1  -0.149031  0  -0.017265  -0.030181  0  4.078817  0
C  C126  1  0.66853125  0.87073205  0.65444591  1  -0.495063  0  -0.016926  -0.027326  0  4.073648  0
C  C127  1  0.64669435  0.73555836  0.88955548  1  -0.133327  0  -0.032702  -0.186015  0  3.922719  0
C  C128  1  0.04277457  0.76759470  0.07895615  1  1.549696  0  0.274214  0.639243  0  4.087951  0
C  C129  1  0.72625441  0.43483891  0.07251451  1  1.628667  0  0.283905  0.721043  0  4.152915  0
C  C130  1  0.68500268  0.74554784  0.07483483  1  1.5467  0  0.266734  0.642001  0  4.108518  0
C  C131  1  0.05060472  0.75779437  0.94243621  1  1.644281  0  0.275598  0.70856  0  4.167207  0
C  C132  1  0.70949567  0.41628796  0.93585699  1  1.535616  0  0.280873  0.654129  0  4.067976  0
C  C133  1  0.80305544  0.44180172  0.24687043  1  -0.058377  0  -0.069621  -0.086372  0  3.930022  0
C  C134  1  0.16881238  0.73699487  0.35526304  1  0.089209  0  0.032872  0.107268  0  3.969506  0
C  C135  1  0.68239701  0.72264800  0.93714009  1  1.659865  0  0.273296  0.705753  0  4.172736  0
C  C136  1  0.74621264  0.01859955  0.07519911  1  0.333976  0  -0.131818  -0.1657  0  3.851268  0
C  C137  1  0.82380114  0.19748972  0.37354898  1  0.377573  0  -0.145012  -0.164189  0  3.91322  0
C  C138  1  0.96976972  0.27262200  0.22466843  1  0.384605  0  -0.154735  -0.190471  0  3.967023  0
C  C139  1  0.31574248  0.64255328  0.77636721  1  0.373917  0  -0.132967  -0.177362  0  3.898365  0
C  C140  1  0.94722190  0.88962513  0.82180351  1  0.363124  0  -0.140838  -0.170644  0  3.885567  0
Cl  Cl141  1  0.13585847  0.13774838  0.20952835  1  -0.168338  0  0.043946  -0.009012  0  1.769027  0
Cl  Cl142  1  0.20775074  0.17690986  0.31993254  1  -0.187233  0  0.028876  -0.028035  0  1.576001  0
Cl  Cl143  1  0.49052560  0.62025266  0.38571808  1  -0.167391  0  0.015507  -0.038406  0  1.617091  0
Cl  Cl144  1  0.89967250  0.41139763  0.62130111  1  -0.169901  0  0.01794  -0.040708  0  1.530085  0
Cl  Cl145  1  0.44136101  0.25356175  0.19591541  1  -0.176393  0  0.025469  -0.054224  0  1.621968  0
Cl  Cl146  1  0.08289374  0.00204325  0.70925052  1  -0.186644  0  0.015765  -0.040921  0  1.545763  0
Cl  Cl147  1  0.11221936  0.60291969  0.38608984  1  -0.13657  0  0.046019  -0.008174  0  1.665808  0
Cl  Cl148  1  0.19497710  0.51940763  0.29509917  1  -0.186244  0  0.026944  -0.045444  0  1.686592  0
O  O149  1  0.30314559  0.81363870  0.44591746  1  -1.238804  0  -0.20725  -0.549375  0  2.426042  0
O  O150  1  0.63843421  0.44590427  0.05356749  1  -1.239594  0  -0.225941  -0.586136  0  2.24357  0
O  O151  1  0.60472767  0.63327519  0.05325722  1  -1.280671  0  -0.254018  -0.620321  0  2.272538  0
O  O152  1  0.52882529  0.82949950  0.44554374  1  -1.247792  0  -0.216555  -0.572595  0  2.42009  0
O  O153  1  0.79083197  0.81087867  0.95386151  1  -1.210988  0  -0.210863  -0.55696  0  2.288005  0
O  O154  1  0.02158853  0.83595003  0.96129569  1  -1.221367  0  -0.212967  -0.57013  0  2.28572  0
O  O155  1  0.02596930  0.65138871  0.95867401  1  -1.250305  0  -0.241664  -0.60336  0  2.234752  0
O  O156  1  0.81420092  0.44354894  0.95660840  1  -1.266771  0  -0.23577  -0.600578  0  2.304  0
O  O157  1  0.62257129  0.42554226  0.95709635  1  -1.26237  0  -0.234173  -0.593771  0  2.272761  0
O  O158  1  0.60383136  0.62151637  0.95753291  1  -1.256499  0  -0.242542  -0.602843  0  2.236225  0
O  O159  1  0.82228324  0.65409648  0.00618230  1  -1.611544  0  -0.391299  -1.269952  0  2.293079  0
O  O160  1  0.69819498  0.20777219  0.55682117  1  -1.258291  0  -0.232582  -0.596341  0  2.360436  0
O  O161  1  0.70920111  0.02258839  0.45058074  1  -1.270745  0  -0.245409  -0.609998  0  2.299874  0
O  O162  1  0.68558741  0.22093258  0.46394708  1  -1.236068  0  -0.218793  -0.586478  0  2.282884  0
O  O163  1  0.49495714  0.20733366  0.46310399  1  -1.237809  0  -0.225229  -0.580746  0  2.244393  0
O  O164  1  0.28982977  0.99147249  0.45511732  1  -1.2763  0  -0.243905  -0.600803  0  2.274056  0
O  O165  1  0.30323221  0.81975363  0.54918307  1  -1.201952  0  -0.207631  -0.547176  0  2.274187  0
O  O166  1  0.52352244  0.82383682  0.54794839  1  -1.223127  0  -0.209268  -0.564699  0  2.296729  0
O  O167  1  0.71308280  0.01071748  0.54588290  1  -1.251275  0  -0.237084  -0.592678  0  2.232266  0
O  O168  1  0.78553253  0.01173189  0.12292117  1  -1.058184  0  -0.161708  -0.122539  0  2.652023  0
O  O169  1  0.84343721  0.09158123  0.37421684  1  -1.068062  0  -0.205742  -0.177974  0  2.557877  0
O  O170  1  0.89071615  0.15082611  0.19853020  1  -1.05928  0  -0.181732  -0.142768  0  2.651555  0
O  O171  1  0.51399339  0.20500078  0.55698973  1  -1.268458  0  -0.235931  -0.597218  0  2.300929  0
O  O172  1  0.25046011  0.69441724  0.80254363  1  -1.075309  0  -0.176556  -0.145979  0  2.573669  0
O  O173  1  0.08056370  0.96505929  0.81294546  1  -1.079184  0  -0.207679  -0.189021  0  2.55745  0
O  O174  1  0.29557658  0.00252948  0.55086697  1  -1.249069  0  -0.244831  -0.605717  0  2.222371  0
O  O175  1  0.49636419  0.99541994  0.50196281  1  -1.611056  0  -0.391311  -1.269461  0  2.297161  0
O  O176  1  0.78924575  0.82461332  0.05786617  1  -1.250625  0  -0.212437  -0.563844  0  2.416415  0
O  O177  1  0.01295977  0.84316631  0.06342784  1  -1.235252  0  -0.209086  -0.549424  0  2.347337  0
O  O178  1  0.03374668  0.66952866  0.05396329  1  -1.281001  0  -0.249786  -0.617952  0  2.287103  0
O  O179  1  0.82830103  0.45798404  0.05260437  1  -1.244485  0  -0.230821  -0.594335  0  2.247629  0
O  O180  1  0.32579527  0.64391581  0.48938123  1  -1.359057  0  -0.574129  -0.99423  0  1.82424  0
O  O181  1  0.97524083  0.00442213  0.01361884  1  -1.368836  0  -0.563424  -0.983653  0  1.835633  0
