# generated using pymatgen
data_CoH9C13NO5
_symmetry_space_group_name_H-M   'P 1'
_cell_length_a   7.13354288
_cell_length_b   10.11013201
_cell_length_c   9.97993996
_cell_angle_alpha   112.87654948
_cell_angle_beta   96.86280000
_cell_angle_gamma   107.48757429
_symmetry_Int_Tables_number   1
_chemical_formula_structural   CoH9C13NO5
_chemical_formula_sum   'Co2 H18 C26 N2 O10'
_cell_volume   609.20266939
_cell_formula_units_Z   2
loop_
 _symmetry_equiv_pos_site_id
 _symmetry_equiv_pos_as_xyz
  1  'x, y, z'
loop_
 _atom_site_type_symbol
 _atom_site_label
 _atom_site_symmetry_multiplicity
 _atom_site_fract_x
 _atom_site_fract_y
 _atom_site_fract_z
 _atom_site_occupancy
 _atom_site_hle17_ddec_charge
 _atom_site_hle17_ddec_spin_density
 _atom_site_hle17_ddec_sum_bond_order
 _atom_site_hle17_magmom
 _atom_site_hse06_10hf_ddec_charge
 _atom_site_hse06_10hf_ddec_spin_density
 _atom_site_hse06_10hf_ddec_sum_bond_order
 _atom_site_hse06_10hf_magmom
 _atom_site_hse06_ddec_charge
 _atom_site_hse06_ddec_spin_density
 _atom_site_hse06_ddec_sum_bond_order
 _atom_site_hse06_magmom
 _atom_site_pbe_cm5_charge
 _atom_site_pbe_ddec_charge
 _atom_site_pbe_ddec_spin_density
 _atom_site_pbe_ddec_sum_bond_order
 _atom_site_pbe_magmom
Co  Co0  1  0.07717617  0.87698087  0.37642350  1  1.024919  -2.852017  1.864702  -2.589  0.988224  -2.846604  2.265234  -2.655  1.066345  -2.883088  2.196826  -2.726  0.651686  0.919428  -2.815204  2.329818  -2.591
Co  Co1  1  0.92282813  0.12302694  0.62358193  1  1.024871  -2.852  1.864775  -2.589  0.988165  -2.846597  2.265346  -2.655  1.066299  -2.88308  2.196911  -2.726  0.651664  0.91938  -2.815273  2.329915  -2.591
H  H2  1  0.94795900  0.59611388  0.09102175  1  0.088828  -0.000267  0.936539  -0.002  0.098783  -0.000264  0.996416  -0.001  0.101496  -0.00014  0.993453  -0.001  0.121139  0.096717  -0.000388  0.998725  -0.001
H  H3  1  0.05205383  0.40389166  0.90899266  1  0.088839  -0.000267  0.936588  -0.002  0.098819  -0.000264  0.996455  -0.001  0.10145  -0.00014  0.993593  -0.001  0.121149  0.096754  -0.000389  0.998756  -0.001
H  H4  1  0.73879457  0.95344948  0.24830441  1  0.095321  -0.000168  0.97494  -0.002  0.099452  -0.000107  1.043785  -0.001  0.102268  4.7e-05  1.04065  -0.001  0.117928  0.097206  -0.000284  1.046128  -0.001
H  H5  1  0.26120999  0.04654443  0.75170256  1  0.095313  -0.000168  0.974882  -0.002  0.09949  -0.000107  1.04368  -0.001  0.102305  4.7e-05  1.040546  -0.001  0.117915  0.097236  -0.000284  1.04603  -0.001
H  H6  1  0.11782406  0.42167971  0.32904389  1  0.111281  -0.000255  0.938712  0.0  0.118901  -0.000167  1.0036  0.0  0.12269  -0.0001  1.000907  0.0  0.110683  0.116175  -0.000246  1.005521  0.0
H  H7  1  0.88220108  0.57831381  0.67093292  1  0.11125  -0.000253  0.938929  0.0  0.118924  -0.000167  1.003756  0.0  0.122708  -0.0001  1.001058  0.0  0.110701  0.116212  -0.000246  1.005654  0.0
H  H8  1  0.38480444  0.34719784  0.68891094  1  0.101232  4.5e-05  0.95859  0.0  0.109379  1.4e-05  1.024368  0.0  0.112312  5.2e-05  1.022655  0.0  0.107987  0.107467  2.1e-05  1.025216  0.0
H  H9  1  0.61519036  0.65281673  0.31109620  1  0.101194  4.4e-05  0.958575  0.0  0.109334  1.4e-05  1.024362  0.0  0.112267  5.2e-05  1.022649  0.0  0.107967  0.107422  2e-05  1.025207  0.0
H  H10  1  0.45038609  0.80971974  0.76203302  1  0.097913  -0.000258  0.958973  0.0  0.107973  -0.000288  1.022491  0.0  0.111691  -0.000196  1.019239  0.0  0.108075  0.104982  -0.000376  1.025362  0.0
H  H11  1  0.54959968  0.19028438  0.23796407  1  0.097923  -0.00026  0.959027  0.0  0.107946  -0.000288  1.022575  0.0  0.111663  -0.000196  1.019327  0.0  0.108101  0.104953  -0.000376  1.025441  0.0
H  H12  1  0.48266654  0.84364075  0.00356574  1  0.109479  -0.000257  0.939491  0.0  0.121786  -0.000399  0.99402  0.0  0.125284  -0.000264  0.992604  0.0  0.109496  0.119003  -0.00054  0.995803  0.0
H  H13  1  0.51732278  0.15634003  0.99645152  1  0.109554  -0.000256  0.93944  0.0  0.121792  -0.0004  0.994046  0.0  0.125287  -0.000264  0.992633  0.0  0.109492  0.11901  -0.00054  0.995827  0.0
H  H14  1  0.70837746  0.47393293  0.83572932  1  0.116287  -0.000174  0.95552  0.0  0.124822  -0.000235  1.018195  0.0  0.128345  -0.000134  1.017225  0.0  0.108912  0.122195  -0.000329  1.018893  0.0
H  H15  1  0.29162955  0.52606089  0.16428788  1  0.116248  -0.000176  0.955611  0.0  0.124786  -0.000235  1.018291  0.0  0.128309  -0.000134  1.017326  0.0  0.108856  0.122158  -0.000329  1.018986  0.0
H  H16  1  0.44001750  0.99658335  0.32767354  1  0.424672  -0.000238  0.874345  0.0  0.397695  -0.000707  0.932704  -0.001  0.408481  -0.000465  0.917279  -0.001  0.291747  0.389952  -0.000949  0.943542  -0.002
H  H17  1  0.55994260  0.00341938  0.67230737  1  0.42442  -0.000238  0.874569  0.0  0.39746  -0.000708  0.932916  -0.001  0.408257  -0.000465  0.917476  -0.001  0.291573  0.389714  -0.000951  0.943755  -0.002
H  H18  1  0.24689399  0.99908648  0.23332549  1  0.409209  0.001269  0.891653  0.001  0.381997  0.000587  0.957387  0.0  0.392654  0.000689  0.942038  0.0  0.291676  0.374534  0.000446  0.96802  0.0
H  H19  1  0.75312352  0.00091445  0.76669359  1  0.409244  0.001273  0.891516  0.001  0.38199  0.000588  0.957393  0.0  0.39266  0.00069  0.942028  0.0  0.291569  0.374517  0.000446  0.968042  0.0
C  C20  1  0.84299242  0.64729115  0.06495789  1  0.134602  0.013959  3.691486  0.009  0.107819  0.001243  3.945031  0.0  0.117077  0.00069  3.962076  0.0  0.048729  0.100882  0.002652  3.933814  0.001
C  C21  1  0.15702149  0.35271573  0.93504313  1  0.134706  0.013969  3.691653  0.009  0.107874  0.00125  3.945232  0.0  0.11719  0.000697  3.962294  0.0  0.048735  0.100938  0.002659  3.934012  0.001
C  C22  1  0.72679310  0.84757895  0.15360536  1  0.138905  0.015142  3.678833  0.01  0.109508  0.001876  3.937623  0.001  0.119863  0.001435  3.95231  0.001  0.046754  0.101745  0.002944  3.928357  0.001
C  C23  1  0.27320567  0.15241725  0.84639592  1  0.138869  0.015143  3.679075  0.01  0.109456  0.001883  3.937835  0.001  0.119809  0.001441  3.952532  0.001  0.046683  0.101703  0.002949  3.928559  0.001
C  C24  1  0.15901774  0.19656823  0.40068538  1  0.654997  0.007147  3.851175  0.006  0.609854  0.000518  4.1453  0.0  0.646566  0.000633  4.137292  0.0  0.218436  0.583688  0.000353  4.149162  0.0
C  C25  1  0.84096759  0.80343815  0.59931556  1  0.655267  0.007151  3.850492  0.006  0.610225  0.000521  4.144448  0.0  0.646943  0.000637  4.136438  0.0  0.218704  0.584056  0.000356  4.148315  0.0
C  C26  1  0.23867989  0.73317105  0.48217152  1  0.629764  0.011759  3.884645  0.009  0.583579  0.004493  4.17872  0.004  0.619087  0.003686  4.174651  0.003  0.203041  0.558536  0.004982  4.17926  0.004
C  C27  1  0.76132390  0.26681392  0.51781078  1  0.629228  0.011759  3.885243  0.009  0.583045  0.004489  4.179263  0.004  0.618554  0.003682  4.175207  0.003  0.202732  0.558008  0.004974  4.179788  0.004
C  C28  1  0.20553159  0.46752035  0.44516666  1  -0.04569  0.006235  3.67164  0.004  -0.082667  0.000742  3.920416  0.0  -0.078516  0.000532  3.938599  0.0  -0.065714  -0.085944  0.000267  3.909537  0.0
C  C29  1  0.79449581  0.53249036  0.55482522  1  -0.045663  0.006235  3.672224  0.004  -0.082722  0.000744  3.920973  0.0  -0.078558  0.000534  3.939155  0.0  -0.065752  -0.086004  0.00027  3.910112  0.0
C  C30  1  0.35633847  0.42696273  0.64862719  1  -0.07984  0.004622  3.670995  0.003  -0.119002  -0.000231  3.927743  0.0  -0.115594  -0.000101  3.944873  0.0  -0.071119  -0.120645  0.001935  3.915848  0.001
C  C31  1  0.64367142  0.57303839  0.35136713  1  -0.079773  0.004634  3.671276  0.003  -0.118945  -0.00023  3.928045  0.0  -0.115537  -0.0001  3.945182  0.0  -0.071154  -0.120581  0.001935  3.916138  0.001
C  C32  1  0.43687031  0.58649751  0.74414465  1  0.041775  -0.002035  3.761708  -0.004  0.059069  -0.000247  4.002535  -0.001  0.054924  -0.000194  4.024673  0.0  -0.003711  0.061377  -0.000373  3.987948  -0.001
C  C33  1  0.56315014  0.41350591  0.25586469  1  0.041646  -0.002038  3.762151  -0.004  0.058925  -0.000247  4.00295  -0.001  0.054775  -0.000194  4.025091  0.0  -0.00381  0.06123  -0.000373  3.988355  -0.001
C  C34  1  0.28051028  0.62723797  0.54053614  1  -0.075239  -0.003492  3.777924  -0.005  -0.048642  -0.001137  4.014394  -0.001  -0.059055  -0.000732  4.037602  -0.001  -0.021164  -0.04316  -0.001454  4.001019  -0.002
C  C35  1  0.71950062  0.37277702  0.45946077  1  -0.075058  -0.003497  3.777854  -0.005  -0.0484  -0.001135  4.014192  -0.001  -0.058818  -0.000732  4.03741  -0.001  -0.021  -0.042925  -0.001454  4.000813  -0.002
C  C36  1  0.57502923  0.65017909  0.89524226  1  0.114097  0.013247  3.760012  0.009  0.122763  0.001689  3.992206  0.001  0.129857  0.000401  4.013893  0.0  0.017345  0.117487  0.004343  3.978237  0.003
C  C37  1  0.42497790  0.34981478  0.10477196  1  0.114067  0.013268  3.759363  0.009  0.122779  0.001701  3.99149  0.001  0.129887  0.000404  4.013161  0.0  0.017361  0.117498  0.004355  3.977524  0.003
C  C38  1  0.23916263  0.36716906  0.50048483  1  -0.066436  -0.003814  3.771323  -0.006  -0.041796  -0.001447  4.006862  -0.002  -0.052008  -0.000967  4.029826  -0.002  -0.016428  -0.035493  -0.001921  3.992444  -0.003
C  C39  1  0.76083921  0.63282390  0.49950344  1  -0.066502  -0.003815  3.771648  -0.006  -0.041925  -0.001447  4.007182  -0.002  -0.052145  -0.00097  4.03016  -0.002  -0.016439  -0.035626  -0.00192  3.992768  -0.003
C  C40  1  0.39193653  0.68534305  0.68981398  1  -0.068862  0.004385  3.657651  0.003  -0.10601  -0.000421  3.906546  -0.001  -0.102311  -0.000258  3.923175  0.0  -0.06852  -0.108526  0.000762  3.896537  0.0
C  C41  1  0.60807574  0.31465457  0.31018522  1  -0.068706  0.004395  3.657903  0.003  -0.105861  -0.000424  3.906776  -0.001  -0.10216  -0.000259  3.923409  0.0  -0.068452  -0.108366  0.000762  3.896751  0.0
C  C42  1  0.58597157  0.78614913  0.01551549  1  -0.147123  -0.007355  3.687328  -0.01  -0.162724  -0.001775  3.928351  -0.003  -0.171192  -0.001238  3.94743  -0.002  -0.07836  -0.158103  -0.002294  3.917498  -0.004
C  C43  1  0.41401340  0.21382963  0.98447348  1  -0.147158  -0.007363  3.687119  -0.01  -0.16273  -0.001777  3.928173  -0.003  -0.171198  -0.001239  3.947251  -0.002  -0.078292  -0.158105  -0.002295  3.917316  -0.004
C  C44  1  0.70664479  0.57925956  0.92368901  1  -0.1606  -0.007312  3.692033  -0.01  -0.177891  -0.001825  3.939881  -0.003  -0.186939  -0.001252  3.960466  -0.002  -0.080888  -0.171895  -0.002346  3.926924  -0.004
C  C45  1  0.29335942  0.42073906  0.07631177  1  -0.160644  -0.007313  3.691845  -0.01  -0.177936  -0.001827  3.939694  -0.003  -0.186987  -0.001255  3.960257  -0.002  -0.080905  -0.171934  -0.002348  3.926727  -0.004
N  N46  1  0.85560259  0.78045543  0.17862569  1  -0.335186  -0.04348  3.338348  -0.077  -0.288739  -0.028564  3.63085  -0.045  -0.315276  -0.022363  3.645306  -0.036  -0.33809  -0.268532  -0.033986  3.620893  -0.053
N  N47  1  0.14440293  0.21954654  0.82138557  1  -0.335258  -0.043489  3.338511  -0.077  -0.288804  -0.028567  3.631036  -0.045  -0.315337  -0.022366  3.64546  -0.036  -0.338098  -0.268599  -0.033989  3.621072  -0.053
O  O48  1  0.10685190  0.10754212  0.46780590  1  -0.687913  -0.054998  2.206728  -0.095  -0.652786  -0.045896  2.514703  -0.07  -0.695685  -0.036542  2.499829  -0.056  -0.324645  -0.615998  -0.055174  2.523159  -0.084
O  O49  1  0.89312543  0.89246769  0.53218757  1  -0.688004  -0.054998  2.206621  -0.095  -0.652861  -0.045896  2.514503  -0.07  -0.695761  -0.036544  2.49962  -0.056  -0.324764  -0.616074  -0.055172  2.522963  -0.084
O  O50  1  0.12004572  0.67505709  0.34967032  1  -0.604393  -0.043748  2.020372  -0.076  -0.570076  -0.031354  2.280694  -0.052  -0.607422  -0.023313  2.275458  -0.039  -0.308244  -0.538787  -0.039638  2.281698  -0.064
O  O51  1  0.87995259  0.32492882  0.65032082  1  -0.604256  -0.043764  2.020343  -0.076  -0.569902  -0.031359  2.280631  -0.052  -0.607244  -0.023316  2.275383  -0.039  -0.30823  -0.538614  -0.039646  2.281628  -0.064
O  O52  1  0.15335096  0.14600947  0.26384046  1  -0.573224  -0.005577  1.929154  -0.011  -0.527454  -0.004513  2.137008  -0.009  -0.551222  -0.002917  2.130006  -0.007  -0.29594  -0.509497  -0.006657  2.141108  -0.013
O  O53  1  0.84662870  0.85399441  0.73616693  1  -0.573391  -0.005575  1.928997  -0.011  -0.527613  -0.004513  2.136778  -0.009  -0.551386  -0.002917  2.129771  -0.007  -0.29599  -0.509653  -0.006655  2.140885  -0.013
O  O54  1  0.29900450  0.92946461  0.26110647  1  -0.812271  -0.031392  1.912219  -0.056  -0.778031  -0.02673  2.100722  -0.044  -0.806737  -0.02018  2.06866  -0.034  -0.5745  -0.753561  -0.033398  2.123534  -0.053
O  O55  1  0.70100616  0.07057440  0.73891096  1  -0.812137  -0.031417  1.911965  -0.056  -0.777909  -0.02674  2.10049  -0.044  -0.806628  -0.020185  2.068393  -0.034  -0.574285  -0.753421  -0.033413  2.123294  -0.053
O  O56  1  0.31151975  0.88050997  0.56407120  1  -0.636408  -0.020981  2.000165  -0.04  -0.585721  -0.018257  2.233714  -0.032  -0.616925  -0.013728  2.222976  -0.025  -0.306259  -0.561182  -0.023114  2.239893  -0.039
O  O57  1  0.68844987  0.11948360  0.43591506  1  -0.636186  -0.020975  2.000682  -0.04  -0.585466  -0.018253  2.234118  -0.032  -0.616664  -0.013725  2.223393  -0.025  -0.306079  -0.560937  -0.023109  2.240287  -0.039
