# generated using pymatgen
data_CdH9C10I2N5
_symmetry_space_group_name_H-M   'P 1'
_cell_length_a   7.35122828
_cell_length_b   14.30248979
_cell_length_c   17.51554248
_cell_angle_alpha   89.99930211
_cell_angle_beta   89.99696831
_cell_angle_gamma   107.79562311
_symmetry_Int_Tables_number   1
_chemical_formula_structural   CdH9C10I2N5
_chemical_formula_sum   'Cd4 H36 C40 I8 N20'
_cell_volume   1753.48384799
_cell_formula_units_Z   4
loop_
 _symmetry_equiv_pos_site_id
 _symmetry_equiv_pos_as_xyz
  1  'x, y, z'
loop_
 _atom_site_type_symbol
 _atom_site_label
 _atom_site_symmetry_multiplicity
 _atom_site_fract_x
 _atom_site_fract_y
 _atom_site_fract_z
 _atom_site_occupancy
 _atom_site_hle17_bader_spin_density
 _atom_site_hle17_ddec_charge
 _atom_site_hle17_ddec_spin_density
 _atom_site_hle17_ddec_sum_bond_order
 _atom_site_hle17_magmom
 _atom_site_hse06_10hf_bader_spin_density
 _atom_site_hse06_10hf_ddec_charge
 _atom_site_hse06_10hf_ddec_spin_density
 _atom_site_hse06_10hf_ddec_sum_bond_order
 _atom_site_hse06_10hf_magmom
 _atom_site_hse06_bader_spin_density
 _atom_site_hse06_ddec_charge
 _atom_site_hse06_ddec_spin_density
 _atom_site_hse06_ddec_sum_bond_order
 _atom_site_hse06_magmom
 _atom_site_pbe_bader_spin_density
 _atom_site_pbe_cm5_charge
 _atom_site_pbe_ddec_charge
 _atom_site_pbe_ddec_spin_density
 _atom_site_pbe_ddec_sum_bond_order
 _atom_site_pbe_magmom
Cd  Cd0  1  0.19209611  0.57352837  0.24728293  1  0  0.763126  0  2.153344  0  0  0.600436  0  2.624986  0  0  0.647132  0  2.587751  0  0  0.520962  0.568492  0  2.649465  0
Cd  Cd1  1  0.80790827  0.92646716  0.74728415  1  0  0.763321  0  2.153025  0  0  0.600613  0  2.624715  0  0  0.647312  0  2.587465  0  0  0.520995  0.568658  0  2.649211  0
Cd  Cd2  1  0.80791687  0.42647492  0.75272845  1  0  0.763113  0  2.153389  0  0  0.600403  0  2.62508  0  0  0.647108  0  2.587826  0  0  0.520941  0.568452  0  2.649574  0
Cd  Cd3  1  0.19210211  0.07353313  0.25270554  1  0  0.763325  0  2.153027  0  0  0.600589  0  2.624774  0  0  0.647293  0  2.587517  0  0  0.521002  0.568636  0  2.649269  0
H  H4  1  0.65823762  0.39186285  0.45296743  1  0  0.320655  0  0.843515  0  0  0.315483  0  0.883087  0  0  0.32149  0  0.879747  0  0  0.343764  0.311209  0  0.885585  0
H  H5  1  0.34171520  0.10813404  0.95294344  1  0  0.320635  0  0.843351  0  0  0.315397  0  0.883048  0  0  0.321403  0  0.879706  0  0  0.343857  0.311126  0  0.885551  0
H  H6  1  0.34175675  0.60812517  0.54704566  1  0  0.32075  0  0.843594  0  0  0.315518  0  0.883207  0  0  0.321527  0  0.879865  0  0  0.343928  0.311246  0  0.885704  0
H  H7  1  0.65827544  0.89186810  0.04704909  1  0  0.320605  0  0.843517  0  0  0.315379  0  0.883162  0  0  0.321385  0  0.879822  0  0  0.343878  0.311107  0  0.885658  0
H  H8  1  0.17019928  0.74178756  0.38850308  1  0  0.105897  0  0.957853  0  0  0.116206  0  1.018561  0  0  0.118757  0  1.0175  0  0  0.099168  0.114357  0  1.019398  0
H  H9  1  0.82980223  0.75820243  0.88850914  1  0  0.10604  0  0.957938  0  0  0.116356  0  1.018595  0  0  0.118906  0  1.017538  0  0  0.099203  0.114507  0  1.019432  0
H  H10  1  0.82975985  0.25821440  0.61149174  1  0  0.105919  0  0.957773  0  0  0.116291  0  1.018409  0  0  0.118845  0  1.017348  0  0  0.099198  0.114441  0  1.019246  0
H  H11  1  0.17019558  0.24179721  0.11148910  1  0  0.105865  0  0.957688  0  0  0.116154  0  1.018418  0  0  0.118704  0  1.017361  0  0  0.099115  0.114308  0  1.019251  0
H  H12  1  0.05872746  0.81959213  0.49975938  1  0  0.098063  0  0.964807  0  0  0.106278  0  1.028189  0  0  0.10956  0  1.026488  0  0  0.088992  0.103848  0  1.029584  0
H  H13  1  0.94127703  0.68039704  0.99976951  1  0  0.098094  0  0.96451  0  0  0.106343  0  1.027884  0  0  0.109631  0  1.02618  0  0  0.089024  0.10391  0  1.029278  0
H  H14  1  0.94123691  0.18039937  0.50023145  1  0  0.098114  0  0.964477  0  0  0.106308  0  1.027917  0  0  0.109594  0  1.026215  0  0  0.088944  0.103867  0  1.029319  0
H  H15  1  0.05872478  0.31960567  0.00022817  1  0  0.098133  0  0.964412  0  0  0.106355  0  1.027825  0  0  0.109645  0  1.026119  0  0  0.08901  0.103922  0  1.02922  0
H  H16  1  0.80405952  0.72303381  0.58394299  1  0  0.079699  0  0.981015  0  0  0.089723  0  1.045344  0  0  0.091673  0  1.045396  0  0  0.090209  0.088299  0  1.045375  0
H  H17  1  0.19596277  0.77696364  0.08393937  1  0  0.079782  0  0.980656  0  0  0.089773  0  1.04505  0  0  0.091726  0  1.045101  0  0  0.090203  0.088349  0  1.045074  0
H  H18  1  0.19595111  0.27695719  0.41605411  1  0  0.079764  0  0.980572  0  0  0.08975  0  1.044967  0  0  0.091712  0  1.045016  0  0  0.090185  0.088325  0  1.044992  0
H  H19  1  0.80403855  0.22304119  0.91605545  1  0  0.079766  0  0.980623  0  0  0.08974  0  1.045036  0  0  0.0917  0  1.045083  0  0  0.090159  0.088316  0  1.045061  0
H  H20  1  0.65246969  0.54151895  0.56480788  1  0  0.105031  0  0.971497  0  0  0.108557  0  1.046608  0  0  0.11223  0  1.044296  0  0  0.090121  0.105899  0  1.048351  0
H  H21  1  0.34752099  0.95848529  0.06479019  1  0  0.10486  0  0.971604  0  0  0.108411  0  1.046706  0  0  0.112076  0  1.044389  0  0  0.090089  0.105757  0  1.048439  0
H  H22  1  0.34753359  0.45847740  0.43519893  1  0  0.104939  0  0.971653  0  0  0.108408  0  1.046837  0  0  0.112073  0  1.04452  0  0  0.090103  0.105754  0  1.048572  0
H  H23  1  0.65247335  0.04151918  0.93520748  1  0  0.104908  0  0.971604  0  0  0.108445  0  1.04671  0  0  0.112115  0  1.044396  0  0  0.090103  0.105787  0  1.04845  0
H  H24  1  0.69280225  0.30734880  0.32656835  1  0  0.111665  0  0.908752  0  0  0.127959  0  0.963319  0  0  0.129628  0  0.962084  0  0  0.126185  0.126785  0  0.964125  0
H  H25  1  0.30714620  0.19265070  0.82654133  1  0  0.111691  0  0.908929  0  0  0.127925  0  0.963584  0  0  0.12959  0  0.962354  0  0  0.126125  0.126752  0  0.964389  0
H  H26  1  0.30718767  0.69264830  0.67344360  1  0  0.111719  0  0.908877  0  0  0.12795  0  0.963541  0  0  0.129619  0  0.962304  0  0  0.126186  0.126775  0  0.964354  0
H  H27  1  0.69285436  0.80733907  0.17344093  1  0  0.111749  0  0.908687  0  0  0.128023  0  0.963388  0  0  0.129691  0  0.962156  0  0  0.126167  0.126851  0  0.964192  0
H  H28  1  0.78141993  0.39542523  0.25245781  1  0  0.110424  0  0.938221  0  0  0.117002  0  1.012507  0  0  0.119955  0  1.009453  0  0  0.110904  0.114872  0  1.014643  0
H  H29  1  0.21854368  0.10456782  0.75243951  1  0  0.110383  0  0.938416  0  0  0.116872  0  1.012822  0  0  0.119815  0  1.009768  0  0  0.110884  0.114744  0  1.014956  0
H  H30  1  0.21858056  0.60457097  0.74755186  1  0  0.110428  0  0.938274  0  0  0.116935  0  1.012636  0  0  0.119876  0  1.009594  0  0  0.110915  0.114804  0  1.014776  0
H  H31  1  0.78144348  0.89541268  0.24754960  1  0  0.11042  0  0.938268  0  0  0.117025  0  1.012601  0  0  0.119972  0  1.009552  0  0  0.110924  0.114895  0  1.014734  0
H  H32  1  0.84748858  0.17337252  0.30644124  1  0  0.105953  0  0.955549  0  0  0.111334  0  1.025661  0  0  0.114926  0  1.020579  0  0  0.127035  0.10869  0  1.029246  0
H  H33  1  0.15245466  0.32661798  0.80642134  1  0  0.105832  0  0.955658  0  0  0.111245  0  1.025642  0  0  0.114843  0  1.02056  0  0  0.126969  0.1086  0  1.029227  0
H  H34  1  0.15252538  0.82662652  0.69357128  1  0  0.105992  0  0.955546  0  0  0.111365  0  1.025627  0  0  0.114961  0  1.020541  0  0  0.126966  0.108708  0  1.029218  0
H  H35  1  0.84755209  0.67337354  0.19358376  1  0  0.105815  0  0.955694  0  0  0.111228  0  1.025697  0  0  0.114819  0  1.020625  0  0  0.126977  0.108584  0  1.029285  0
H  H36  1  0.39455425  0.35104587  0.24123756  1  0  0.097566  0  0.921491  0  0  0.108178  0  0.98179  0  0  0.110474  0  0.978804  0  0  0.135303  0.10645  0  0.983947  0
H  H37  1  0.60539282  0.14892019  0.74125280  1  0  0.097305  0  0.92154  0  0  0.107928  0  0.981857  0  0  0.110229  0  0.978876  0  0  0.135197  0.106202  0  0.984012  0
H  H38  1  0.60544564  0.64894888  0.75875726  1  0  0.097334  0  0.921668  0  0  0.107991  0  0.981917  0  0  0.110284  0  0.978939  0  0  0.135237  0.106265  0  0.984074  0
H  H39  1  0.39460873  0.85109181  0.25873916  1  0  0.097302  0  0.921591  0  0  0.107945  0  0.981885  0  0  0.110244  0  0.978907  0  0  0.135224  0.106219  0  0.98404  0
C  C40  1  0.96558588  0.59926388  0.41216300  1  0  0.146167  0  3.812203  0  0  0.145112  0  4.057439  0  0  0.148321  0  4.080862  0  0  0.080524  0.142855  0  4.041781  0
C  C41  1  0.03443818  0.90073518  0.91215121  1  0  0.146626  0  3.811819  0  0  0.145443  0  4.057186  0  0  0.148654  0  4.080609  0  0  0.080598  0.143183  0  4.041533  0
C  C42  1  0.03442872  0.40074664  0.58784210  1  0  0.146318  0  3.812407  0  0  0.145229  0  4.057694  0  0  0.148433  0  4.081115  0  0  0.080607  0.142973  0  4.042033  0
C  C43  1  0.96555861  0.09925869  0.08784532  1  0  0.146406  0  3.812225  0  0  0.145306  0  4.057516  0  0  0.148518  0  4.080941  0  0  0.080621  0.143048  0  4.041859  0
C  C44  1  0.05782680  0.69893960  0.42619056  1  0  -0.13355  0  3.737757  0  0  -0.153164  0  3.985952  0  0  -0.155427  0  4.00629  0  0  -0.097425  -0.151583  0  3.972218  0
C  C45  1  0.94215546  0.80106194  0.92619130  1  0  -0.134094  0  3.737878  0  0  -0.153668  0  3.986095  0  0  -0.155936  0  4.006438  0  0  -0.097503  -0.152093  0  3.972379  0
C  C46  1  0.94215931  0.30107805  0.57380997  1  0  -0.133803  0  3.738039  0  0  -0.153467  0  3.986227  0  0  -0.155732  0  4.006573  0  0  -0.097525  -0.151892  0  3.972501  0
C  C47  1  0.05782616  0.19892829  0.07380809  1  0  -0.133822  0  3.73785  0  0  -0.153411  0  3.98608  0  0  -0.155678  0  4.006425  0  0  -0.097477  -0.151832  0  3.97235  0
C  C48  1  0.99623736  0.74125623  0.48862993  1  0  -0.075963  0  3.776162  0  0  -0.090688  0  4.028688  0  0  -0.093611  0  4.051357  0  0  -0.102616  -0.088677  0  4.013363  0
C  C49  1  0.00378384  0.75874340  0.98862217  1  0  -0.075627  0  3.775501  0  0  -0.090357  0  4.02797  0  0  -0.093279  0  4.050637  0  0  -0.102501  -0.088344  0  4.012633  0
C  C50  1  0.00375060  0.25874935  0.51137231  1  0  -0.075891  0  3.775549  0  0  -0.090587  0  4.028042  0  0  -0.093515  0  4.050724  0  0  -0.102457  -0.08857  0  4.012698  0
C  C51  1  0.99621785  0.24125573  0.01137722  1  0  -0.075745  0  3.775528  0  0  -0.090461  0  4.027995  0  0  -0.093385  0  4.050666  0  0  -0.102482  -0.088446  0  4.01266  0
C  C52  1  0.84952268  0.68550696  0.53695242  1  0  -0.071243  0  3.79392  0  0  -0.091375  0  4.054166  0  0  -0.093194  0  4.077531  0  0  -0.10663  -0.090014  0  4.038144  0
C  C53  1  0.15048925  0.81451346  0.03694826  1  0  -0.071691  0  3.793929  0  0  -0.091852  0  4.054289  0  0  -0.093677  0  4.077663  0  0  -0.106791  -0.090477  0  4.038242  0
C  C54  1  0.15049465  0.31451014  0.46304925  1  0  -0.071451  0  3.793602  0  0  -0.091558  0  4.05387  0  0  -0.093391  0  4.077247  0  0  -0.106694  -0.090183  0  4.037821  0
C  C55  1  0.84951007  0.18548984  0.96304713  1  0  -0.071631  0  3.793807  0  0  -0.091744  0  4.054104  0  0  -0.093577  0  4.077487  0  0  -0.106738  -0.090369  0  4.038057  0
C  C56  1  0.76161538  0.58527979  0.52600143  1  0  -0.165347  0  3.759181  0  0  -0.184856  0  4.020029  0  0  -0.188093  0  4.039559  0  0  -0.108306  -0.182569  0  4.006809  0
C  C57  1  0.23838273  0.91473022  0.02597644  1  0  -0.164912  0  3.759666  0  0  -0.18442  0  4.020473  0  0  -0.187636  0  4.039992  0  0  -0.108234  -0.182136  0  4.007241  0
C  C58  1  0.23839685  0.41473490  0.47401223  1  0  -0.165171  0  3.75947  0  0  -0.184628  0  4.020277  0  0  -0.187847  0  4.0398  0  0  -0.108266  -0.182344  0  4.007047  0
C  C59  1  0.76160101  0.08526513  0.97401952  1  0  -0.165073  0  3.759676  0  0  -0.184576  0  4.020466  0  0  -0.1878  0  4.039994  0  0  -0.108248  -0.182289  0  4.007235  0
C  C60  1  0.82136403  0.54377882  0.46229471  1  0  0.163611  0  3.793573  0  0  0.154589  0  4.043307  0  0  0.158745  0  4.064779  0  0  0.088199  0.151695  0  4.028908  0
C  C61  1  0.17862166  0.95623905  0.96229044  1  0  0.162947  0  3.79367  0  0  0.154017  0  4.043414  0  0  0.158167  0  4.064889  0  0  0.088017  0.151126  0  4.029014  0
C  C62  1  0.17864982  0.45624310  0.53771438  1  0  0.163278  0  3.793867  0  0  0.154271  0  4.043537  0  0  0.15843  0  4.065007  0  0  0.088044  0.151379  0  4.029137  0
C  C63  1  0.82137045  0.04375673  0.03770894  1  0  0.16325  0  3.793867  0  0  0.154259  0  4.043582  0  0  0.158409  0  4.065058  0  0  0.088066  0.15137  0  4.02918  0
C  C64  1  0.85701553  0.45210562  0.36396959  1  0  0.383227  0  3.700042  0  0  0.35167  0  3.985374  0  0  0.369611  0  3.996958  0  0  0.228143  0.34002  0  3.976882  0
C  C65  1  0.14295493  0.04786964  0.86396507  1  0  0.383629  0  3.700512  0  0  0.35204  0  3.985889  0  0  0.369973  0  3.997473  0  0  0.228352  0.340392  0  3.977398  0
C  C66  1  0.14297359  0.54786640  0.63602523  1  0  0.383702  0  3.700989  0  0  0.351943  0  3.986567  0  0  0.369851  0  3.99819  0  0  0.228401  0.340263  0  3.978133  0
C  C67  1  0.85704125  0.95212277  0.13602633  1  0  0.383539  0  3.701046  0  0  0.35211  0  3.986301  0  0  0.370045  0  3.997886  0  0  0.228372  0.340442  0  3.977843  0
C  C68  1  0.81500212  0.36896841  0.30848325  1  0  -0.114625  0  3.659146  0  0  -0.189296  0  3.903254  0  0  -0.187243  0  3.909291  0  0  -0.034215  -0.190368  0  3.89881  0
C  C69  1  0.18498479  0.13101926  0.80847226  1  0  -0.11455  0  3.658615  0  0  -0.189118  0  3.90284  0  0  -0.187047  0  3.90887  0  0  -0.034138  -0.190189  0  3.898393  0
C  C70  1  0.18502602  0.63101204  0.69151443  1  0  -0.114532  0  3.658209  0  0  -0.189068  0  3.902595  0  0  -0.18699  0  3.908634  0  0  -0.034204  -0.190155  0  3.898185  0
C  C71  1  0.81500925  0.86898449  0.19151400  1  0  -0.114638  0  3.658457  0  0  -0.189515  0  3.90296  0  0  -0.187458  0  3.908999  0  0  -0.034304  -0.190576  0  3.898517  0
C  C72  1  0.97052366  0.23552199  0.29261405  1  0  0.188324  0  3.634839  0  0  0.110284  0  3.901138  0  0  0.126033  0  3.910564  0  0  0.16214  0.100343  0  3.894409  0
C  C73  1  0.02939342  0.26446041  0.79260279  1  0  0.188  0  3.635075  0  0  0.110124  0  3.901289  0  0  0.125871  0  3.910728  0  0  0.161938  0.100188  0  3.894548  0
C  C74  1  0.02945448  0.76447308  0.70739390  1  0  0.188004  0  3.635074  0  0  0.110172  0  3.901304  0  0  0.125921  0  3.910749  0  0  0.16212  0.100233  0  3.894577  0
C  C75  1  0.97061096  0.73553528  0.20739717  1  0  0.187859  0  3.635039  0  0  0.110005  0  3.901237  0  0  0.125755  0  3.910673  0  0  0.161865  0.100064  0  3.894502  0
C  C76  1  0.24710894  0.32732916  0.26045487  1  0  0.204525  0  3.701817  0  0  0.146949  0  3.989553  0  0  0.160316  0  4.000736  0  0  0.149392  0.138337  0  3.981613  0
C  C77  1  0.75282969  0.17264236  0.76045794  1  0  0.205028  0  3.701983  0  0  0.147421  0  3.989717  0  0  0.160781  0  4.000921  0  0  0.149488  0.138807  0  3.981768  0
C  C78  1  0.75287916  0.67266355  0.73954852  1  0  0.204954  0  3.701691  0  0  0.147344  0  3.989432  0  0  0.160711  0  4.000632  0  0  0.149496  0.138725  0  3.981509  0
C  C79  1  0.24717042  0.82735955  0.23953517  1  0  0.204887  0  3.702128  0  0  0.147264  0  3.989901  0  0  0.160625  0  4.001103  0  0  0.149437  0.138648  0  3.981954  0
I  I80  1  0.99484476  0.50287463  0.11515101  1  0  -0.49958  0  0.978396  0  0  -0.448797  0  1.253193  0  0  -0.46848  0  1.23193  0  0  -0.288648  -0.434787  0  1.267477  0
I  I81  1  0.00514507  0.99713674  0.61513993  1  0  -0.499651  0  0.978371  0  0  -0.448829  0  1.253148  0  0  -0.468499  0  1.231848  0  0  -0.288679  -0.434817  0  1.267432  0
I  I82  1  0.00517369  0.49712536  0.88485923  1  0  -0.4996  0  0.978481  0  0  -0.448798  0  1.253282  0  0  -0.468477  0  1.232011  0  0  -0.288645  -0.434787  0  1.267572  0
I  I83  1  0.99491773  0.00285478  0.38485775  1  0  -0.499657  0  0.978376  0  0  -0.448846  0  1.25318  0  0  -0.468514  0  1.23188  0  0  -0.288697  -0.434836  0  1.267464  0
I  I84  1  0.54343415  0.63895612  0.31677343  1  0  -0.508894  0  0.994243  0  0  -0.463313  0  1.290148  0  0  -0.481542  0  1.270148  0  0  -0.278088  -0.450444  0  1.303607  0
I  I85  1  0.45658369  0.86100453  0.81680733  1  0  -0.508938  0  0.99412  0  0  -0.463314  0  1.289996  0  0  -0.481554  0  1.270005  0  0  -0.278082  -0.450447  0  1.303456  0
I  I86  1  0.45657911  0.36109082  0.68323738  1  0  -0.508872  0  0.994346  0  0  -0.46328  0  1.290269  0  0  -0.481514  0  1.27027  0  0  -0.278034  -0.450406  0  1.303729  0
I  I87  1  0.54343715  0.13901775  0.18319092  1  0  -0.508944  0  0.994082  0  0  -0.463331  0  1.289994  0  0  -0.481566  0  1.269993  0  0  -0.278087  -0.450463  0  1.303455  0
N  N88  1  0.98240899  0.53976962  0.35152272  1  0  -0.43453  0  3.142926  0  0  -0.374983  0  3.419875  0  0  -0.396056  0  3.434676  0  0  -0.350646  -0.360784  0  3.409527  0
N  N89  1  0.01759316  0.96024004  0.85152491  1  0  -0.43481  0  3.14373  0  0  -0.375204  0  3.420746  0  0  -0.396277  0  3.435558  0  0  -0.350783  -0.361009  0  3.410402  0
N  N90  1  0.01761520  0.46024425  0.64847381  1  0  -0.43451  0  3.143854  0  0  -0.374907  0  3.420895  0  0  -0.395963  0  3.435712  0  0  -0.350742  -0.360706  0  3.410563  0
N  N91  1  0.98240575  0.03975895  0.14846991  1  0  -0.434582  0  3.143831  0  0  -0.37505  0  3.420775  0  0  -0.396108  0  3.435546  0  0  -0.350694  -0.360847  0  3.410433  0
N  N92  1  0.75863189  0.45071236  0.43039629  1  0  -0.379249  0  3.361857  0  0  -0.328109  0  3.596312  0  0  -0.344793  0  3.607525  0  0  -0.372195  -0.316892  0  3.588557  0
N  N93  1  0.24135095  0.04929385  0.93038039  1  0  -0.378923  0  3.36135  0  0  -0.32777  0  3.595871  0  0  -0.344447  0  3.607082  0  0  -0.372231  -0.316558  0  3.588123  0
N  N94  1  0.24137332  0.54929196  0.56961338  1  0  -0.379229  0  3.362215  0  0  -0.327923  0  3.596702  0  0  -0.344604  0  3.607927  0  0  -0.372327  -0.316699  0  3.588964  0
N  N95  1  0.75864606  0.95070718  0.06961558  1  0  -0.379023  0  3.362037  0  0  -0.327857  0  3.596485  0  0  -0.344534  0  3.607697  0  0  -0.372311  -0.316639  0  3.588743  0
N  N96  1  0.97431863  0.32997483  0.29595051  1  0  0.059653  0  3.546104  0  0  0.179047  0  3.72335  0  0  0.168054  0  3.748779  0  0  -0.131337  0.184881  0  3.708465  0
N  N97  1  0.02562687  0.17000463  0.79593412  1  0  0.059762  0  3.545281  0  0  0.179037  0  3.722597  0  0  0.168035  0  3.748031  0  0  -0.131244  0.184852  0  3.707751  0
N  N98  1  0.02567743  0.67001400  0.70406487  1  0  0.059594  0  3.545643  0  0  0.178685  0  3.72318  0  0  0.16768  0  3.748613  0  0  -0.13137  0.184601  0  3.708149  0
N  N99  1  0.97436882  0.82998990  0.20405327  1  0  0.05978  0  3.54514  0  0  0.179054  0  3.722562  0  0  0.168053  0  3.747999  0  0  -0.131203  0.184868  0  3.707716  0
N  N100  1  0.14992130  0.38961905  0.27562500  1  0  -0.272029  0  3.020662  0  0  -0.244423  0  3.289188  0  0  -0.257432  0  3.305823  0  0  -0.222754  -0.235463  0  3.277817  0
N  N101  1  0.85001744  0.11035419  0.77562372  1  0  -0.272383  0  3.020677  0  0  -0.244735  0  3.289325  0  0  -0.257748  0  3.305962  0  0  -0.222836  -0.235766  0  3.277949  0
N  N102  1  0.85006341  0.61037205  0.72438181  1  0  -0.272226  0  3.020519  0  0  -0.244468  0  3.289125  0  0  -0.257482  0  3.305765  0  0  -0.222859  -0.235525  0  3.277763  0
N  N103  1  0.14998256  0.88964413  0.22435797  1  0  -0.272264  0  3.020771  0  0  -0.244574  0  3.289366  0  0  -0.257587  0  3.306006  0  0  -0.222778  -0.235605  0  3.27799  0
N  N104  1  0.14158913  0.23163826  0.27027646  1  0  -0.388633  0  3.204132  0  0  -0.319835  0  3.494455  0  0  -0.341083  0  3.507865  0  0  -0.348179  -0.305486  0  3.484733  0
N  N105  1  0.85831948  0.26833646  0.77027091  1  0  -0.388345  0  3.204366  0  0  -0.319626  0  3.494731  0  0  -0.340866  0  3.508128  0  0  -0.347921  -0.305278  0  3.485009  0
N  N106  1  0.85837955  0.76835704  0.72973092  1  0  -0.388613  0  3.204179  0  0  -0.319922  0  3.494634  0  0  -0.34114  0  3.507959  0  0  -0.348109  -0.305563  0  3.484881  0
N  N107  1  0.14169199  0.73166317  0.22973361  1  0  -0.388213  0  3.204158  0  0  -0.319494  0  3.494494  0  0  -0.340729  0  3.507886  0  0  -0.347935  -0.305145  0  3.48477  0
