# generated using pymatgen
data_ZnH10C20NO4F3
_symmetry_space_group_name_H-M   'P 1'
_cell_length_a   11.10012874
_cell_length_b   16.36179637
_cell_length_c   17.77493582
_cell_angle_alpha   95.58878202
_cell_angle_beta   90.30236857
_cell_angle_gamma   92.21280223
_symmetry_Int_Tables_number   1
_chemical_formula_structural   ZnH10C20NO4F3
_chemical_formula_sum   'Zn2 H20 C40 N2 O8 F6'
_cell_volume   3210.37520049
_cell_formula_units_Z   2
loop_
 _symmetry_equiv_pos_site_id
 _symmetry_equiv_pos_as_xyz
  1  'x, y, z'
loop_
 _atom_site_type_symbol
 _atom_site_label
 _atom_site_symmetry_multiplicity
 _atom_site_fract_x
 _atom_site_fract_y
 _atom_site_fract_z
 _atom_site_occupancy
 _atom_site_pbe_bader_charge
 _atom_site_pbe_bader_spin_density
 _atom_site_pbe_cm5_charge
 _atom_site_pbe_ddec_charge
 _atom_site_pbe_ddec_spin_density
 _atom_site_pbe_ddec_sum_bond_order
 _atom_site_pbe_magmom
Zn  Zn0  1  0.49470302  0.41347105  0.49767523  1  1.275055  0  0.66633  0.81355  0  2.432322  0
Zn  Zn1  1  0.50420808  0.58508763  0.50663804  1  1.280544  0  0.666134  0.810748  0  2.44903  0
H  H2  1  0.37688098  0.71022879  0.42735424  1  0.114008  0  0.12998  0.103088  0  0.980512  0
H  H3  1  0.37840346  0.86173804  0.42749363  1  0.11615  0  0.110938  0.124852  0  1.017473  0
H  H4  1  0.66286981  0.87485574  0.59709369  1  0.122122  0  0.115393  0.126393  0  0.992951  0
H  H5  1  0.64805796  0.72160350  0.58884545  1  0.130843  0  0.134703  0.111521  0  0.959094  0
H  H6  1  0.33770486  0.12409658  0.40351421  1  0.105508  0  0.114532  0.124731  0  0.993373  0
H  H7  1  0.62280311  0.13663790  0.57272263  1  0.095818  0  0.111515  0.124589  0  1.015899  0
H  H8  1  0.62473418  0.28841519  0.57306684  1  0.141226  0  0.134421  0.11187  0  0.960362  0
H  H9  1  0.35122303  0.27746668  0.41315185  1  0.122919  0  0.134121  0.110933  0  0.960482  0
H  H10  1  0.50678676  0.61974010  0.26596764  1  0.108413  0  0.10154  0.104521  0  1.003781  0
H  H11  1  0.50742666  0.61374576  0.12668752  1  0.08852  0  0.096683  0.10358  0  1.039087  0
H  H12  1  0.49106042  0.34833660  0.11429518  1  0.069519  0  0.099716  0.103017  0  1.012732  0
H  H13  1  0.49069402  0.35683632  0.25458022  1  0.09298  0  0.10421  0.107616  0  0.999701  0
H  H14  1  0.50915907  0.65238321  0.89007638  1  0.050906  0  0.098594  0.10179  0  1.014996  0
H  H15  1  0.49295813  0.38676609  0.87519719  1  0.094069  0  0.097646  0.104277  0  1.032454  0
H  H16  1  0.49328388  0.38249775  0.73581614  1  0.091154  0  0.104676  0.10804  0  0.998859  0
H  H17  1  0.50945413  0.64545288  0.74986870  1  0.119118  0  0.103969  0.107543  0  1.001277  0
H  H18  1  0.78062163  0.59865215  0.40140747  1  0.112374  0  0.101961  0.115938  0  1.021547  0
H  H19  1  0.89636176  0.68351009  0.31803905  1  0.045602  0  0.098185  0.093685  0  0.998293  0
H  H20  1  0.22869608  0.59540887  0.39941328  1  0.056383  0  0.098401  0.1057  0  1.038547  0
H  H21  1  0.12186864  0.68195018  0.31687917  1  0.049348  0  0.095965  0.090787  0  1.001602  0
C  C22  1  0.49697548  0.49295475  0.35355421  1  1.52145  0  0.212593  0.588003  0  4.177654  0
C  C23  1  0.26357666  0.49609048  0.50107272  1  1.586959  0  0.219534  0.624939  0  4.159675  0
C  C24  1  0.50274475  0.51082207  0.64994472  1  1.521876  0  0.214856  0.592478  0  4.170304  0
C  C25  1  0.73542834  0.49707920  0.50177669  1  1.654617  0  0.219002  0.623868  0  4.159897  0
C  C26  1  0.43870135  0.74951592  0.46402285  1  0.541233  0  0.064479  0.111986  0  3.914253  0
C  C27  1  0.44014082  0.83438596  0.46439297  1  -0.039026  0  -0.077717  -0.16566  0  3.928697  0
C  C28  1  0.52154137  0.88262036  0.51292910  1  -0.026364  0  0.004687  0.074262  0  4.048597  0
C  C29  1  0.59809176  0.84106096  0.55859648  1  0.004189  0  -0.077253  -0.165268  0  3.92871  0
C  C30  1  0.59039889  0.75592724  0.55446917  1  0.49699  0  0.067512  0.114249  0  3.910248  0
C  C31  1  0.53103040  0.97195280  0.51872825  1  0.580922  0  0.097191  0.111133  0  4.008894  0
C  C32  1  0.46986294  0.02670563  0.48163608  1  0.495055  0  0.099596  0.117081  0  4.004618  0
C  C33  1  0.40253701  0.15777919  0.44208115  1  0.006957  0  -0.07661  -0.164254  0  3.929667  0
C  C34  1  0.47934465  0.11606586  0.48747757  1  -0.032667  0  0.003057  0.069548  0  4.050001  0
C  C35  1  0.56097192  0.16413861  0.53598504  1  0.055102  0  -0.075438  -0.160847  0  3.924082  0
C  C36  1  0.56239520  0.24907211  0.53674713  1  0.440609  0  0.066867  0.112193  0  3.903867  0
C  C37  1  0.40966691  0.24295142  0.44685912  1  0.529101  0  0.066716  0.11351  0  3.909562  0
C  C38  1  0.49776490  0.48871811  0.26908504  1  0.081487  0  -0.018668  -0.032751  0  3.968977  0
C  C39  1  0.50295454  0.56054258  0.23199757  1  -0.161632  0  -0.086674  -0.088578  0  3.995733  0
C  C40  1  0.50344905  0.55698633  0.15361148  1  0.067477  0  -0.093603  -0.126406  0  3.976283  0
C  C41  1  0.49878167  0.48027387  0.10929731  1  -0.056995  0  -0.015232  0.039909  0  4.055997  0
C  C42  1  0.49425543  0.40807805  0.14714574  1  -0.043889  0  -0.09351  -0.126477  0  3.976506  0
C  C43  1  0.49382087  0.41252461  0.22554839  1  -0.012126  0  -0.083116  -0.081305  0  3.98818  0
C  C44  1  0.49844636  0.47140346  0.02705328  1  0.510055  0  0.085122  0.101692  0  4.023449  0
C  C45  1  0.50182324  0.52852828  0.97599605  1  0.401311  0  0.085529  0.104028  0  4.020719  0
C  C46  1  0.50602659  0.59295204  0.85671559  1  0.023708  0  -0.094076  -0.126183  0  3.980839  0
C  C47  1  0.50157729  0.52022747  0.89376787  1  -0.025426  0  -0.015675  0.036977  0  4.057031  0
C  C48  1  0.49696608  0.44390726  0.84884197  1  -0.008904  0  -0.091677  -0.12328  0  3.96714  0
C  C49  1  0.49725906  0.44125239  0.77049078  1  -0.02697  0  -0.083484  -0.083625  0  3.984425  0
C  C50  1  0.50226426  0.51364405  0.73429763  1  0.068693  0  -0.014735  -0.026529  0  3.960822  0
C  C51  1  0.50634372  0.58944152  0.77841180  1  -0.05485  0  -0.084863  -0.085741  0  3.992153  0
C  C52  1  0.87092376  0.49880700  0.49937095  1  0.008828  0  -0.019323  -0.166867  0  3.952292  0
C  C53  1  0.93741643  0.54871558  0.45076367  1  0.006999  0  -0.001909  0.0692  0  3.956703  0
C  C54  1  0.93372668  0.45136799  0.54481627  1  0.480302  0  0.093754  0.15951  0  4.087254  0
C  C55  1  0.87854081  0.59815762  0.40145976  1  -0.017269  0  -0.096223  -0.13129  0  3.974142  0
C  C56  1  0.94370493  0.64574826  0.35498479  1  -0.111677  0  -0.100551  -0.092027  0  4.072366  0
C  C57  1  0.12829658  0.49802824  0.49890274  1  0.075834  0  -0.019232  -0.166644  0  3.953753  0
C  C58  1  0.06084595  0.45103088  0.54471422  1  0.482125  0  0.093845  0.160399  0  4.088705  0
C  C59  1  0.06693731  0.54813219  0.45043282  1  0.037794  0  -0.00274  0.070341  0  3.957276  0
C  C60  1  0.13083950  0.59669952  0.40052553  1  -0.02307  0  -0.098055  -0.134938  0  3.988017  0
C  C61  1  0.07078382  0.64494325  0.35443927  1  -0.000357  0  -0.102834  -0.095965  0  4.080464  0
N  N62  1  0.51195649  0.71077976  0.50814307  1  -1.256931  0  -0.314542  -0.188782  0  3.505288  0
N  N63  1  0.48821935  0.28786202  0.49325552  1  -1.203333  0  -0.31338  -0.184086  0  3.504003  0
O  O64  1  0.49355795  0.42507515  0.38303453  1  -1.169304  0  -0.317208  -0.544777  0  2.326613  0
O  O65  1  0.50002456  0.56437094  0.38994538  1  -1.174951  0  -0.323139  -0.564309  0  2.32448  0
O  O66  1  0.32036596  0.56543077  0.50941274  1  -1.161316  0  -0.313195  -0.543373  0  2.32844  0
O  O67  1  0.30943560  0.42599482  0.49389666  1  -1.15856  0  -0.313857  -0.543517  0  2.30933  0
O  O68  1  0.50738220  0.57945818  0.62168004  1  -1.164346  0  -0.319879  -0.546995  0  2.325876  0
O  O69  1  0.49827392  0.43999048  0.61266579  1  -1.165552  0  -0.319284  -0.552798  0  2.327645  0
O  O70  1  0.68137680  0.42704129  0.49548461  1  -1.154417  0  -0.314217  -0.542488  0  2.305901  0
O  O71  1  0.68662639  0.56647616  0.50918384  1  -1.160015  0  -0.312374  -0.547345  0  2.335745  0
F  F72  1  0.61573077  0.00486537  0.57018409  1  -0.62841  0  -0.073938  -0.106885  0  1.394613  0
F  F73  1  0.38506380  0.99371768  0.43023761  1  -0.6284  0  -0.075219  -0.108956  0  1.392181  0
F  F74  1  0.49386330  0.39097988  0.99640694  1  -0.627166  0  -0.088878  -0.12151  0  1.39542  0
F  F75  1  0.50635712  0.60891879  0.00684139  1  -0.626108  0  -0.088432  -0.122209  0  1.398266  0
F  F76  1  0.11384849  0.40429257  0.59332813  1  -0.618824  0  -0.100581  -0.118394  0  1.354553  0
F  F77  1  0.87606346  0.40458791  0.59348756  1  -0.623396  0  -0.102633  -0.123012  0  1.356775  0
