# generated using pymatgen
data_CuH22C18N2O5
_symmetry_space_group_name_H-M   'P 1'
_cell_length_a   8.83150649
_cell_length_b   10.69229271
_cell_length_c   10.92858935
_cell_angle_alpha   70.09487724
_cell_angle_beta   72.14314059
_cell_angle_gamma   68.08259545
_symmetry_Int_Tables_number   1
_chemical_formula_structural   CuH22C18N2O5
_chemical_formula_sum   'Cu2 H44 C36 N4 O10'
_cell_volume   880.91421035
_cell_formula_units_Z   2
loop_
 _symmetry_equiv_pos_site_id
 _symmetry_equiv_pos_as_xyz
  1  'x, y, z'
loop_
 _atom_site_type_symbol
 _atom_site_label
 _atom_site_symmetry_multiplicity
 _atom_site_fract_x
 _atom_site_fract_y
 _atom_site_fract_z
 _atom_site_occupancy
 _atom_site_hle17_ddec_charge
 _atom_site_hle17_ddec_spin_density
 _atom_site_hle17_ddec_sum_bond_order
 _atom_site_hle17_magmom
 _atom_site_hse06_10hf_ddec_charge
 _atom_site_hse06_10hf_ddec_spin_density
 _atom_site_hse06_10hf_ddec_sum_bond_order
 _atom_site_hse06_10hf_magmom
 _atom_site_hse06_ddec_charge
 _atom_site_hse06_ddec_spin_density
 _atom_site_hse06_ddec_sum_bond_order
 _atom_site_hse06_magmom
 _atom_site_pbe_cm5_charge
 _atom_site_pbe_ddec_charge
 _atom_site_pbe_ddec_spin_density
 _atom_site_pbe_ddec_sum_bond_order
 _atom_site_pbe_magmom
Cu  Cu0  1  0.99999804  0.50000279  0.00000182  1  0.916875  -0.711279  1.779749  -0.48  0.922513  -0.807443  2.179568  -0.61  1.030392  -0.891364  2.084634  -0.702  0.683908  0.859504  -0.747216  2.235939  -0.551
Cu  Cu1  1  0.50001006  0.00000014  0.49999867  1  0.731263  0.714403  1.833013  0.487  0.677288  0.778576  2.210438  0.579  0.753885  0.85203  2.160323  0.654  0.779972  0.631957  0.729053  2.244762  0.534
H  H2  1  0.71234282  0.79371092  0.98160147  1  0.051476  0.000138  0.977194  0.0  0.069893  0.000118  1.043757  0.0  0.069095  0.000117  1.046418  0.0  0.083336  0.070427  9.5e-05  1.041519  0.0
H  H3  1  0.28765456  0.20628724  0.01839652  1  0.051432  0.000137  0.977255  0.0  0.069916  0.000118  1.043758  0.0  0.069093  0.000117  1.046445  0.0  0.083323  0.070443  9.5e-05  1.041528  0.0
H  H4  1  0.72065957  0.91938616  0.04800780  1  0.059238  -7.6e-05  0.969655  0.0  0.076689  -7.6e-05  1.035911  0.0  0.077491  -4.8e-05  1.036933  0.0  0.088044  0.076009  -9.6e-05  1.035663  0.0
H  H5  1  0.27933192  0.08061208  0.95199447  1  0.059236  -7.7e-05  0.969632  0.0  0.076678  -7.6e-05  1.035919  0.0  0.077476  -4.8e-05  1.03694  0.0  0.088038  0.075998  -9.6e-05  1.035672  0.0
H  H6  1  0.99410434  0.92501117  0.89423238  1  0.115164  -2.8e-05  0.929978  0.0  0.123885  -0.000163  0.990938  0.0  0.127533  -4e-05  0.989409  0.0  0.108588  0.120712  -0.000239  0.99276  0.0
H  H7  1  0.00589115  0.07499005  0.10577607  1  0.115193  -2.7e-05  0.929915  0.0  0.123905  -0.000162  0.990892  0.0  0.127551  -4e-05  0.989365  0.0  0.108595  0.12071  -0.000239  0.992734  0.0
H  H8  1  0.71788828  0.96060691  0.75521500  1  0.090899  -0.0001  0.981727  0.0  0.109874  -4.9e-05  1.049436  0.0  0.110091  -5.2e-05  1.051741  0.0  0.081273  0.109645  -4.5e-05  1.047603  0.0
H  H9  1  0.28211704  0.03939626  0.24478286  1  0.090875  -0.000102  0.981747  0.0  0.109853  -4.9e-05  1.049438  0.0  0.110071  -5.2e-05  1.051743  0.0  0.081265  0.109625  -4.5e-05  1.047603  0.0
H  H10  1  0.74588644  0.08258101  0.81488094  1  0.098207  3.8e-05  0.960781  0.0  0.122525  2.6e-05  1.019692  0.0  0.123937  2.3e-05  1.019383  0.0  0.087793  0.121331  7e-06  1.020107  0.0
H  H11  1  0.25410832  0.91742230  0.18512609  1  0.0982  4.3e-05  0.960788  0.0  0.122531  2.6e-05  1.019682  0.0  0.123945  2.3e-05  1.019372  0.0  0.087796  0.121333  7e-06  1.020098  0.0
H  H12  1  0.55359105  0.04166119  0.87139205  1  0.09374  -2.5e-05  0.967791  0.0  0.117253  -2.6e-05  1.028515  0.0  0.118031  -2.1e-05  1.030015  0.0  0.082835  0.116852  -2.2e-05  1.027253  0.0
H  H13  1  0.44640552  0.95833593  0.12860741  1  0.093762  -2.7e-05  0.967798  0.0  0.117291  -2.7e-05  1.028478  0.0  0.118061  -2.1e-05  1.030002  0.0  0.082865  0.116891  -2.2e-05  1.027214  0.0
H  H14  1  0.27813943  0.25766117  0.35882384  1  0.091001  0.001058  0.929422  0.002  0.102488  0.000835  0.986405  0.001  0.103855  0.000618  0.984798  0.001  0.125471  0.101223  0.000979  0.987758  0.001
H  H15  1  0.72187461  0.74234082  0.64117210  1  0.090932  0.001057  0.929423  0.002  0.102427  0.000835  0.986412  0.001  0.10379  0.000618  0.984802  0.001  0.125422  0.101165  0.000979  0.987768  0.001
H  H16  1  0.16536035  0.42186660  0.70005401  1  0.136355  0.000806  0.937265  0.001  0.144503  0.000642  0.994317  0.001  0.148609  0.000483  0.992473  0.0  0.114756  0.141407  0.00077  0.996108  0.001
H  H17  1  0.83464471  0.57812626  0.29994187  1  0.136389  0.000805  0.937144  0.001  0.144507  0.000642  0.994248  0.001  0.148645  0.000483  0.992362  0.0  0.114762  0.141413  0.00077  0.99604  0.001
H  H18  1  0.28290207  0.40466888  0.12863693  1  0.12335  0.000857  0.97191  0.001  0.126932  0.000703  1.042453  0.001  0.130217  0.000565  1.041007  0.0  0.11036  0.124202  0.00078  1.044217  0.001
H  H19  1  0.71710302  0.59532396  0.87135986  1  0.123377  0.000857  0.971851  0.001  0.126979  0.000703  1.042375  0.001  0.130267  0.000565  1.040931  0.0  0.110379  0.12425  0.00078  1.044136  0.001
H  H20  1  0.71762697  0.13664395  0.51639920  1  0.08524  0.001238  0.971955  0.002  0.089764  0.000955  1.043081  0.001  0.092104  0.000671  1.039572  0.001  0.116581  0.0875  0.001175  1.04645  0.002
H  H21  1  0.28238730  0.86336837  0.48359781  1  0.085172  0.001239  0.971816  0.002  0.089758  0.000955  1.042899  0.001  0.09209  0.000671  1.039399  0.001  0.116538  0.087487  0.001175  1.046267  0.002
H  H22  1  0.20257881  0.22108371  0.61510245  1  0.096043  0.001439  0.955109  0.002  0.102013  0.001233  1.022175  0.002  0.1044  0.000876  1.018506  0.002  0.117983  0.100099  0.001495  1.024989  0.002
H  H23  1  0.79744254  0.77890678  0.38489081  1  0.095952  0.001436  0.955174  0.002  0.101907  0.001233  1.022248  0.002  0.104293  0.000876  1.018581  0.002  0.117977  0.099999  0.001495  1.025064  0.002
H  H24  1  0.30439729  0.59986557  0.68624052  1  0.101386  -0.000151  0.946057  0.0  0.114246  -7.1e-05  1.009706  0.0  0.116397  -6.7e-05  1.008809  0.0  0.09827  0.112651  -7.3e-05  1.010505  0.0
H  H25  1  0.69558708  0.40013278  0.31376543  1  0.101284  -0.00015  0.946249  0.0  0.114109  -7e-05  1.009931  0.0  0.116267  -6.7e-05  1.009026  0.0  0.098241  0.112516  -7.2e-05  1.010728  0.0
H  H26  1  0.52487414  0.54884866  0.66776689  1  0.077311  -8e-05  0.936313  0.0  0.093643  -9e-06  0.997263  0.0  0.09479  -1.6e-05  0.998062  0.0  0.090775  0.092738  -3e-06  0.996873  0.0
H  H27  1  0.47511087  0.45116210  0.33223657  1  0.077304  -8.1e-05  0.936334  0.0  0.093559  -9e-06  0.997368  0.0  0.094704  -1.6e-05  0.998173  0.0  0.090793  0.092655  -3e-06  0.996974  0.0
H  H28  1  0.70167136  0.33569451  0.59388174  1  0.117468  0.000678  0.920054  0.001  0.13183  0.000619  0.968851  0.001  0.134832  0.000445  0.968225  0.0  0.117108  0.129643  0.000734  0.96954  0.001
H  H29  1  0.29833057  0.66431906  0.40611721  1  0.117462  0.000678  0.920028  0.001  0.131811  0.000619  0.968841  0.001  0.134812  0.000445  0.968215  0.0  0.117087  0.129619  0.000734  0.969532  0.001
H  H30  1  0.77456874  0.12719499  0.01728410  1  0.125502  0.000543  0.969894  0.001  0.136388  0.000405  1.027029  0.001  0.139288  0.000315  1.026999  0.0  0.115805  0.1341  0.000516  1.02769  0.001
H  H31  1  0.22543141  0.87279797  0.98270939  1  0.125428  0.000543  0.969909  0.001  0.136316  0.000405  1.027064  0.001  0.139217  0.000316  1.027036  0.0  0.115809  0.134032  0.000516  1.027726  0.001
H  H32  1  0.75182617  0.99213981  0.25323195  1  0.092226  0.00095  0.949027  0.002  0.100532  0.000729  1.014408  0.001  0.102005  0.000535  1.012645  0.001  0.124027  0.099008  0.000834  1.016393  0.002
H  H33  1  0.24818172  0.00785918  0.74676571  1  0.092223  0.000953  0.949108  0.002  0.100557  0.000728  1.014429  0.001  0.10203  0.000536  1.012667  0.001  0.12403  0.099034  0.000834  1.016412  0.002
H  H34  1  0.35518306  0.55359535  0.90336526  1  0.068659  4e-05  0.961917  0.0  0.085593  4.9e-05  1.025138  0.0  0.085313  4.3e-05  1.028536  0.0  0.089572  0.085642  5.2e-05  1.022899  0.0
H  H35  1  0.64480669  0.44639771  0.09664194  1  0.06863  4e-05  0.961894  0.0  0.085558  4.9e-05  1.0251  0.0  0.085278  4.3e-05  1.028494  0.0  0.089551  0.085605  5.2e-05  1.022854  0.0
H  H36  1  0.28727354  0.41864133  0.90323066  1  0.035646  0.001015  0.995137  0.0  0.040845  0.000884  1.088512  0.0  0.040939  0.000861  1.085595  0.0  0.078542  0.040121  0.000845  1.090717  0.0
H  H37  1  0.71272113  0.58135066  0.09676918  1  0.035697  0.001016  0.995088  0.0  0.040881  0.000885  1.088447  0.0  0.040968  0.000861  1.085539  0.0  0.078556  0.040154  0.000845  1.090651  0.0
H  H38  1  0.65110105  0.40097234  0.87881299  1  0.099795  -0.00032  0.928708  0.0  0.118383  -0.000138  0.98829  0.0  0.12037  -0.000134  0.987265  0.0  0.10285  0.117483  -0.000146  0.988167  0.0
H  H39  1  0.34889470  0.59902690  0.12118232  1  0.099774  -0.00032  0.92876  0.0  0.118352  -0.000138  0.988334  0.0  0.120353  -0.000134  0.987286  0.0  0.102826  0.117455  -0.000146  0.988206  0.0
H  H40  1  0.59628413  0.27489004  0.85046558  1  0.082676  -0.000228  0.964701  0.0  0.10263  -8.8e-05  1.024799  0.0  0.103492  -9.4e-05  1.025706  0.0  0.098849  0.101731  -8.1e-05  1.024717  0.0
H  H41  1  0.40371167  0.72510919  0.14953155  1  0.082611  -0.000229  0.964685  0.0  0.102568  -8.7e-05  1.02479  0.0  0.103428  -9.4e-05  1.025705  0.0  0.098821  0.101672  -8.1e-05  1.024702  0.0
H  H42  1  0.06687082  0.11704404  0.45854923  1  0.412901  0.000147  0.881112  0.0  0.386577  9.3e-05  0.938561  0.0  0.397498  7.1e-05  0.922352  0.0  0.28483  0.3789  8.4e-05  0.949983  0.0
H  H43  1  0.93312627  0.88296239  0.54144973  1  0.412907  0.000148  0.88112  0.0  0.386594  9.3e-05  0.938532  0.0  0.397515  7.1e-05  0.922326  0.0  0.284833  0.378918  8.4e-05  0.949952  0.0
H  H44  1  0.08514138  0.00785960  0.59708671  1  0.413925  -0.000251  0.887446  0.0  0.38711  -0.00024  0.9461  0.0  0.397887  -0.000132  0.93025  0.0  0.282506  0.379531  -0.000382  0.957293  0.0
H  H45  1  0.91485606  0.99214578  0.40291251  1  0.413938  -0.000251  0.887443  0.0  0.387133  -0.00024  0.946077  0.0  0.397908  -0.000132  0.930231  0.0  0.282535  0.379559  -0.000382  0.957261  0.0
C  C46  1  0.00994337  0.74302417  0.05652365  1  0.662964  0.004649  3.871116  0.007  0.620705  0.000311  4.181772  0.002  0.657256  0.000291  4.175843  0.001  0.199004  0.596014  0.000231  4.184187  0.002
C  C47  1  0.99004448  0.25697100  0.94348335  1  0.663112  0.004647  3.870792  0.007  0.620947  0.00031  4.181268  0.002  0.657494  0.000292  4.175338  0.002  0.199233  0.596252  0.000231  4.18368  0.002
C  C48  1  0.75964928  0.88262314  0.95758399  1  -0.0528  0.000466  3.689391  0.0  -0.0933  0.000245  3.945496  0.0  -0.092737  0.000243  3.960279  0.0  -0.166275  -0.093527  0.000212  3.934903  0.0
C  C49  1  0.24034703  0.11737501  0.04241794  1  -0.052746  0.000471  3.689441  0.0  -0.093315  0.000247  3.945624  0.0  -0.09273  0.000241  3.960406  0.0  -0.166254  -0.093548  0.000212  3.935033  0.0
C  C50  1  0.00958512  0.76688513  0.80833835  1  0.695652  0.003904  3.805155  0.006  0.652054  -0.000105  4.1045  0.002  0.689611  6.9e-05  4.097459  0.001  0.210704  0.626938  -0.000225  4.107514  0.002
C  C51  1  0.99041130  0.23312023  0.19166664  1  0.695901  0.003902  3.805063  0.006  0.652128  -0.000106  4.104634  0.002  0.689687  6.7e-05  4.097589  0.001  0.210725  0.627015  -0.000226  4.107631  0.002
C  C52  1  0.95274966  0.83172888  0.92572336  1  -0.312615  0.000117  3.670703  0.0  -0.311645  -9.3e-05  3.900179  0.0  -0.324569  0.000133  3.911626  0.0  -0.103804  -0.303219  -0.00015  3.892585  0.0
C  C53  1  0.04724633  0.16827127  0.07428989  1  -0.312819  0.000117  3.670612  0.0  -0.311844  -9.3e-05  3.900195  0.0  -0.324763  0.000136  3.911624  0.0  -0.103902  -0.303389  -0.000149  3.892586  0.0
C  C54  1  0.68946088  0.99816872  0.84379625  1  -0.291803  -0.000174  3.707491  0.0  -0.369148  -0.000109  3.955372  0.0  -0.37177  -9.3e-05  3.967435  0.0  -0.255702  -0.366519  -0.000125  3.946302  0.0
C  C55  1  0.31053519  0.00183359  0.15620344  1  -0.291814  -0.000175  3.707546  0.0  -0.369135  -0.00011  3.955444  0.0  -0.371762  -9.3e-05  3.967501  0.0  -0.255734  -0.366506  -0.000125  3.946374  0.0
C  C56  1  0.43135652  0.39645069  0.65455587  1  0.158006  -0.009741  3.704706  -0.009  0.173705  -0.003063  3.940224  -0.003  0.179193  -0.00337  3.96298  -0.003  0.016835  0.170225  -0.00277  3.924303  -0.003
C  C57  1  0.56864346  0.60355051  0.34544224  1  0.158057  -0.009742  3.70475  -0.009  0.173755  -0.003064  3.940219  -0.003  0.179241  -0.003369  3.962984  -0.003  0.016842  0.170268  -0.00277  3.924299  -0.003
C  C58  1  0.38694119  0.23353171  0.28026268  1  0.136317  -0.007111  3.67606  -0.007  0.107058  -0.000568  3.931066  -0.001  0.117642  -0.001769  3.948584  -0.003  0.05002  0.100993  0.000334  3.918922  0.0
C  C59  1  0.61306279  0.76646838  0.71973657  1  0.136375  -0.007136  3.676074  -0.007  0.10709  -0.000569  3.931095  -0.001  0.117685  -0.001771  3.948603  -0.003  0.050033  0.10102  0.000333  3.918962  0.0
C  C60  1  0.29046511  0.36240073  0.65891556  1  -0.158227  0.012026  3.647024  0.012  -0.172586  0.00509  3.886355  0.006  -0.18174  0.004627  3.908001  0.005  -0.07832  -0.166787  0.005401  3.871934  0.006
C  C61  1  0.70954162  0.63759103  0.34108391  1  -0.158327  0.012033  3.646713  0.012  -0.172677  0.005093  3.886058  0.006  -0.181862  0.004627  3.907698  0.005  -0.07837  -0.166868  0.005402  3.871623  0.006
C  C62  1  0.39125153  0.31512013  0.15009442  1  -0.163406  0.010622  3.665109  0.011  -0.177244  0.004318  3.907427  0.005  -0.186356  0.004022  3.928004  0.005  -0.07834  -0.171457  0.004523  3.89382  0.005
C  C63  1  0.60875157  0.68487895  0.84990448  1  -0.16343  0.010651  3.66519  0.011  -0.177289  0.004318  3.907491  0.005  -0.186409  0.004022  3.928072  0.005  -0.078319  -0.17149  0.004522  3.893877  0.005
C  C64  1  0.59812020  0.20273005  0.55780427  1  0.127577  -0.008308  3.694037  -0.008  0.097126  -0.001197  3.956309  -0.002  0.106777  -0.002467  3.974095  -0.003  0.046417  0.091352  -0.00014  3.944494  -0.001
C  C65  1  0.40189522  0.79727502  0.44219120  1  0.127685  -0.008311  3.694136  -0.008  0.097209  -0.001198  3.956353  -0.002  0.106867  -0.002467  3.974154  -0.003  0.046612  0.091449  -0.00014  3.944521  -0.001
C  C66  1  0.30998463  0.24971260  0.61310907  1  0.113835  -0.006127  3.692085  -0.006  0.084387  0.000341  3.951791  0.0  0.093395  -0.001129  3.971169  -0.002  0.043663  0.07858  0.001499  3.939296  0.001
C  C67  1  0.69003187  0.75028523  0.38688304  1  0.113997  -0.006127  3.691835  -0.006  0.084603  0.000341  3.951509  0.0  0.09361  -0.001128  3.970893  -0.002  0.043721  0.078788  0.0015  3.939026  0.001
C  C68  1  0.41415261  0.51209059  0.71114538  1  -0.172894  0.00058  3.685002  0.001  -0.212081  6.2e-05  3.928955  0.0  -0.214871  1.2e-05  3.94181  0.0  -0.161601  -0.210087  0.00015  3.920247  0.0
C  C69  1  0.58583862  0.48791181  0.28885374  1  -0.172813  0.00058  3.685291  0.001  -0.211925  6.2e-05  3.929123  0.0  -0.214721  1.2e-05  3.94198  0.0  -0.161583  -0.209931  0.00015  3.920405  0.0
C  C70  1  0.58723618  0.31403390  0.60165299  1  -0.162575  0.010985  3.696734  0.011  -0.179975  0.004328  3.943453  0.005  -0.188083  0.004015  3.963594  0.005  -0.077373  -0.174521  0.004564  3.929438  0.005
C  C71  1  0.41277142  0.68597336  0.39834565  1  -0.162606  0.010987  3.697045  0.011  -0.180013  0.004327  3.94379  0.005  -0.188118  0.004014  3.963927  0.005  -0.077382  -0.174552  0.004563  3.929754  0.005
C  C72  1  0.66271245  0.16011434  0.09048324  1  -0.163064  0.01065  3.675287  0.011  -0.179369  0.004229  3.917477  0.005  -0.188326  0.003961  3.938051  0.005  -0.080163  -0.174839  0.00449  3.904856  0.005
C  C73  1  0.33728990  0.83987959  0.90951392  1  -0.162987  0.010681  3.675268  0.011  -0.179324  0.004228  3.917467  0.005  -0.188282  0.00396  3.938043  0.005  -0.080186  -0.174796  0.004489  3.904853  0.005
C  C74  1  0.65078431  0.08443096  0.22206015  1  0.129964  -0.006774  3.690843  -0.007  0.098758  -0.000592  3.95018  -0.001  0.108616  -0.001792  3.968774  -0.003  0.047152  0.092463  0.000301  3.938639  0.0
C  C75  1  0.34921961  0.91556914  0.77793728  1  0.129919  -0.006807  3.690763  -0.007  0.098721  -0.000591  3.95004  -0.001  0.108575  -0.001791  3.968636  -0.003  0.047125  0.092431  0.000301  3.938499  0.0
C  C76  1  0.53153697  0.27811529  0.05116754  1  0.167812  -0.009371  3.684274  -0.009  0.184601  -0.00295  3.915146  -0.003  0.191495  -0.003237  3.935396  -0.003  0.02109  0.179971  -0.002688  3.901314  -0.003
C  C77  1  0.46846021  0.72187252  0.94883029  1  0.167767  -0.009402  3.684448  -0.009  0.184578  -0.00295  3.915258  -0.003  0.191472  -0.003237  3.935516  -0.003  0.021045  0.179944  -0.002688  3.901436  -0.003
C  C78  1  0.39253209  0.46291878  0.86322908  1  -0.089448  0.000125  3.697275  0.0  -0.130998  0.000558  3.960653  0.0  -0.13157  0.000539  3.977228  0.0  -0.165283  -0.130589  0.000554  3.949713  0.0
C  C79  1  0.60746440  0.53707522  0.13677327  1  -0.089448  0.000125  3.697397  0.0  -0.130944  0.000556  3.960642  0.0  -0.131508  0.00054  3.977215  0.0  -0.165322  -0.130557  0.000554  3.949751  0.0
C  C80  1  0.54875979  0.35452719  0.90665932  1  -0.175714  0.000606  3.700534  0.001  -0.215629  9.6e-05  3.939828  0.0  -0.218299  4.3e-05  3.952442  0.0  -0.161748  -0.213798  0.000163  3.930831  0.0
C  C81  1  0.45123943  0.64546887  0.09333705  1  -0.175668  0.000608  3.700615  0.001  -0.215563  9.6e-05  3.939804  0.0  -0.218239  4.3e-05  3.952414  0.0  -0.161667  -0.213733  0.000163  3.930795  0.0
N  N82  1  0.51407444  0.11992135  0.31569632  1  -0.30123  0.09129  3.378697  0.111  -0.252937  0.06181  3.679654  0.08  -0.283097  0.053262  3.702264  0.072  -0.359424  -0.234769  0.066271  3.665784  0.083
N  N83  1  0.48593354  0.88008077  0.68429844  1  -0.301174  0.091312  3.378545  0.111  -0.252876  0.06181  3.679493  0.08  -0.283034  0.053263  3.702096  0.072  -0.359364  -0.234711  0.06627  3.665633  0.083
N  N84  1  0.46203309  0.17016194  0.56438218  1  -0.307413  0.098674  3.340384  0.12  -0.260474  0.068934  3.637907  0.089  -0.291015  0.058842  3.66287  0.08  -0.347593  -0.242075  0.074373  3.622461  0.093
N  N85  1  0.53798607  0.82983579  0.43561749  1  -0.307455  0.098673  3.340389  0.12  -0.260583  0.068935  3.637968  0.089  -0.291124  0.058841  3.662926  0.08  -0.347748  -0.242195  0.074373  3.622535  0.093
O  O86  1  0.04672287  0.60781625  0.08739104  1  -0.637987  -0.089169  2.079311  -0.112  -0.610526  -0.057805  2.376541  -0.081  -0.654647  -0.045436  2.362555  -0.067  -0.347748  -0.583198  -0.063985  2.384773  -0.086
O  O87  1  0.95325207  0.39218536  0.91261632  1  -0.638217  -0.089198  2.079057  -0.112  -0.610832  -0.057817  2.376306  -0.081  -0.654961  -0.045442  2.362327  -0.067  -0.347905  -0.583491  -0.064002  2.384527  -0.086
O  O88  1  0.01450251  0.80577832  0.13239450  1  -0.589081  -0.019254  1.856357  -0.023  -0.555329  -0.009844  2.078577  -0.013  -0.578973  -0.005404  2.069503  -0.008  -0.328312  -0.536583  -0.015216  2.083305  -0.019
O  O89  1  0.98547970  0.19422726  0.86761877  1  -0.588998  -0.019252  1.856508  -0.023  -0.555247  -0.009843  2.07865  -0.013  -0.578889  -0.005406  2.069583  -0.008  -0.328318  -0.536507  -0.015217  2.083382  -0.019
O  O90  1  0.01139067  0.64028905  0.82848462  1  -0.617285  -0.0834  2.056686  -0.105  -0.586211  -0.057037  2.343078  -0.08  -0.629508  -0.045257  2.330622  -0.067  -0.334817  -0.558375  -0.064209  2.350645  -0.086
O  O91  1  0.98862218  0.35971296  0.17151164  1  -0.617265  -0.083391  2.056648  -0.105  -0.586147  -0.057033  2.343177  -0.08  -0.629449  -0.045249  2.330733  -0.067  -0.334789  -0.558306  -0.064204  2.350732  -0.086
O  O92  1  0.04334051  0.84171821  0.69186679  1  -0.645716  -0.013719  1.935458  -0.017  -0.588661  -0.00815  2.155022  -0.011  -0.615744  -0.004751  2.144155  -0.007  -0.319123  -0.569319  -0.010955  2.161174  -0.014
O  O93  1  0.95664762  0.15829042  0.30813747  1  -0.645796  -0.013719  1.935441  -0.017  -0.588668  -0.008149  2.155075  -0.011  -0.615748  -0.004753  2.144206  -0.007  -0.319114  -0.569336  -0.010955  2.161233  -0.014
O  O94  1  0.13189951  0.07999603  0.52878446  1  -0.843116  -0.000786  1.770212  -0.001  -0.805748  -0.000804  1.925471  -0.001  -0.822953  -0.000706  1.890761  -0.001  -0.601343  -0.793521  -0.000792  1.949968  -0.001
O  O95  1  0.86810012  0.92000622  0.47121339  1  -0.843126  -0.000788  1.770237  -0.001  -0.805774  -0.000804  1.925491  -0.001  -0.822976  -0.000707  1.890782  -0.001  -0.601369  -0.793554  -0.000792  1.949988  -0.001
