# generated using pymatgen
data_ZnH14(C5O2)2
_symmetry_space_group_name_H-M   'P 1'
_cell_length_a   6.81012671
_cell_length_b   12.40666888
_cell_length_c   12.75336639
_cell_angle_alpha   90.00011623
_cell_angle_beta   102.88171802
_cell_angle_gamma   90.00012863
_symmetry_Int_Tables_number   1
_chemical_formula_structural   ZnH14(C5O2)2
_chemical_formula_sum   'Zn4 H56 C40 O16'
_cell_volume   1050.42528347
_cell_formula_units_Z   4
loop_
 _symmetry_equiv_pos_site_id
 _symmetry_equiv_pos_as_xyz
  1  'x, y, z'
loop_
 _atom_site_type_symbol
 _atom_site_label
 _atom_site_symmetry_multiplicity
 _atom_site_fract_x
 _atom_site_fract_y
 _atom_site_fract_z
 _atom_site_occupancy
 _atom_site_hle17_bader_spin_density
 _atom_site_hle17_ddec_charge
 _atom_site_hle17_ddec_spin_density
 _atom_site_hle17_ddec_sum_bond_order
 _atom_site_hle17_magmom
 _atom_site_hse06_10hf_bader_spin_density
 _atom_site_hse06_10hf_ddec_charge
 _atom_site_hse06_10hf_ddec_spin_density
 _atom_site_hse06_10hf_ddec_sum_bond_order
 _atom_site_hse06_10hf_magmom
 _atom_site_hse06_bader_spin_density
 _atom_site_hse06_ddec_charge
 _atom_site_hse06_ddec_spin_density
 _atom_site_hse06_ddec_sum_bond_order
 _atom_site_hse06_magmom
 _atom_site_pbe_bader_spin_density
 _atom_site_pbe_cm5_charge
 _atom_site_pbe_ddec_charge
 _atom_site_pbe_ddec_spin_density
 _atom_site_pbe_ddec_sum_bond_order
 _atom_site_pbe_magmom
Zn  Zn0  1  0.20558017  0.54195409  0.26233021  1  0  1.152182  0  1.776478  0  0  0.979957  0  2.258653  0  0  1.030082  0  2.192809  0  0  0.701404  0.944532  0  2.304285  0
Zn  Zn1  1  0.79442594  0.04194886  0.73767284  1  0  1.152232  0  1.776385  0  0  0.979939  0  2.258537  0  0  1.030063  0  2.192695  0  0  0.701417  0.944508  0  2.304167  0
Zn  Zn2  1  0.69648639  0.44841437  0.26061143  1  0  1.170738  0  1.751395  0  0  0.996467  0  2.230833  0  0  1.046907  0  2.165291  0  0  0.708744  0.960793  0  2.276239  0
Zn  Zn3  1  0.30350677  0.94840703  0.73938857  1  0  1.170733  0  1.751511  0  0  0.996461  0  2.230992  0  0  1.046894  0  2.16545  0  0  0.708738  0.960783  0  2.276395  0
H  H4  1  0.22735245  0.51590966  0.66114136  1  0  0.072242  0  0.933139  0  0  0.094393  0  0.98626  0  0  0.094985  0  0.986893  0  0  0.090245  0.093917  0  0.985867  0
H  H5  1  0.77264598  0.01591323  0.33885919  1  0  0.072301  0  0.933143  0  0  0.094433  0  0.986262  0  0  0.095025  0  0.986894  0  0  0.090277  0.09396  0  0.98587  0
H  H6  1  0.36569971  0.38181507  0.79109423  1  0  0.065153  0  0.944791  0  0  0.084141  0  1.00572  0  0  0.084599  0  1.006421  0  0  0.087847  0.083731  0  1.005324  0
H  H7  1  0.63430956  0.88181506  0.20890045  1  0  0.065043  0  0.944781  0  0  0.084147  0  1.005581  0  0  0.08463  0  1.00625  0  0  0.087854  0.083735  0  1.005184  0
H  H8  1  0.20138367  0.22652421  0.71135237  1  0  0.092191  0  0.948312  0  0  0.102121  0  1.011253  0  0  0.10389  0  1.011366  0  0  0.104956  0.100807  0  1.011328  0
H  H9  1  0.79862033  0.72652215  0.28864531  1  0  0.092182  0  0.94809  0  0  0.102097  0  1.011097  0  0  0.103864  0  1.011213  0  0  0.104942  0.100783  0  1.011172  0
H  H10  1  0.14084140  0.10103419  0.50810799  1  0  0.102046  0  0.976  0  0  0.123743  0  1.038444  0  0  0.124679  0  1.039171  0  0  0.084834  0.123018  0  1.037995  0
H  H11  1  0.85914535  0.60103827  0.49188668  1  0  0.102002  0  0.976066  0  0  0.123716  0  1.038461  0  0  0.124652  0  1.03919  0  0  0.084819  0.12299  0  1.038009  0
H  H12  1  0.00397150  0.24141639  0.24646381  1  0  0.102699  0  0.968852  0  0  0.121902  0  1.036403  0  0  0.12336  0  1.036314  0  0  0.086778  0.120823  0  1.036534  0
H  H13  1  0.99603416  0.74140911  0.75353958  1  0  0.102662  0  0.968991  0  0  0.121898  0  1.036508  0  0  0.123355  0  1.036412  0  0  0.086773  0.120818  0  1.036636  0
H  H14  1  0.30819556  0.27407578  0.39540833  1  0  0.100826  0  0.972704  0  0  0.12247  0  1.036568  0  0  0.123078  0  1.037992  0  0  0.086166  0.121989  0  1.035621  0
H  H15  1  0.69180868  0.77407346  0.60458947  1  0  0.100865  0  0.972785  0  0  0.12251  0  1.036649  0  0  0.123116  0  1.038072  0  0  0.086195  0.122027  0  1.035698  0
H  H16  1  0.39675638  0.48030302  0.58095070  1  0  0.082039  0  0.94606  0  0  0.095677  0  1.009537  0  0  0.097653  0  1.008431  0  0  0.091135  0.094225  0  1.01036  0
H  H17  1  0.60323836  0.98030342  0.41904328  1  0  0.082052  0  0.946053  0  0  0.095679  0  1.009534  0  0  0.097656  0  1.008426  0  0  0.091146  0.09423  0  1.010359  0
H  H18  1  0.27283861  0.10371805  0.26620953  1  0  0.071994  0  0.934796  0  0  0.093622  0  0.989629  0  0  0.094067  0  0.990676  0  0  0.090303  0.09316  0  0.989094  0
H  H19  1  0.72715125  0.60371282  0.73379099  1  0  0.071942  0  0.934796  0  0  0.093631  0  0.9896  0  0  0.094044  0  0.990684  0  0  0.090292  0.093165  0  0.989066  0
H  H20  1  0.45780428  0.18655207  0.48930524  1  0  0.111009  0  0.939771  0  0  0.136016  0  0.994612  0  0  0.13749  0  0.99449  0  0  0.091465  0.134902  0  0.994769  0
H  H21  1  0.54219801  0.68655501  0.51069295  1  0  0.110989  0  0.939838  0  0  0.136013  0  0.994659  0  0  0.137488  0  0.994539  0  0  0.091463  0.1349  0  0.994813  0
H  H22  1  0.56205954  0.36997874  0.72267371  1  0  0.080946  0  0.944038  0  0  0.099916  0  1.001721  0  0  0.100969  0  1.002192  0  0  0.093182  0.099082  0  1.00147  0
H  H23  1  0.43794814  0.86998025  0.27731918  1  0  0.08099  0  0.943938  0  0  0.09992  0  1.001669  0  0  0.100971  0  1.002148  0  0  0.093201  0.099094  0  1.001415  0
H  H24  1  0.49116434  0.32862006  0.50249042  1  0  0.111793  0  0.957086  0  0  0.135632  0  1.013534  0  0  0.137085  0  1.013715  0  0  0.092072  0.134561  0  1.013477  0
H  H25  1  0.50883576  0.82862051  0.49751329  1  0  0.111807  0  0.957065  0  0  0.135638  0  1.013519  0  0  0.137092  0  1.013699  0  0  0.092067  0.134566  0  1.013466  0
H  H26  1  0.48252389  0.13482558  0.21247408  1  0  0.08159  0  0.948541  0  0  0.095824  0  1.010953  0  0  0.097658  0  1.010022  0  0  0.091448  0.094469  0  1.011657  0
H  H27  1  0.51748122  0.63481941  0.78752982  1  0  0.081475  0  0.948462  0  0  0.095742  0  1.010893  0  0  0.097579  0  1.009954  0  0  0.091414  0.094386  0  1.011596  0
H  H28  1  0.43332811  0.21465191  0.91577144  1  0  0.101299  0  0.961343  0  0  0.124939  0  1.021193  0  0  0.125629  0  1.022352  0  0  0.086491  0.124407  0  1.020401  0
H  H29  1  0.56668797  0.71466043  0.08423466  1  0  0.101261  0  0.961421  0  0  0.124905  0  1.021274  0  0  0.125595  0  1.022436  0  0  0.086484  0.124375  0  1.020479  0
H  H30  1  0.81245214  0.33434947  0.54234834  1  0  0.110645  0  0.972444  0  0  0.129999  0  1.035617  0  0  0.131799  0  1.035251  0  0  0.090817  0.128705  0  1.035883  0
H  H31  1  0.18754502  0.83435268  0.45765817  1  0  0.1107  0  0.972388  0  0  0.130039  0  1.035567  0  0  0.131839  0  1.035202  0  0  0.090795  0.128747  0  1.035831  0
H  H32  1  0.87762042  0.46263461  0.60152659  1  0  0.096382  0  0.958468  0  0  0.117585  0  1.023081  0  0  0.118718  0  1.023178  0  0  0.086302  0.116723  0  1.023044  0
H  H33  1  0.12238040  0.96263761  0.39847825  1  0  0.096365  0  0.958552  0  0  0.117571  0  1.02314  0  0  0.118707  0  1.023233  0  0  0.086286  0.116712  0  1.023105  0
H  H34  1  0.96127141  0.34394454  0.67518522  1  0  0.107011  0  0.955006  0  0  0.129869  0  1.015456  0  0  0.131308  0  1.015327  0  0  0.090667  0.128789  0  1.01563  0
H  H35  1  0.03872880  0.84394890  0.32482009  1  0  0.107077  0  0.954971  0  0  0.1299  0  1.015448  0  0  0.131335  0  1.01533  0  0  0.090703  0.128822  0  1.015621  0
H  H36  1  0.08241476  0.28102724  0.86074345  1  0  0.10423  0  0.971905  0  0  0.124036  0  1.039495  0  0  0.125485  0  1.039317  0  0  0.085763  0.122965  0  1.039672  0
H  H37  1  0.91760455  0.78103307  0.13925374  1  0  0.104345  0  0.971834  0  0  0.12414  0  1.039429  0  0  0.125591  0  1.039243  0  0  0.085836  0.123067  0  1.039608  0
H  H38  1  0.11838999  0.37750452  0.96693334  1  0  0.107523  0  0.954688  0  0  0.128523  0  1.016293  0  0  0.129867  0  1.016349  0  0  0.086818  0.127535  0  1.016286  0
H  H39  1  0.88162525  0.87750363  0.03305966  1  0  0.107494  0  0.954689  0  0  0.128468  0  1.016333  0  0  0.129813  0  1.016384  0  0  0.086775  0.127477  0  1.016329  0
H  H40  1  0.38777616  0.99210789  0.08985789  1  0  0.078973  0  0.948133  0  0  0.094196  0  1.012094  0  0  0.095903  0  1.011297  0  0  0.091469  0.092911  0  1.012756  0
H  H41  1  0.61224131  0.49210441  0.91014343  1  0  0.079035  0  0.948176  0  0  0.094217  0  1.012166  0  0  0.095922  0  1.011368  0  0  0.091489  0.092933  0  1.012826  0
H  H42  1  0.15613487  0.97582945  0.12698689  1  0  0.070437  0  0.949412  0  0  0.090104  0  1.00868  0  0  0.090619  0  1.00946  0  0  0.090034  0.089683  0  1.008169  0
H  H43  1  0.84387946  0.47582617  0.87301168  1  0  0.070429  0  0.949391  0  0  0.090118  0  1.008602  0  0  0.090643  0  1.009376  0  0  0.09002  0.089699  0  1.008093  0
H  H44  1  0.98546234  0.09360775  0.99176863  1  0  0.086052  0  0.921156  0  0  0.100373  0  0.973984  0  0  0.102104  0  0.973551  0  0  0.107133  0.099065  0  0.974481  0
H  H45  1  0.01453499  0.59360577  0.00823194  1  0  0.086085  0  0.92124  0  0  0.100418  0  0.974035  0  0  0.102149  0  0.973602  0  0  0.107159  0.099108  0  0.97453  0
H  H46  1  0.91717501  0.28271564  0.94927223  1  0  0.108576  0  0.947963  0  0  0.132627  0  1.005342  0  0  0.133876  0  1.00559  0  0  0.090032  0.13168  0  1.005246  0
H  H47  1  0.08284121  0.78271463  0.05071834  1  0  0.108514  0  0.948064  0  0  0.132537  0  1.005466  0  0  0.133787  0  1.005716  0  0  0.089996  0.131588  0  1.005373  0
H  H48  1  0.54020188  0.17649175  0.05008732  1  0  0.106597  0  0.955483  0  0  0.130384  0  1.013073  0  0  0.131657  0  1.013365  0  0  0.089944  0.129441  0  1.012926  0
H  H49  1  0.45980350  0.67649471  0.94991983  1  0  0.106675  0  0.955472  0  0  0.130453  0  1.013079  0  0  0.131731  0  1.013361  0  0  0.089983  0.129508  0  1.012936  0
H  H50  1  0.48459709  0.31378639  0.01783976  1  0  0.114719  0  0.959846  0  0  0.135125  0  1.022699  0  0  0.137115  0  1.022069  0  0  0.089549  0.133655  0  1.023242  0
H  H51  1  0.51541795  0.81379191  0.98216250  1  0  0.114765  0  0.959685  0  0  0.135205  0  1.022525  0  0  0.137198  0  1.021886  0  0  0.089546  0.133733  0  1.023068  0
H  H52  1  0.95379053  0.17004358  0.55827573  1  0  0.107602  0  0.96402  0  0  0.129883  0  1.024808  0  0  0.131235  0  1.02509  0  0  0.087908  0.128884  0  1.02466  0
H  H53  1  0.04620413  0.67004094  0.44172076  1  0  0.107589  0  0.964039  0  0  0.129847  0  1.024851  0  0  0.131199  0  1.025135  0  0  0.087925  0.128847  0  1.024703  0
H  H54  1  0.98141963  0.19644861  0.42570964  1  0  0.10663  0  0.957829  0  0  0.127197  0  1.021245  0  0  0.128823  0  1.020904  0  0  0.086821  0.125988  0  1.021571  0
H  H55  1  0.01857519  0.69644783  0.57428849  1  0  0.10662  0  0.957867  0  0  0.127205  0  1.021264  0  0  0.128832  0  1.020923  0  0  0.086815  0.125993  0  1.02159  0
H  H56  1  0.91689164  0.15798266  0.13328537  1  0  0.102625  0  0.949644  0  0  0.126857  0  1.005895  0  0  0.128309  0  1.00559  0  0  0.089622  0.125806  0  1.006136  0
H  H57  1  0.08311359  0.65798097  0.86671859  1  0  0.102611  0  0.949599  0  0  0.126827  0  1.005884  0  0  0.128278  0  1.005579  0  0  0.089649  0.125776  0  1.006125  0
H  H58  1  0.91299849  0.30074860  0.11850335  1  0  0.108835  0  0.970918  0  0  0.126924  0  1.037752  0  0  0.128466  0  1.037898  0  0  0.088347  0.125789  0  1.037714  0
H  H59  1  0.08699535  0.80074533  0.88149331  1  0  0.108826  0  0.971007  0  0  0.126943  0  1.037809  0  0  0.128485  0  1.037954  0  0  0.08837  0.125807  0  1.037772  0
C  C60  1  0.21939480  0.26624623  0.54905809  1  0  0.180825  0  3.474889  0  0  0.209826  0  3.700443  0  0  0.210666  0  3.721045  0  0  -0.000624  0.209206  0  3.686443  0
C  C61  1  0.78059890  0.76624369  0.45094162  1  0  0.18084  0  3.474797  0  0  0.209789  0  3.700423  0  0  0.210633  0  3.721018  0  0  -0.000669  0.209164  0  3.686427  0
C  C62  1  0.29144165  0.44705637  0.62615382  1  0  -0.141851  0  3.630833  0  0  -0.189884  0  3.886958  0  0  -0.190448  0  3.899983  0  0  -0.165673  -0.189318  0  3.877896  0
C  C63  1  0.70856505  0.94705519  0.37384696  1  0  -0.141998  0  3.630837  0  0  -0.190022  0  3.886947  0  0  -0.190585  0  3.899972  0  0  -0.16573  -0.189462  0  3.877893  0
C  C64  1  0.32055245  0.25349360  0.67157734  1  0  -0.190471  0  3.588336  0  0  -0.189985  0  3.815926  0  0  -0.198183  0  3.830459  0  0  -0.086746  -0.18435  0  3.805899  0
C  C65  1  0.67944418  0.75349310  0.32842112  1  0  -0.19044  0  3.58791  0  0  -0.190001  0  3.815539  0  0  -0.198204  0  3.830079  0  0  -0.086721  -0.184364  0  3.805512  0
C  C66  1  0.99897438  0.23278848  0.16021695  1  0  -0.32543  0  3.67844  0  0  -0.412262  0  3.92254  0  0  -0.414193  0  3.932743  0  0  -0.247485  -0.4107  0  3.915487  0
C  C67  1  0.00102059  0.73278259  0.83977813  1  0  -0.325351  0  3.678554  0  0  -0.412224  0  3.922689  0  0  -0.414146  0  3.932881  0  0  -0.247514  -0.410661  0  3.915635  0
C  C68  1  0.12433806  0.38288989  0.55019755  1  0  -0.024314  0  3.520418  0  0  0.008023  0  3.741055  0  0  0.001364  0  3.759496  0  0  -0.009184  0.012526  0  3.728387  0
C  C69  1  0.87566083  0.88288908  0.44980691  1  0  -0.024137  0  3.520282  0  0  0.008232  0  3.740711  0  0  0.001575  0  3.759153  0  0  -0.009134  0.012743  0  3.728043  0
C  C70  1  0.07350993  0.42623579  0.43507568  1  0  0.693909  0  3.768913  0  0  0.639619  0  4.059723  0  0  0.674555  0  4.053173  0  0  0.239316  0.61574  0  4.063548  0
C  C71  1  0.92646815  0.92623688  0.56492960  1  0  0.693822  0  3.76888  0  0  0.63968  0  4.05941  0  0  0.674609  0  4.052864  0  0  0.239393  0.615794  0  4.063239  0
C  C72  1  0.39806145  0.36596869  0.71195939  1  0  -0.109644  0  3.636163  0  0  -0.159398  0  3.899648  0  0  -0.159344  0  3.912809  0  0  -0.167553  -0.159226  0  3.89046  0
C  C73  1  0.60195081  0.86596961  0.28803951  1  0  -0.1096  0  3.635947  0  0  -0.159374  0  3.89942  0  0  -0.159336  0  3.912586  0  0  -0.167587  -0.159205  0  3.89024  0
C  C74  1  0.15011658  0.09519728  0.00084499  1  0  -0.183486  0  3.59534  0  0  -0.183624  0  3.822635  0  0  -0.191442  0  3.837362  0  0  -0.084192  -0.178232  0  3.812436  0
C  C75  1  0.84988828  0.59520001  0.99915567  1  0  -0.183559  0  3.595407  0  0  -0.183658  0  3.822661  0  0  -0.191478  0  3.837394  0  0  -0.084177  -0.178262  0  3.812461  0
C  C76  1  0.06410242  0.17871897  0.50811900  1  0  -0.345034  0  3.669999  0  0  -0.431533  0  3.910686  0  0  -0.434901  0  3.922191  0  0  -0.253263  -0.428957  0  3.902752  0
C  C77  1  0.93588927  0.67871993  0.49187717  1  0  -0.344982  0  3.670114  0  0  -0.43149  0  3.910814  0  0  -0.434847  0  3.922294  0  0  -0.253254  -0.428913  0  3.902876  0
C  C78  1  0.21457283  0.22819449  0.14175645  1  0  -0.022161  0  3.513969  0  0  0.007241  0  3.738307  0  0  0.000721  0  3.756691  0  0  -0.010891  0.011666  0  3.725673  0
C  C79  1  0.78542366  0.72819120  0.85824194  1  0  -0.022154  0  3.513889  0  0  0.007194  0  3.738383  0  0  0.000677  0  3.756757  0  0  -0.010931  0.01162  0  3.725747  0
C  C80  1  0.37885152  0.26443110  0.48092365  1  0  -0.344906  0  3.645834  0  0  -0.428682  0  3.880831  0  0  -0.431784  0  3.891675  0  0  -0.248562  -0.426303  0  3.873333  0
C  C81  1  0.62114669  0.76443335  0.51907658  1  0  -0.344945  0  3.645997  0  0  -0.428735  0  3.880989  0  0  -0.431835  0  3.891824  0  0  -0.248581  -0.426354  0  3.873487  0
C  C82  1  0.25656833  0.03611229  0.10405614  1  0  -0.115464  0  3.6421  0  0  -0.165181  0  3.904783  0  0  -0.165144  0  3.917615  0  0  -0.167635  -0.165008  0  3.89581  0
C  C83  1  0.74343771  0.53611065  0.89594454  1  0  -0.115642  0  3.642341  0  0  -0.165307  0  3.905  0  0  -0.165273  0  3.91783  0  0  -0.167679  -0.165135  0  3.896031  0
C  C84  1  0.21666894  0.21624756  0.01817996  1  0  0.181343  0  3.471455  0  0  0.208519  0  3.70175  0  0  0.209226  0  3.72254  0  0  0.000112  0.208016  0  3.687575  0
C  C85  1  0.78333198  0.71625017  0.98181656  1  0  0.181336  0  3.471502  0  0  0.208542  0  3.701758  0  0  0.209245  0  3.722558  0  0  0.000105  0.20804  0  3.687583  0
C  C86  1  0.47486818  0.16476805  0.69260376  1  0  0.705846  0  3.781061  0  0  0.65062  0  4.078658  0  0  0.685653  0  4.071568  0  0  0.225626  0.626651  0  4.082865  0
C  C87  1  0.52511599  0.66477134  0.30739700  1  0  0.705858  0  3.781005  0  0  0.650739  0  4.078447  0  0  0.685772  0  4.071356  0  0  0.225614  0.626769  0  4.082657  0
C  C88  1  0.31884583  0.12377818  0.19127046  1  0  -0.144482  0  3.629168  0  0  -0.1922  0  3.88609  0  0  -0.192851  0  3.89923  0  0  -0.166174  -0.191535  0  3.876919  0
C  C89  1  0.68116224  0.62377385  0.80873454  1  0  -0.144249  0  3.629222  0  0  -0.192091  0  3.88625  0  0  -0.192721  0  3.89939  0  0  -0.166147  -0.191428  0  3.877082  0
C  C90  1  0.32546655  0.33120936  0.18701461  1  0  0.685069  0  3.768718  0  0  0.633873  0  4.057785  0  0  0.668819  0  4.050867  0  0  0.234621  0.609951  0  4.061888  0
C  C91  1  0.67452596  0.83120343  0.81298274  1  0  0.685163  0  3.768657  0  0  0.633883  0  4.057862  0  0  0.668827  0  4.050949  0  0  0.234672  0.60996  0  4.061963  0
C  C92  1  0.18544970  0.04990890  0.89715941  1  0  0.701898  0  3.788617  0  0  0.64961  0  4.081215  0  0  0.684527  0  4.074232  0  0  0.224843  0.62568  0  4.085348  0
C  C93  1  0.81454887  0.54991211  0.10283886  1  0  0.702076  0  3.788485  0  0  0.649671  0  4.081233  0  0  0.684582  0  4.074255  0  0  0.224772  0.625742  0  4.08537  0
C  C94  1  0.43101589  0.23087932  0.00015338  1  0  -0.347384  0  3.645293  0  0  -0.429825  0  3.880474  0  0  -0.433131  0  3.891615  0  0  -0.248725  -0.427303  0  3.872797  0
C  C95  1  0.56899124  0.73088332  0.99985173  1  0  -0.347455  0  3.645238  0  0  -0.429939  0  3.8804  0  0  -0.433245  0  3.891544  0  0  -0.248724  -0.427415  0  3.872719  0
C  C96  1  0.93249904  0.38022251  0.59471547  1  0  -0.318328  0  3.676612  0  0  -0.40619  0  3.918853  0  0  -0.408022  0  3.929097  0  0  -0.244901  -0.404665  0  3.911787  0
C  C97  1  0.06749533  0.88022788  0.40528925  1  0  -0.318476  0  3.676744  0  0  -0.40631  0  3.91898  0  0  -0.408146  0  3.929225  0  0  -0.244903  -0.404793  0  3.911913  0
C  C98  1  0.07493603  0.29384624  0.94490459  1  0  -0.346113  0  3.674704  0  0  -0.433133  0  3.919917  0  0  -0.436001  0  3.930634  0  0  -0.250572  -0.430902  0  3.912501  0
C  C99  1  0.92507880  0.79384706  0.05509055  1  0  -0.346145  0  3.67471  0  0  -0.43312  0  3.919936  0  0  -0.435985  0  3.930653  0  0  -0.25058  -0.430887  0  3.912523  0
O  O100  1  0.19852513  0.48989514  0.40658473  1  0  -0.638069  0  2.116794  0  0  -0.565617  0  2.39645  0  0  -0.595328  0  2.381093  0  0  -0.306482  -0.54505  0  2.406489  0
O  O101  1  0.80146366  0.98990179  0.59341015  1  0  -0.638049  0  2.117005  0  0  -0.565659  0  2.396583  0  0  -0.595358  0  2.381218  0  0  -0.306524  -0.545092  0  2.406626  0
O  O102  1  0.22698340  0.41974957  0.16695028  1  0  -0.670464  0  2.084657  0  0  -0.597897  0  2.366479  0  0  -0.626952  0  2.34883  0  0  -0.325538  -0.577669  0  2.378109  0
O  O103  1  0.77301259  0.91974299  0.83304764  1  0  -0.670536  0  2.08479  0  0  -0.59783  0  2.366522  0  0  -0.626884  0  2.34888  0  0  -0.325523  -0.5776  0  2.37815  0
O  O104  1  0.42050375  0.06690288  0.66865373  1  0  -0.697165  0  2.111078  0  0  -0.622275  0  2.403845  0  0  -0.650827  0  2.38313  0  0  -0.32983  -0.602126  0  2.417146  0
O  O105  1  0.57947684  0.56690790  0.33134329  1  0  -0.697186  0  2.111175  0  0  -0.622252  0  2.403867  0  0  -0.650808  0  2.38315  0  0  -0.329814  -0.602105  0  2.417176  0
O  O106  1  0.66041491  0.18598824  0.73113460  1  0  -0.607948  0  1.992047  0  0  -0.534054  0  2.246032  0  0  -0.562798  0  2.232208  0  0  -0.299639  -0.514234  0  2.255002  0
O  O107  1  0.33956487  0.68599365  0.26886727  1  0  -0.607898  0  1.991976  0  0  -0.534162  0  2.246061  0  0  -0.562903  0  2.232228  0  0  -0.29966  -0.514352  0  2.255061  0
O  O108  1  0.50680095  0.32424714  0.23987962  1  0  -0.621161  0  2.058548  0  0  -0.546563  0  2.320431  0  0  -0.575344  0  2.305277  0  0  -0.303437  -0.526601  0  2.330306  0
O  O109  1  0.49319303  0.82424491  0.76011788  1  0  -0.621261  0  2.058616  0  0  -0.5466  0  2.320482  0  0  -0.575394  0  2.305365  0  0  -0.30349  -0.52664  0  2.330357  0
O  O110  1  0.32460499  0.98127501  0.89678852  1  0  -0.616343  0  2.016796  0  0  -0.54622  0  2.273815  0  0  -0.575447  0  2.260897  0  0  -0.299102  -0.526044  0  2.282236  0
O  O111  1  0.67540178  0.48127636  0.10320527  1  0  -0.616431  0  2.01683  0  0  -0.546228  0  2.273824  0  0  -0.575453  0  2.260905  0  0  -0.29904  -0.526053  0  2.282251  0
O  O112  1  0.91175817  0.39115912  0.37370585  1  0  -0.658763  0  2.10804  0  0  -0.579736  0  2.389084  0  0  -0.608817  0  2.371149  0  0  -0.316898  -0.559562  0  2.400954  0
O  O113  1  0.08821834  0.89116015  0.62630781  1  0  -0.658782  0  2.107922  0  0  -0.579757  0  2.388828  0  0  -0.608839  0  2.370897  0  0  -0.316934  -0.559579  0  2.400694  0
O  O114  1  0.07743382  0.08401136  0.80734375  1  0  -0.695442  0  2.107527  0  0  -0.623566  0  2.400346  0  0  -0.651986  0  2.380807  0  0  -0.329684  -0.603662  0  2.413281  0
O  O115  1  0.92256644  0.58401328  0.19265558  1  0  -0.695537  0  2.10741  0  0  -0.623598  0  2.400255  0  0  -0.652018  0  2.38072  0  0  -0.32969  -0.603693  0  2.413193  0
