# generated using pymatgen
data_ZnH9C17(NO)4
_symmetry_space_group_name_H-M   'P 1'
_cell_length_a   10.08389948
_cell_length_b   10.37906307
_cell_length_c   13.46505968
_cell_angle_alpha   93.87765912
_cell_angle_beta   90.00065009
_cell_angle_gamma   89.99998155
_symmetry_Int_Tables_number   1
_chemical_formula_structural   ZnH9C17(NO)4
_chemical_formula_sum   'Zn4 H36 C68 N16 O16'
_cell_volume   1406.04616971
_cell_formula_units_Z   4
loop_
 _symmetry_equiv_pos_site_id
 _symmetry_equiv_pos_as_xyz
  1  'x, y, z'
loop_
 _atom_site_type_symbol
 _atom_site_label
 _atom_site_symmetry_multiplicity
 _atom_site_fract_x
 _atom_site_fract_y
 _atom_site_fract_z
 _atom_site_occupancy
 _atom_site_pbe_bader_spin_density
 _atom_site_pbe_cm5_charge
 _atom_site_pbe_ddec_charge
 _atom_site_pbe_ddec_spin_density
 _atom_site_pbe_ddec_sum_bond_order
 _atom_site_pbe_magmom
Zn  Zn0  1  0.88267199  0.17122165  0.31197292  1  0  0.716235  0.721745  0  2.495485  0
Zn  Zn1  1  0.38267198  0.82878783  0.18799655  1  0  0.716302  0.721849  0  2.495144  0
Zn  Zn2  1  0.11731937  0.82878436  0.68801037  1  0  0.716279  0.721785  0  2.495162  0
Zn  Zn3  1  0.61732733  0.17121443  0.81199474  1  0  0.716288  0.721721  0  2.495254  0
H  H4  1  0.61344630  0.30115882  0.37395298  1  0  0.118583  0.090525  0  1.0223  0
H  H5  1  0.11345220  0.69885345  0.12600633  1  0  0.118587  0.090536  0  1.022466  0
H  H6  1  0.38655697  0.69884541  0.62604138  1  0  0.118553  0.090476  0  1.022361  0
H  H7  1  0.88654908  0.30114598  0.87398929  1  0  0.118622  0.090518  0  1.022448  0
H  H8  1  0.53247404  0.52703676  0.42087644  1  0  0.108099  0.112479  0  1.026408  0
H  H9  1  0.03246628  0.47295977  0.07913130  1  0  0.108079  0.112493  0  1.026312  0
H  H10  1  0.46753121  0.47296006  0.57914061  1  0  0.108076  0.112468  0  1.026327  0
H  H11  1  0.96753203  0.52703424  0.92089231  1  0  0.1081  0.112492  0  1.026346  0
H  H12  1  0.69613907  0.70675507  0.43981556  1  0  0.110659  0.11713  0  1.029822  0
H  H13  1  0.19612602  0.29324277  0.06021877  1  0  0.110663  0.117212  0  1.029817  0
H  H14  1  0.30386321  0.29324657  0.56020096  1  0  0.11063  0.11712  0  1.029923  0
H  H15  1  0.80387428  0.70675422  0.93981091  1  0  0.110641  0.11711  0  1.029822  0
H  H16  1  0.93509716  0.77869181  0.43244359  1  0  0.1106  0.124757  0  0.996378  0
H  H17  1  0.43507630  0.22130800  0.06759568  1  0  0.110564  0.124703  0  0.996489  0
H  H18  1  0.06490809  0.22131065  0.56756257  1  0  0.110593  0.124764  0  0.996412  0
H  H19  1  0.56492003  0.77868985  0.93242587  1  0  0.110608  0.124816  0  0.996307  0
H  H20  1  0.17202304  0.72284431  0.39932061  1  0  0.108515  0.125196  0  1.020767  0
H  H21  1  0.67200872  0.27715921  0.10070561  1  0  0.108556  0.125163  0  1.020957  0
H  H22  1  0.82798320  0.27715616  0.60068100  1  0  0.108531  0.125263  0  1.02067  0
H  H23  1  0.32798959  0.72284150  0.89931384  1  0  0.108464  0.125107  0  1.020747  0
H  H24  1  0.34277705  0.55844447  0.35404236  1  0  0.10699  0.113179  0  1.033411  0
H  H25  1  0.84276546  0.44154630  0.14597054  1  0  0.106955  0.113117  0  1.033529  0
H  H26  1  0.65723019  0.44153874  0.64596741  1  0  0.10697  0.113182  0  1.033529  0
H  H27  1  0.15722889  0.55843805  0.85405190  1  0  0.10699  0.113223  0  1.033408  0
H  H28  1  0.40015339  0.32038847  0.32223493  1  0  0.109855  0.117724  0  0.997139  0
H  H29  1  0.90016614  0.67960695  0.17776525  1  0  0.109802  0.11768  0  0.997093  0
H  H30  1  0.59983699  0.67959568  0.67777339  1  0  0.109877  0.117754  0  0.997033  0
H  H31  1  0.09984011  0.32038027  0.82225509  1  0  0.109865  0.117798  0  0.99708  0
H  H32  1  0.21835661  0.15886037  0.31727616  1  0  0.120756  0.096204  0  1.018353  0
H  H33  1  0.71838631  0.84114339  0.18269696  1  0  0.120811  0.096211  0  1.018378  0
H  H34  1  0.78162583  0.84113795  0.68270901  1  0  0.12079  0.096199  0  1.018495  0
H  H35  1  0.28162985  0.15885306  0.81729259  1  0  0.120833  0.096221  0  1.018427  0
H  H36  1  0.60240308  0.08721435  0.14698559  1  0  0.13213  0.099151  0  1.023476  0
H  H37  1  0.10237600  0.91278557  0.35298794  1  0  0.132025  0.099029  0  1.02337  0
H  H38  1  0.39760416  0.91278688  0.85300120  1  0  0.132074  0.099136  0  1.023332  0
H  H39  1  0.89759851  0.08721473  0.64700104  1  0  0.132059  0.099036  0  1.023452  0
C  C40  1  0.68139724  0.38303990  0.37982178  1  0  0.061225  0.107967  0  3.920979  0
C  C41  1  0.18140206  0.61697157  0.12015065  1  0  0.061111  0.107702  0  3.921054  0
C  C42  1  0.31860404  0.61696729  0.62017716  1  0  0.061188  0.107896  0  3.920955  0
C  C43  1  0.81859625  0.38302599  0.87985009  1  0  0.061116  0.107806  0  3.92106  0
C  C44  1  0.63723102  0.50900092  0.40661059  1  0  -0.082959  -0.124805  0  3.957864  0
C  C45  1  0.13723043  0.49100229  0.09339306  1  0  -0.082944  -0.12477  0  3.95798  0
C  C46  1  0.36276927  0.49100066  0.59340146  1  0  -0.08291  -0.124835  0  3.957923  0
C  C47  1  0.86277086  0.50899263  0.90662687  1  0  -0.0831  -0.12508  0  3.958211  0
C  C48  1  0.72800055  0.60894175  0.41641504  1  0  -0.0598  -0.064215  0  3.90211  0
C  C49  1  0.22799384  0.39106162  0.08360048  1  0  -0.059797  -0.064434  0  3.902075  0
C  C50  1  0.27200073  0.39106271  0.58359566  1  0  -0.059756  -0.064142  0  3.90211  0
C  C51  1  0.77201339  0.60893430  0.91642099  1  0  -0.059683  -0.063954  0  3.901954  0
C  C52  1  0.86363743  0.58268844  0.39925032  1  0  -0.002087  0.038726  0  4.014998  0
C  C53  1  0.36363695  0.41731295  0.10076246  1  0  -0.002126  0.0389  0  4.01466  0
C  C54  1  0.13635989  0.41731498  0.60075513  1  0  -0.002131  0.038752  0  4.014835  0
C  C55  1  0.63636731  0.58268873  0.89925703  1  0  -0.002176  0.038542  0  4.014762  0
C  C56  1  0.96426723  0.68016365  0.40863799  1  0  -0.082548  -0.121792  0  3.965838  0
C  C57  1  0.46425568  0.31983305  0.09138577  1  0  -0.082622  -0.121841  0  3.965873  0
C  C58  1  0.03573604  0.31983590  0.59136655  1  0  -0.082565  -0.121834  0  3.965967  0
C  C59  1  0.53574560  0.68015991  0.90863110  1  0  -0.082558  -0.121826  0  3.966079  0
C  C60  1  0.09443096  0.64983344  0.39107884  1  0  -0.084049  -0.117749  0  3.954622  0
C  C61  1  0.59442075  0.35016332  0.10894648  1  0  -0.083963  -0.117655  0  3.9547  0
C  C62  1  0.90557330  0.35016416  0.60892488  1  0  -0.084035  -0.117754  0  3.954551  0
C  C63  1  0.40558550  0.64982968  0.89107337  1  0  -0.083943  -0.117653  0  3.954615  0
C  C64  1  0.13388572  0.51934368  0.36515707  1  0  -0.002502  0.045745  0  4.001775  0
C  C65  1  0.63388288  0.48065768  0.13485242  1  0  -0.002555  0.045637  0  4.001796  0
C  C66  1  0.86611556  0.48065677  0.63484306  1  0  -0.002536  0.045697  0  4.001929  0
C  C67  1  0.36611940  0.51934200  0.86516252  1  0  -0.002632  0.045609  0  4.00203  0
C  C68  1  0.26764536  0.48258785  0.35033572  1  0  -0.065916  -0.079962  0  3.924139  0
C  C69  1  0.76764673  0.51740768  0.14967159  1  0  -0.065933  -0.079868  0  3.924106  0
C  C70  1  0.73235295  0.51740203  0.64966765  1  0  -0.06591  -0.079943  0  3.924362  0
C  C71  1  0.23235852  0.48258332  0.85034371  1  0  -0.065819  -0.079812  0  3.924227  0
C  C72  1  0.29828812  0.35339034  0.33247124  1  0  -0.079449  -0.115538  0  3.954092  0
C  C73  1  0.79830169  0.64660700  0.16752748  1  0  -0.079323  -0.115438  0  3.954091  0
C  C74  1  0.70170325  0.64660048  0.66753069  1  0  -0.079455  -0.115608  0  3.954219  0
C  C75  1  0.20170455  0.35338683  0.83248275  1  0  -0.079484  -0.115751  0  3.954389  0
C  C76  1  0.19566508  0.26135893  0.32809445  1  0  0.06405  0.123966  0  3.900526  0
C  C77  1  0.69568071  0.73864202  0.17188505  1  0  0.063906  0.123852  0  3.900507  0
C  C78  1  0.80432430  0.73863750  0.67189436  1  0  0.063919  0.123825  0  3.900637  0
C  C79  1  0.30432553  0.26135453  0.82811193  1  0  0.063942  0.123987  0  3.900326  0
C  C80  1  0.03709274  0.41995192  0.35732712  1  0  0.114917  0.113249  0  3.99632  0
C  C81  1  0.53709797  0.58005121  0.14266980  1  0  0.11495  0.113349  0  3.996109  0
C  C82  1  0.96290557  0.58005039  0.64266788  1  0  0.114949  0.113305  0  3.996301  0
C  C83  1  0.46290827  0.41994643  0.85733689  1  0  0.114964  0.113259  0  3.996318  0
C  C84  1  0.89952610  0.45270978  0.37231201  1  0  0.119572  0.121371  0  3.971022  0
C  C85  1  0.39952210  0.54730385  0.12767932  1  0  0.119571  0.121141  0  3.970744  0
C  C86  1  0.10047618  0.54729739  0.62768544  1  0  0.119586  0.121248  0  3.970983  0
C  C87  1  0.60047819  0.45269863  0.87232833  1  0  0.119502  0.121242  0  3.970762  0
C  C88  1  0.47645086  0.83668126  0.39332268  1  0  0.209048  0.531686  0  4.243287  0
C  C89  1  0.97646440  0.16334077  0.10664808  1  0  0.20926  0.53196  0  4.242838  0
C  C90  1  0.52354150  0.16332482  0.60666581  1  0  0.209125  0.532045  0  4.242844  0
C  C91  1  0.02354383  0.83666714  0.89333306  1  0  0.209207  0.531926  0  4.243171  0
C  C92  1  0.55079671  0.93728616  0.34520312  1  0  0.084836  0.011528  0  3.980153  0
C  C93  1  0.05080205  0.06273395  0.15476495  1  0  0.0848  0.011324  0  3.980929  0
C  C94  1  0.44919565  0.06271601  0.65478149  1  0  0.084646  0.011125  0  3.980405  0
C  C95  1  0.94919230  0.93727211  0.84522205  1  0  0.084611  0.011113  0  3.980413  0
C  C96  1  0.66590810  0.00812226  0.36938467  1  0  0.083215  0.005922  0  4.001389  0
C  C97  1  0.16590617  0.99189599  0.13058943  1  0  0.08342  0.006052  0  4.001165  0
C  C98  1  0.33408724  0.99188382  0.63060382  1  0  0.083291  0.006032  0  4.00143  0
C  C99  1  0.83408917  0.00810816  0.86939898  1  0  0.083359  0.006168  0  4.001201  0
C  C100  1  0.60260697  0.05106149  0.22060323  1  0  0.147597  0.188295  0  3.91251  0
C  C101  1  0.10258862  0.94893448  0.27936418  1  0  0.14771  0.188293  0  3.912627  0
C  C102  1  0.39739630  0.94894067  0.77938063  1  0  0.147588  0.188191  0  3.91261  0
C  C103  1  0.89739284  0.05106290  0.72062318  1  0  0.147734  0.188418  0  3.912748  0
C  C104  1  0.75710863  0.01401350  0.45484006  1  0  0.208254  0.530802  0  4.251502  0
C  C105  1  0.25710432  0.98599132  0.04514084  1  0  0.208282  0.530887  0  4.251718  0
C  C106  1  0.24288670  0.98598782  0.54515268  1  0  0.208322  0.530775  0  4.251471  0
C  C107  1  0.74289697  0.01400997  0.95485041  1  0  0.20838  0.53067  0  4.251769  0
N  N108  1  0.80871789  0.35640366  0.36238913  1  0  -0.313358  -0.239368  0  3.533539  0
N  N109  1  0.30872695  0.64360688  0.13758723  1  0  -0.31321  -0.23886  0  3.533282  0
N  N110  1  0.19128340  0.64360151  0.63760377  1  0  -0.313328  -0.239208  0  3.533492  0
N  N111  1  0.69127533  0.35639549  0.86241224  1  0  -0.313186  -0.238832  0  3.53314  0
N  N112  1  0.06859925  0.29384455  0.33918209  1  0  -0.307502  -0.260032  0  3.480951  0
N  N113  1  0.56861371  0.70616025  0.16079511  1  0  -0.307433  -0.25999  0  3.48043  0
N  N114  1  0.93139113  0.70615765  0.66080475  1  0  -0.307419  -0.259851  0  3.480493  0
N  N115  1  0.43139452  0.29383917  0.83919977  1  0  -0.307454  -0.259987  0  3.480476  0
N  N116  1  0.51265099  0.96670043  0.25190248  1  0  -0.346642  -0.307258  0  3.514133  0
N  N117  1  0.01265486  0.03331576  0.24806140  1  0  -0.346567  -0.307008  0  3.51443  0
N  N118  1  0.48734335  0.03330558  0.74808081  1  0  -0.34636  -0.306852  0  3.513921  0
N  N119  1  0.98733551  0.96669024  0.75192188  1  0  -0.34642  -0.307052  0  3.514213  0
N  N120  1  0.69671598  0.07857857  0.29051119  1  0  -0.34372  -0.315857  0  3.49897  0
N  N121  1  0.19671036  0.92143198  0.20946430  1  0  -0.343972  -0.316086  0  3.499213  0
N  N122  1  0.30328333  0.92142460  0.70947643  1  0  -0.343828  -0.315968  0  3.499225  0
N  N123  1  0.80328200  0.07857125  0.79052704  1  0  -0.343975  -0.316108  0  3.49915  0
O  O124  1  0.38961694  0.77330520  0.33878393  1  0  -0.283854  -0.482124  0  2.214594  0
O  O125  1  0.88962145  0.22670838  0.16120360  1  0  -0.283898  -0.482253  0  2.214201  0
O  O126  1  0.61038632  0.22669995  0.66120749  1  0  -0.283828  -0.482218  0  2.214233  0
O  O127  1  0.11037884  0.77330742  0.83878978  1  0  -0.283823  -0.482044  0  2.214663  0
O  O128  1  0.73827131  0.94619154  0.52761052  1  0  -0.245842  -0.417942  0  2.035762  0
O  O129  1  0.23826991  0.05380497  0.97237019  1  0  -0.245819  -0.417882  0  2.036219  0
O  O130  1  0.26173394  0.05380975  0.47238073  1  0  -0.245937  -0.417979  0  2.035665  0
O  O131  1  0.76174625  0.94619250  0.02762387  1  0  -0.245909  -0.417825  0  2.035993  0
O  O132  1  0.49767651  0.81028498  0.48183873  1  0  -0.248466  -0.419961  0  2.033741  0
O  O133  1  0.99769257  0.18973608  0.01813216  1  0  -0.248667  -0.420077  0  2.033766  0
O  O134  1  0.50231982  0.18972593  0.51814998  1  0  -0.248527  -0.420101  0  2.033752  0
O  O135  1  0.00231665  0.81027284  0.98185200  1  0  -0.248636  -0.420138  0  2.033624  0
O  O136  1  0.85887776  0.08935600  0.45037001  1  0  -0.286432  -0.470771  0  2.178024  0
O  O137  1  0.35888145  0.91064685  0.04960864  1  0  -0.286526  -0.470892  0  2.177843  0
O  O138  1  0.14111857  0.91064325  0.54961298  1  0  -0.286441  -0.470702  0  2.177921  0
O  O139  1  0.64112281  0.08935354  0.95038703  1  0  -0.286517  -0.47077  0  2.177895  0
