# generated using pymatgen
data_AlH3C4O5
_symmetry_space_group_name_H-M   'P 1'
_cell_length_a   6.68950712
_cell_length_b   11.09421727
_cell_length_c   13.16764296
_cell_angle_alpha   89.99985063
_cell_angle_beta   90.00034639
_cell_angle_gamma   101.39892552
_symmetry_Int_Tables_number   1
_chemical_formula_structural   AlH3C4O5
_chemical_formula_sum   'Al4 H12 C16 O20'
_cell_volume   957.95851838
_cell_formula_units_Z   4
loop_
 _symmetry_equiv_pos_site_id
 _symmetry_equiv_pos_as_xyz
  1  'x, y, z'
loop_
 _atom_site_type_symbol
 _atom_site_label
 _atom_site_symmetry_multiplicity
 _atom_site_fract_x
 _atom_site_fract_y
 _atom_site_fract_z
 _atom_site_occupancy
 _atom_site_hle17_bader_spin_density
 _atom_site_hle17_ddec_charge
 _atom_site_hle17_ddec_spin_density
 _atom_site_hle17_ddec_sum_bond_order
 _atom_site_hle17_magmom
 _atom_site_hse06_10hf_bader_spin_density
 _atom_site_hse06_10hf_ddec_charge
 _atom_site_hse06_10hf_ddec_spin_density
 _atom_site_hse06_10hf_ddec_sum_bond_order
 _atom_site_hse06_10hf_magmom
 _atom_site_hse06_bader_spin_density
 _atom_site_hse06_ddec_charge
 _atom_site_hse06_ddec_spin_density
 _atom_site_hse06_ddec_sum_bond_order
 _atom_site_hse06_magmom
 _atom_site_pbe_bader_spin_density
 _atom_site_pbe_cm5_charge
 _atom_site_pbe_ddec_charge
 _atom_site_pbe_ddec_spin_density
 _atom_site_pbe_ddec_sum_bond_order
 _atom_site_pbe_magmom
Al  Al0  1  0.50000459  0.00000953  0.49999456  1  0  1.807089  0  2.20179  0  0  1.667546  0  2.54516  0  0  1.703432  0  2.495922  0  0  0.400256  1.641567  0  2.580081  0
Al  Al1  1  0.99999375  0.49998909  0.00000393  1  0  1.807316  0  2.201574  0  0  1.667866  0  2.544765  0  0  1.703741  0  2.495545  0  0  0.400323  1.641894  0  2.579666  0
Al  Al2  1  0.00001629  0.00000561  0.49999533  1  0  1.814817  0  2.212234  0  0  1.677033  0  2.547063  0  0  1.712461  0  2.498274  0  0  0.40106  1.651405  0  2.581756  0
Al  Al3  1  0.49998863  0.49999006  0.99999839  1  0  1.814872  0  2.212136  0  0  1.677057  0  2.546976  0  0  1.712489  0  2.498183  0  0  0.401081  1.651405  0  2.581719  0
H  H4  1  0.51652016  0.74651760  0.75923825  1  0  0.134662  0  0.917748  0  0  0.141746  0  0.974621  0  0  0.146558  0  0.971596  0  0  0.118866  0.138242  0  0.976987  0
H  H5  1  0.98349596  0.75347524  0.25924285  1  0  0.134647  0  0.917399  0  0  0.14173  0  0.974307  0  0  0.146544  0  0.971284  0  0  0.118858  0.138246  0  0.976648  0
H  H6  1  0.48349345  0.25348382  0.24075952  1  0  0.134658  0  0.917463  0  0  0.141727  0  0.974375  0  0  0.14654  0  0.97135  0  0  0.118826  0.138226  0  0.976737  0
H  H7  1  0.01650812  0.24653676  0.74075340  1  0  0.134647  0  0.917836  0  0  0.14176  0  0.974675  0  0  0.146572  0  0.971649  0  0  0.118864  0.138258  0  0.977038  0
H  H8  1  0.98225028  0.76138848  0.74632090  1  0  0.140079  0  0.914153  0  0  0.146991  0  0.970599  0  0  0.151846  0  0.967588  0  0  0.120844  0.143506  0  0.972863  0
H  H9  1  0.51777859  0.73861485  0.24632262  1  0  0.14004  0  0.914749  0  0  0.146985  0  0.971124  0  0  0.151833  0  0.968121  0  0  0.12094  0.143507  0  0.973389  0
H  H10  1  0.01776073  0.23861466  0.25368371  1  0  0.140061  0  0.914367  0  0  0.146977  0  0.970799  0  0  0.151831  0  0.96779  0  0  0.120872  0.143499  0  0.973064  0
H  H11  1  0.48223957  0.26138036  0.75368123  1  0  0.14009  0  0.914111  0  0  0.146988  0  0.970545  0  0  0.151845  0  0.967532  0  0  0.120861  0.143504  0  0.972805  0
H  H12  1  0.19846909  0.84038437  0.48077172  1  0  0.459878  0  0.789143  0  0  0.4414  0  0.837063  0  0  0.449604  0  0.82613  0  0  0.358169  0.435519  0  0.843978  0
H  H13  1  0.30153519  0.65961809  0.98076591  1  0  0.459819  0  0.789169  0  0  0.441339  0  0.837101  0  0  0.449543  0  0.826206  0  0  0.358114  0.435456  0  0.844015  0
H  H14  1  0.80152038  0.15960981  0.51923896  1  0  0.459936  0  0.788985  0  0  0.44146  0  0.836912  0  0  0.449667  0  0.826028  0  0  0.358125  0.435578  0  0.84383  0
H  H15  1  0.69848595  0.34038998  0.01923034  1  0  0.459956  0  0.78899  0  0  0.441486  0  0.836908  0  0  0.449694  0  0.825999  0  0  0.358165  0.435604  0  0.843827  0
C  C16  1  0.70030379  0.85662170  0.64077907  1  0  0.743745  0  3.81485  0  0  0.696534  0  4.103003  0  0  0.731888  0  4.091447  0  0  0.262785  0.672485  0  4.11034  0
C  C17  1  0.79969779  0.64336627  0.14078415  1  0  0.743559  0  3.815498  0  0  0.696667  0  4.103117  0  0  0.732006  0  4.091569  0  0  0.262872  0.672619  0  4.110452  0
C  C18  1  0.29969044  0.14336719  0.35922706  1  0  0.743881  0  3.814957  0  0  0.696918  0  4.102681  0  0  0.732259  0  4.091139  0  0  0.262983  0.672868  0  4.110026  0
C  C19  1  0.20031365  0.35663871  0.85922122  1  0  0.743692  0  3.814902  0  0  0.696738  0  4.102661  0  0  0.732087  0  4.091113  0  0  0.26301  0.67269  0  4.109996  0
C  C20  1  0.67177447  0.77383834  0.73044666  1  0  -0.147291  0  3.621139  0  0  -0.171056  0  3.877291  0  0  -0.177108  0  3.892515  0  0  -0.067733  -0.166876  0  3.866893  0
C  C21  1  0.82819473  0.72614740  0.23044175  1  0  -0.147383  0  3.620798  0  0  -0.171208  0  3.8769  0  0  -0.177265  0  3.89213  0  0  -0.067777  -0.167037  0  3.866487  0
C  C22  1  0.32821457  0.22615401  0.26956099  1  0  -0.147369  0  3.620756  0  0  -0.17119  0  3.876877  0  0  -0.177244  0  3.892106  0  0  -0.067665  -0.167008  0  3.866478  0
C  C23  1  0.17176369  0.27384202  0.76954767  1  0  -0.147156  0  3.620845  0  0  -0.171045  0  3.87689  0  0  -0.177096  0  3.892118  0  0  -0.067665  -0.166866  0  3.866489  0
C  C24  1  0.82680965  0.73359318  0.77482922  1  0  -0.158516  0  3.622101  0  0  -0.181886  0  3.878967  0  0  -0.188487  0  3.894211  0  0  -0.069121  -0.177341  0  3.868518  0
C  C25  1  0.67315524  0.76641691  0.27481994  1  0  -0.158249  0  3.622196  0  0  -0.181721  0  3.879088  0  0  -0.188308  0  3.894322  0  0  -0.0692  -0.177194  0  3.868657  0
C  C26  1  0.17318624  0.26641580  0.22517767  1  0  -0.158348  0  3.621978  0  0  -0.181778  0  3.87885  0  0  -0.188371  0  3.894097  0  0  -0.069189  -0.177242  0  3.86841  0
C  C27  1  0.32679948  0.23358239  0.72516643  1  0  -0.158646  0  3.62199  0  0  -0.181942  0  3.878788  0  0  -0.188544  0  3.894039  0  0  -0.069148  -0.177394  0  3.868335  0
C  C28  1  0.79559515  0.64894741  0.86316703  1  0  0.754737  0  3.792404  0  0  0.706409  0  4.08099  0  0  0.741972  0  4.069258  0  0  0.267209  0.68216  0  4.088473  0
C  C29  1  0.70438981  0.85104776  0.36317663  1  0  0.754372  0  3.792421  0  0  0.706132  0  4.080915  0  0  0.741685  0  4.069195  0  0  0.267138  0.681888  0  4.088398  0
C  C30  1  0.20440576  0.35104445  0.13681859  1  0  0.754602  0  3.792572  0  0  0.706379  0  4.080979  0  0  0.741929  0  4.069263  0  0  0.267275  0.682133  0  4.088463  0
C  C31  1  0.29560244  0.14895198  0.63682722  1  0  0.754908  0  3.792322  0  0  0.706556  0  4.080882  0  0  0.742111  0  4.069159  0  0  0.267199  0.68231  0  4.088372  0
O  O32  1  0.87755644  0.88362698  0.60165385  1  0  -0.670235  0  2.09135  0  0  -0.613501  0  2.32226  0  0  -0.637326  0  2.309178  0  0  -0.236591  -0.596986  0  2.331013  0
O  O33  1  0.62246359  0.61638448  0.10165087  1  0  -0.670066  0  2.091505  0  0  -0.613446  0  2.32226  0  0  -0.637262  0  2.309182  0  0  -0.236624  -0.59693  0  2.331009  0
O  O34  1  0.12245049  0.11637146  0.39835152  1  0  -0.670247  0  2.09175  0  0  -0.613595  0  2.322542  0  0  -0.637406  0  2.309462  0  0  -0.236598  -0.597082  0  2.331301  0
O  O35  1  0.37756640  0.38362299  0.89835146  1  0  -0.670221  0  2.091676  0  0  -0.613572  0  2.322477  0  0  -0.637391  0  2.3094  0  0  -0.236642  -0.597053  0  2.331228  0
O  O36  1  0.54063975  0.89234763  0.61009524  1  0  -0.659483  0  2.060383  0  0  -0.605244  0  2.290202  0  0  -0.628605  0  2.276009  0  0  -0.236919  -0.58905  0  2.299606  0
O  O37  1  0.95934574  0.60763709  0.11009481  1  0  -0.659514  0  2.060672  0  0  -0.605412  0  2.290353  0  0  -0.628763  0  2.276161  0  0  -0.236996  -0.589224  0  2.299761  0
O  O38  1  0.45935921  0.10764871  0.38991089  1  0  -0.659489  0  2.060582  0  0  -0.605349  0  2.290298  0  0  -0.628703  0  2.27611  0  0  -0.236955  -0.589153  0  2.299705  0
O  O39  1  0.04065060  0.39236735  0.88990296  1  0  -0.659406  0  2.060513  0  0  -0.605331  0  2.290257  0  0  -0.628673  0  2.276068  0  0  -0.236934  -0.589144  0  2.299663  0
O  O40  1  0.95582771  0.62063325  0.90113993  1  0  -0.668192  0  2.047937  0  0  -0.610999  0  2.277575  0  0  -0.634599  0  2.263115  0  0  -0.23652  -0.594584  0  2.287183  0
O  O41  1  0.54415008  0.87938072  0.40113151  1  0  -0.667975  0  2.048042  0  0  -0.610795  0  2.277668  0  0  -0.634391  0  2.263206  0  0  -0.236381  -0.594383  0  2.287279  0
O  O42  1  0.04417332  0.37938501  0.09885936  1  0  -0.668134  0  2.048244  0  0  -0.610976  0  2.277826  0  0  -0.634567  0  2.263371  0  0  -0.23641  -0.594562  0  2.287437  0
O  O43  1  0.45582127  0.12061281  0.59887081  1  0  -0.668138  0  2.048114  0  0  -0.610941  0  2.277791  0  0  -0.634536  0  2.263329  0  0  -0.236421  -0.594531  0  2.287408  0
O  O44  1  0.61382376  0.61097583  0.89437132  1  0  -0.672803  0  2.093452  0  0  -0.613902  0  2.32389  0  0  -0.637928  0  2.310767  0  0  -0.23378  -0.597157  0  2.332617  0
O  O45  1  0.88618182  0.88902913  0.39436619  1  0  -0.672684  0  2.093455  0  0  -0.613815  0  2.323846  0  0  -0.637838  0  2.31073  0  0  -0.233788  -0.597072  0  2.332575  0
O  O46  1  0.38618207  0.38903077  0.10563252  1  0  -0.67276  0  2.09374  0  0  -0.613879  0  2.324094  0  0  -0.637893  0  2.310977  0  0  -0.233799  -0.597135  0  2.332821  0
O  O47  1  0.11382145  0.11096645  0.60563082  1  0  -0.672851  0  2.093344  0  0  -0.613963  0  2.323778  0  0  -0.637983  0  2.310659  0  0  -0.233788  -0.597221  0  2.332509  0
O  O48  1  0.22597813  0.92610389  0.50053677  1  0  -1.067619  0  1.95538  0  0  -1.008907  0  2.186059  0  0  -1.025864  0  2.153297  0  0  -0.448026  -0.996528  0  2.207632  0
O  O49  1  0.27402182  0.57389834  0.00053511  1  0  -1.067597  0  1.955224  0  0  -1.008888  0  2.185903  0  0  -1.025844  0  2.153179  0  0  -0.448023  -0.996517  0  2.207487  0
O  O50  1  0.77397789  0.07389455  0.49946252  1  0  -1.067802  0  1.955247  0  0  -1.008998  0  2.18576  0  0  -1.026019  0  2.153171  0  0  -0.447991  -0.996606  0  2.207311  0
O  O51  1  0.72602112  0.42610686  0.99946114  1  0  -1.067887  0  1.955368  0  0  -1.009087  0  2.185844  0  0  -1.026125  0  2.153266  0  0  -0.448014  -0.996694  0  2.207396  0
