# generated using pymatgen
data_HgH22C30N6(ClO)2
_symmetry_space_group_name_H-M   'P 1'
_cell_length_a   6.75189851
_cell_length_b   13.91375840
_cell_length_c   15.26310000
_cell_angle_alpha   101.34484683
_cell_angle_beta   102.91610477
_cell_angle_gamma   89.97219373
_symmetry_Int_Tables_number   1
_chemical_formula_structural   HgH22C30N6(ClO)2
_chemical_formula_sum   'Hg2 H44 C60 N12 Cl4 O4'
_cell_volume   1368.87444331
_cell_formula_units_Z   2
loop_
 _symmetry_equiv_pos_site_id
 _symmetry_equiv_pos_as_xyz
  1  'x, y, z'
loop_
 _atom_site_type_symbol
 _atom_site_label
 _atom_site_symmetry_multiplicity
 _atom_site_fract_x
 _atom_site_fract_y
 _atom_site_fract_z
 _atom_site_occupancy
 _atom_site_hle17_bader_spin_density
 _atom_site_hle17_ddec_charge
 _atom_site_hle17_ddec_spin_density
 _atom_site_hle17_ddec_sum_bond_order
 _atom_site_hle17_magmom
 _atom_site_hse06_10hf_bader_spin_density
 _atom_site_hse06_10hf_ddec_charge
 _atom_site_hse06_10hf_ddec_spin_density
 _atom_site_hse06_10hf_ddec_sum_bond_order
 _atom_site_hse06_10hf_magmom
 _atom_site_hse06_bader_spin_density
 _atom_site_hse06_ddec_charge
 _atom_site_hse06_ddec_spin_density
 _atom_site_hse06_ddec_sum_bond_order
 _atom_site_hse06_magmom
 _atom_site_pbe_bader_charge
 _atom_site_pbe_bader_spin_density
 _atom_site_pbe_cm5_charge
 _atom_site_pbe_ddec_charge
 _atom_site_pbe_ddec_spin_density
 _atom_site_pbe_ddec_sum_bond_order
 _atom_site_pbe_magmom
Hg  Hg0  1  0.00000007  0.00000073  0.00000014  1  0  0.783555  0  2.029861  0  0  0.630101  0  2.526135  0  0  0.678414  0  2.489044  0  0.838293  0  0.521292  0.596632  0  2.551403  0
Hg  Hg1  1  0.00000177  0.49999900  0.99999954  1  0  0.78353  0  2.031024  0  0  0.630421  0  2.527053  0  0  0.67875  0  2.48997  0  0.839906  0  0.52165  0.596976  0  2.552296  0
H  H2  1  0.68518943  0.37646079  0.18403922  1  0  0.09723  0  0.958757  0  0  0.102073  0  1.024505  0  0  0.105282  0  1.022622  0  0.128958  0  0.114424  0.099782  0  1.025948  0
H  H3  1  0.50205109  0.12357857  0.81610284  1  0  0.097733  0  0.958945  0  0  0.1025  0  1.024666  0  0  0.10573  0  1.022743  0  0.129562  0  0.114571  0.100198  0  1.026129  0
H  H4  1  0.31481050  0.62353868  0.81596316  1  0  0.097177  0  0.958737  0  0  0.102011  0  1.024511  0  0  0.105219  0  1.022628  0  0.128956  0  0.114399  0.099718  0  1.025958  0
H  H5  1  0.49795347  0.87642164  0.18389751  1  0  0.097703  0  0.958857  0  0  0.102474  0  1.024594  0  0  0.105709  0  1.022649  0  0.129557  0  0.114557  0.10017  0  1.02606  0
H  H6  1  0.90867848  0.28031151  0.09032820  1  0  0.089295  0  0.955961  0  0  0.091424  0  1.029469  0  0  0.09483  0  1.026542  0  0.132441  0  0.10656  0.088926  0  1.031735  0
H  H7  1  0.81993040  0.21982471  0.90994456  1  0  0.089602  0  0.956705  0  0  0.091586  0  1.03021  0  0  0.094844  0  1.027419  0  0.150456  0  0.106518  0.089193  0  1.032394  0
H  H8  1  0.09132007  0.71968943  0.90967300  1  0  0.089314  0  0.955957  0  0  0.091427  0  1.029468  0  0  0.094823  0  1.026553  0  0.13244  0  0.10657  0.088928  0  1.031733  0
H  H9  1  0.18007423  0.78017623  0.09005463  1  0  0.089585  0  0.956685  0  0  0.091573  0  1.030176  0  0  0.09483  0  1.027386  0  0.150391  0  0.106505  0.089182  0  1.032362  0
H  H10  1  0.61310006  0.02044502  0.09665969  1  0  0.089196  0  0.971061  0  0  0.090092  0  1.046386  0  0  0.093943  0  1.043013  0  0.180494  0  0.104501  0.087326  0  1.04886  0
H  H11  1  0.51703448  0.47958113  0.90347771  1  0  0.088868  0  0.971991  0  0  0.089831  0  1.047424  0  0  0.093576  0  1.044198  0  0.176632  0  0.104608  0.087125  0  1.049868  0
H  H12  1  0.38690299  0.97955519  0.90334183  1  0  0.089155  0  0.971052  0  0  0.090036  0  1.046407  0  0  0.093901  0  1.043011  0  0.180482  0  0.104472  0.08727  0  1.048881  0
H  H13  1  0.48296704  0.52041908  0.09652103  1  0  0.088897  0  0.971934  0  0  0.089862  0  1.047358  0  0  0.093608  0  1.04413  0  0.176637  0  0.10462  0.087156  0  1.049802  0
H  H14  1  0.10354152  0.97942604  0.24745174  1  0  0.116505  0  0.988168  0  0  0.123241  0  1.052398  0  0  0.127196  0  1.050065  0  0.13875  0  0.102078  0.120468  0  1.054033  0
H  H15  1  0.85633836  0.52072654  0.75215246  1  0  0.116807  0  0.987163  0  0  0.123145  0  1.051878  0  0  0.127132  0  1.049533  0  0.149973  0  0.102032  0.120352  0  1.053531  0
H  H16  1  0.89645980  0.02057197  0.75254921  1  0  0.11652  0  0.988163  0  0  0.123266  0  1.052384  0  0  0.127223  0  1.05005  0  0.13875  0  0.102083  0.120493  0  1.05402  0
H  H17  1  0.14366454  0.47927220  0.24784682  1  0  0.116824  0  0.987179  0  0  0.123175  0  1.051877  0  0  0.127162  0  1.049533  0  0.149907  0  0.102039  0.120381  0  1.05353  0
H  H18  1  0.82765209  0.93813461  0.31955902  1  0  0.088539  0  0.963583  0  0  0.097008  0  1.029494  0  0  0.099733  0  1.028027  0  0.074448  0  0.097335  0.095034  0  1.030545  0
H  H19  1  0.50733343  0.56200916  0.68015589  1  0  0.08919  0  0.963028  0  0  0.096834  0  1.029715  0  0  0.099597  0  1.028194  0  0.072516  0  0.097149  0.094876  0  1.030781  0
H  H20  1  0.17234770  0.06186340  0.68044244  1  0  0.088523  0  0.96364  0  0  0.096989  0  1.029544  0  0  0.099714  0  1.028075  0  0.074431  0  0.097326  0.094994  0  1.030621  0
H  H21  1  0.49266968  0.43799178  0.31984445  1  0  0.0892  0  0.963064  0  0  0.096863  0  1.029728  0  0  0.099627  0  1.028205  0  0.072521  0  0.097147  0.094905  0  1.030794  0
H  H22  1  0.66026628  0.07135798  0.40790209  1  0  0.089932  0  0.970187  0  0  0.101275  0  1.034877  0  0  0.103845  0  1.0345  0  0.071524  0  0.09622  0.099441  0  1.035209  0
H  H23  1  0.25071543  0.42873421  0.59218110  1  0  0.089054  0  0.971724  0  0  0.100189  0  1.036823  0  0  0.10271  0  1.036583  0  0.063484  0  0.095667  0.098391  0  1.037085  0
H  H24  1  0.33973214  0.92864149  0.59209752  1  0  0.089914  0  0.970218  0  0  0.10129  0  1.034878  0  0  0.103862  0  1.034502  0  0.071533  0  0.096223  0.099456  0  1.035208  0
H  H25  1  0.74928616  0.57126673  0.40781975  1  0  0.08905  0  0.971725  0  0  0.100178  0  1.036834  0  0  0.102702  0  1.036585  0  0.06348  0  0.095674  0.09838  0  1.037095  0
H  H26  1  0.62324552  0.24428580  0.46402737  1  0  0.091874  0  0.978088  0  0  0.101588  0  1.042283  0  0  0.103533  0  1.043247  0  0.06631  0  0.097139  0.100155  0  1.041758  0
H  H27  1  0.15734831  0.25572421  0.53607824  1  0  0.091011  0  0.98055  0  0  0.100836  0  1.044611  0  0  0.102765  0  1.045613  0  0.067206  0  0.096719  0.099411  0  1.044062  0
H  H28  1  0.37674985  0.75571367  0.53597063  1  0  0.091862  0  0.978062  0  0  0.101603  0  1.042234  0  0  0.103548  0  1.043199  0  0.066147  0  0.097153  0.100171  0  1.041708  0
H  H29  1  0.84265031  0.74427747  0.46392310  1  0  0.090957  0  0.980646  0  0  0.100813  0  1.044654  0  0  0.102748  0  1.045639  0  0.06724  0  0.096722  0.099388  0  1.044105  0
H  H30  1  0.72936667  0.41881843  0.48240435  1  0  0.086718  0  0.959125  0  0  0.098771  0  1.019039  0  0  0.100992  0  1.019364  0  0.077774  0  0.099006  0.097117  0  1.018947  0
H  H31  1  0.24560473  0.08122607  0.51759390  1  0  0.086391  0  0.959338  0  0  0.098216  0  1.019685  0  0  0.100478  0  1.019821  0  0.072256  0  0.098391  0.096565  0  1.019644  0
H  H32  1  0.27063174  0.58118105  0.51759461  1  0  0.086716  0  0.959134  0  0  0.09877  0  1.019049  0  0  0.100991  0  1.019374  0  0.077812  0  0.098996  0.097116  0  1.018957  0
H  H33  1  0.75439389  0.91877560  0.48240548  1  0  0.086409  0  0.959349  0  0  0.098225  0  1.019704  0  0  0.100492  0  1.019846  0  0.072361  0  0.098407  0.096582  0  1.019654  0
H  H34  1  0.01005354  0.46256220  0.41103693  1  0  0.083564  0  0.966454  0  0  0.095018  0  1.029307  0  0  0.097408  0  1.028884  0  0.082336  0  0.09764  0.093325  0  1.0296  0
H  H35  1  0.59857989  0.03757255  0.58889944  1  0  0.084043  0  0.96581  0  0  0.095345  0  1.028862  0  0  0.097715  0  1.028481  0  0.078497  0  0.09783  0.093686  0  1.029106  0
H  H36  1  0.98994646  0.53743801  0.58896298  1  0  0.083574  0  0.966429  0  0  0.09502  0  1.029283  0  0  0.097411  0  1.028859  0  0.082505  0  0.097642  0.093329  0  1.029574  0
H  H37  1  0.40141867  0.96242839  0.41109849  1  0  0.084002  0  0.96586  0  0  0.095308  0  1.028908  0  0  0.097687  0  1.028501  0  0.078546  0  0.097816  0.093649  0  1.02915  0
H  H38  1  0.18112791  0.33616806  0.32683997  1  0  0.086403  0  0.968607  0  0  0.102718  0  1.025267  0  0  0.105125  0  1.023899  0  0.036139  0  0.103714  0.100926  0  1.026432  0
H  H39  1  0.85433830  0.16403788  0.67310268  1  0  0.086087  0  0.968776  0  0  0.102399  0  1.025627  0  0  0.104804  0  1.024286  0  0.027911  0  0.103648  0.100601  0  1.026798  0
H  H40  1  0.81887050  0.66383142  0.67315965  1  0  0.086442  0  0.968586  0  0  0.102741  0  1.025264  0  0  0.105149  0  1.023895  0  0.036108  0  0.103717  0.100949  0  1.026426  0
H  H41  1  0.14566163  0.83596160  0.32689643  1  0  0.086074  0  0.968817  0  0  0.102383  0  1.025672  0  0  0.104787  0  1.02433  0  0.027919  0  0.103637  0.100584  0  1.026843  0
H  H42  1  0.30369219  0.23084853  0.26761368  1  0  0.284977  0  0.922695  0  0  0.259449  0  1.002944  0  0  0.268166  0  0.994974  0  0.490116  0  0.309239  0.253232  0  1.008721  0
H  H43  1  0.03604179  0.26923046  0.73218648  1  0  0.286239  0  0.922019  0  0  0.260069  0  1.002561  0  0  0.268778  0  0.994554  0  0.461127  0  0.309541  0.253866  0  1.008354  0
H  H44  1  0.69630760  0.76914948  0.73238647  1  0  0.284948  0  0.922686  0  0  0.259418  0  1.002916  0  0  0.268132  0  0.994953  0  0.490091  0  0.309261  0.253201  0  1.008694  0
H  H45  1  0.96395828  0.73077048  0.26781291  1  0  0.28625  0  0.92201  0  0  0.260075  0  1.00256  0  0  0.268787  0  0.99455  0  0.461112  0  0.30954  0.253872  0  1.008353  0
C  C46  1  0.66913424  0.29658857  0.16621827  1  0  0.089538  0  3.663035  0  0  0.065794  0  3.924977  0  0  0.066794  0  3.940712  0  0.541771  0  0.053451  0.064926  0  3.914467  0
C  C47  1  0.50378123  0.20344419  0.83390823  1  0  0.08774  0  3.66326  0  0  0.064007  0  3.924929  0  0  0.065001  0  3.940645  0  0.557792  0  0.052767  0.063144  0  3.914438  0
C  C48  1  0.33086576  0.70341164  0.83378360  1  0  0.089573  0  3.662954  0  0  0.065822  0  3.924892  0  0  0.066823  0  3.940627  0  0.541774  0  0.053414  0.064953  0  3.914382  0
C  C49  1  0.49622326  0.79655529  0.16609199  1  0  0.087767  0  3.663255  0  0  0.064021  0  3.924937  0  0  0.065018  0  3.940658  0  0.558029  0  0.052794  0.063158  0  3.914448  0
C  C50  1  0.79266836  0.24322693  0.11313253  1  0  0.093827  0  3.645165  0  0  0.064785  0  3.905754  0  0  0.069098  0  3.92184  0  0.504101  0  0.054486  0.061907  0  3.894961  0
C  C51  1  0.68074788  0.25684618  0.88706407  1  0  0.09336  0  3.644685  0  0  0.064806  0  3.904317  0  0  0.069226  0  3.920473  0  0.477965  0  0.054877  0.061841  0  3.89345  0
C  C52  1  0.20733164  0.75677328  0.88686935  1  0  0.093794  0  3.645094  0  0  0.064791  0  3.905656  0  0  0.069112  0  3.921737  0  0.504067  0  0.05451  0.061914  0  3.894862  0
C  C53  1  0.31925516  0.74315402  0.11293680  1  0  0.093426  0  3.644765  0  0  0.064882  0  3.904404  0  0  0.069303  0  3.920561  0  0.477959  0  0.054909  0.061916  0  3.893535  0
C  C54  1  0.63119213  0.10021231  0.11671655  1  0  0.078491  0  3.690428  0  0  0.045139  0  3.941214  0  0  0.048663  0  3.95949  0  0.490503  0  0.052067  0.042717  0  3.929125  0
C  C55  1  0.51522162  0.39982118  0.88342340  1  0  0.079284  0  3.689447  0  0  0.045225  0  3.940895  0  0  0.048796  0  3.959185  0  0.485322  0  0.05228  0.042755  0  3.92877  0
C  C56  1  0.36881084  0.89978717  0.88328548  1  0  0.07858  0  3.690371  0  0  0.045219  0  3.941156  0  0  0.048736  0  3.959433  0  0.490524  0  0.052119  0.042799  0  3.929065  0
C  C57  1  0.48477997  0.60017976  0.11657549  1  0  0.079274  0  3.689471  0  0  0.045245  0  3.940935  0  0  0.048816  0  3.959227  0  0.485142  0  0.052277  0.042775  0  3.928807  0
C  C58  1  0.51081659  0.15356881  0.17071056  1  0  0.044614  0  3.795891  0  0  0.052711  0  4.043397  0  0  0.048808  0  4.064109  0  0.545908  0  0.111697  0.054829  0  4.030001  0
C  C59  1  0.34056856  0.34642872  0.82936524  1  0  0.044421  0  3.795749  0  0  0.053289  0  4.042688  0  0  0.049386  0  4.063322  0  0.553315  0  0.11178  0.055403  0  4.029333  0
C  C60  1  0.48918480  0.84642993  0.82929119  1  0  0.044549  0  3.795962  0  0  0.052682  0  4.043429  0  0  0.048779  0  4.064143  0  0.545919  0  0.111725  0.0548  0  4.030031  0
C  C61  1  0.65942992  0.65357148  0.17063386  1  0  0.044441  0  3.795757  0  0  0.053235  0  4.042807  0  0  0.049331  0  4.063443  0  0.553479  0  0.111795  0.055351  0  4.02945  0
C  C62  1  0.35361210  0.09959665  0.19984042  1  0  0.509076  0  3.849664  0  0  0.462836  0  4.132142  0  0  0.491922  0  4.13194  0  1.395198  0  0.239191  0.443146  0  4.132253  0
C  C63  1  0.15398889  0.40045592  0.80018477  1  0  0.509473  0  3.849643  0  0  0.462539  0  4.132156  0  0  0.491708  0  4.131764  0  1.402588  0  0.239433  0.442813  0  4.132375  0
C  C64  1  0.64639081  0.90040209  0.80016082  1  0  0.509295  0  3.849509  0  0  0.463031  0  4.131986  0  0  0.492115  0  4.131781  0  1.395261  0  0.239315  0.443346  0  4.13209  0
C  C65  1  0.84601111  0.59954429  0.19981448  1  0  0.509411  0  3.849483  0  0  0.462477  0  4.132023  0  0  0.491651  0  4.131625  0  1.402598  0  0.23937  0.44275  0  4.132243  0
C  C66  1  0.09915591  0.13429273  0.29606371  1  0  0.214368  0  3.756205  0  0  0.205449  0  4.003662  0  0  0.212672  0  4.026313  0  0.347139  0  0.099617  0.200682  0  3.987992  0
C  C67  1  0.80278360  0.36585230  0.70374550  1  0  0.215749  0  3.756554  0  0  0.207008  0  4.003442  0  0  0.21421  0  4.026124  0  0.398889  0  0.099816  0.202273  0  3.987754  0
C  C68  1  0.90084250  0.86570675  0.70393722  1  0  0.214346  0  3.756194  0  0  0.205398  0  4.00366  0  0  0.212619  0  4.026311  0  0.34718  0  0.099573  0.200632  0  3.98799  0
C  C69  1  0.19721951  0.63414864  0.29625485  1  0  0.215741  0  3.756561  0  0  0.207022  0  4.0034  0  0  0.214229  0  4.026077  0  0.399034  0  0.099818  0.202287  0  3.987712  0
C  C70  1  0.03403537  0.03732453  0.28753299  1  0  -0.169773  0  3.725748  0  0  -0.193823  0  3.982767  0  0  -0.20009  0  4.004195  0  -0.058782  0  -0.102398  -0.189158  0  3.967614  0
C  C71  1  0.74627323  0.46283518  0.71216243  1  0  -0.170476  0  3.722848  0  0  -0.194233  0  3.979895  0  0  -0.200528  0  4.001178  0  -0.08951  0  -0.102374  -0.189567  0  3.964859  0
C  C72  1  0.96596615  0.96267568  0.71246838  1  0  -0.16977  0  3.725702  0  0  -0.193835  0  3.98272  0  0  -0.200104  0  4.004151  0  -0.05877  0  -0.102384  -0.189168  0  3.96756  0
C  C73  1  0.25372822  0.53716430  0.28783749  1  0  -0.170441  0  3.722873  0  0  -0.194223  0  3.979915  0  0  -0.200519  0  4.001195  0  -0.089449  0  -0.102354  -0.189556  0  3.964878  0
C  C74  1  0.87632100  0.01486157  0.32805856  1  0  -0.052266  0  3.806356  0  0  -0.065498  0  4.061787  0  0  -0.065894  0  4.084049  0  -0.012824  0  -0.094704  -0.064874  0  4.046169  0
C  C75  1  0.54749897  0.48528199  0.67171816  1  0  -0.053587  0  3.803655  0  0  -0.065969  0  4.058929  0  0  -0.066356  0  4.081081  0  -0.038259  0  -0.094858  -0.065378  0  4.043322  0
C  C76  1  0.12367734  0.98513717  0.67194223  1  0  -0.052205  0  3.806346  0  0  -0.065428  0  4.061776  0  0  -0.06582  0  4.084034  0  -0.013094  0  -0.094684  -0.064792  0  4.046166  0
C  C77  1  0.45250255  0.51471822  0.32828190  1  0  -0.053644  0  3.803725  0  0  -0.066045  0  4.058995  0  0  -0.066435  0  4.081152  0  -0.038269  0  -0.094876  -0.065454  0  4.043389  0
C  C78  1  0.78259754  0.08811201  0.37648711  1  0  -0.134918  0  3.761136  0  0  -0.159603  0  4.013714  0  0  -0.164157  0  4.036729  0  -0.048165  0  -0.101761  -0.156411  0  3.998054  0
C  C79  1  0.40488260  0.41198679  0.62349144  1  0  -0.133404  0  3.760588  0  0  -0.158259  0  4.012488  0  0  -0.162836  0  4.03551  0  -0.045931  0  -0.101441  -0.155076  0  3.996857  0
C  C80  1  0.21740094  0.91188820  0.62351264  1  0  -0.134917  0  3.761091  0  0  -0.159634  0  4.013667  0  0  -0.164192  0  4.036683  0  -0.047872  0  -0.101753  -0.156438  0  3.997997  0
C  C81  1  0.59511747  0.58801416  0.37650926  1  0  -0.133358  0  3.760596  0  0  -0.158208  0  4.012494  0  0  -0.162786  0  4.035523  0  -0.045924  0  -0.101427  -0.155025  0  3.996863  0
C  C82  1  0.84319699  0.18790973  0.38587357  1  0  0.064268  0  3.804197  0  0  0.080456  0  4.030059  0  0  0.081054  0  4.054552  0  0.002935  0  -0.011149  0.080028  0  4.013582  0
C  C83  1  0.45616895  0.31218540  0.61414033  1  0  0.063569  0  3.805278  0  0  0.081203  0  4.029643  0  0  0.081781  0  4.054185  0  -0.044451  0  -0.010489  0.080794  0  4.01313  0
C  C84  1  0.15679990  0.81208975  0.61412525  1  0  0.064314  0  3.804131  0  0  0.080473  0  4.030006  0  0  0.08107  0  4.054501  0  0.00296  0  -0.011139  0.080045  0  4.013529  0
C  C85  1  0.54382649  0.68781480  0.38585847  1  0  0.063592  0  3.80531  0  0  0.081218  0  4.02967  0  0  0.081796  0  4.054214  0  -0.044497  0  -0.010456  0.080809  0  4.013156  0
C  C86  1  0.74621196  0.26427807  0.43440245  1  0  -0.111419  0  3.732817  0  0  -0.131147  0  3.981678  0  0  -0.132882  0  4.00149  0  -0.028765  0  -0.090955  -0.129844  0  3.968168  0
C  C87  1  0.31033709  0.23577890  0.56567719  1  0  -0.110754  0  3.737318  0  0  -0.130904  0  3.985582  0  0  -0.132653  0  4.005485  0  -0.053376  0  -0.090721  -0.129601  0  3.972033  0
C  C88  1  0.25378487  0.73572067  0.56559557  1  0  -0.111399  0  3.732737  0  0  -0.131152  0  3.98161  0  0  -0.132886  0  4.001423  0  -0.02858  0  -0.09098  -0.129848  0  3.968099  0
C  C89  1  0.68965987  0.76422130  0.43432242  1  0  -0.110768  0  3.737341  0  0  -0.130933  0  3.985587  0  0  -0.132682  0  4.005497  0  -0.053342  0  -0.090763  -0.129632  0  3.972042  0
C  C90  1  0.80547910  0.36142091  0.44437022  1  0  -0.077833  0  3.791312  0  0  -0.091905  0  4.043458  0  0  -0.093611  0  4.063954  0  -0.062025  0  -0.096202  -0.090578  0  4.029359  0
C  C91  1  0.35990576  0.13866101  0.55567761  1  0  -0.078045  0  3.7936  0  0  -0.092059  0  4.045904  0  0  -0.093743  0  4.066466  0  -0.042002  0  -0.096409  -0.090755  0  4.031747  0
C  C92  1  0.19451779  0.63857857  0.55562859  1  0  -0.07794  0  3.791522  0  0  -0.092026  0  4.043693  0  0  -0.093733  0  4.064188  0  -0.062085  0  -0.096259  -0.0907  0  4.029594  0
C  C93  1  0.64009127  0.86133993  0.44432148  1  0  -0.078079  0  3.793635  0  0  -0.092095  0  4.045929  0  0  -0.093791  0  4.066506  0  -0.042104  0  -0.09643  -0.090798  0  4.031786  0
C  C94  1  0.96378046  0.38597445  0.40470947  1  0  -0.072217  0  3.782828  0  0  -0.086044  0  4.035233  0  0  -0.088034  0  4.056893  0  -0.118522  0  -0.093906  -0.084555  0  4.020273  0
C  C95  1  0.55838876  0.11414122  0.59529483  1  0  -0.073429  0  3.782348  0  0  -0.087151  0  4.03458  0  0  -0.089154  0  4.056296  0  -0.089639  0  -0.0944  -0.085665  0  4.019587  0
C  C96  1  0.03621941  0.61402429  0.59528885  1  0  -0.072057  0  3.782704  0  0  -0.08586  0  4.035078  0  0  -0.08785  0  4.05674  0  -0.118738  0  -0.093807  -0.084374  0  4.02012  0
C  C97  1  0.44160820  0.88585899  0.40470281  1  0  -0.073351  0  3.782422  0  0  -0.087069  0  4.034643  0  0  -0.089069  0  4.056367  0  -0.089712  0  -0.094367  -0.085585  0  4.01965  0
C  C98  1  0.06051997  0.31343946  0.35653304  1  0  -0.110027  0  3.753067  0  0  -0.13131  0  3.998902  0  0  -0.133352  0  4.020742  0  -0.022193  0  -0.091933  -0.129707  0  3.983975  0
C  C99  1  0.70357670  0.18671731  0.64345752  1  0  -0.108713  0  3.750422  0  0  -0.129668  0  3.996498  0  0  -0.131745  0  4.018364  0  -0.007725  0  -0.091267  -0.128057  0  3.98157  0
C  C100  1  0.93947685  0.68655928  0.64346629  1  0  -0.110136  0  3.753001  0  0  -0.131443  0  3.998838  0  0  -0.133487  0  4.020678  0  -0.02213  0  -0.091989  -0.129838  0  3.983911  0
C  C101  1  0.29642172  0.81328217  0.35654013  1  0  -0.108734  0  3.75047  0  0  -0.129698  0  3.996541  0  0  -0.131776  0  4.018411  0  -0.00775  0  -0.091287  -0.128086  0  3.981612  0
C  C102  1  0.00448033  0.21273698  0.34566886  1  0  -0.034031  0  3.750419  0  0  -0.01679  0  3.970724  0  0  -0.019991  0  3.996259  0  -0.041372  0  -0.009819  -0.014761  0  3.953484  0
C  C103  1  0.65813759  0.28739044  0.65427628  1  0  -0.03401  0  3.748214  0  0  -0.018288  0  3.969947  0  0  -0.021472  0  3.995468  0  -0.020968  0  -0.010094  -0.016263  0  3.952707  0
C  C104  1  0.99551808  0.78726250  0.65433076  1  0  -0.034103  0  3.75051  0  0  -0.016782  0  3.970716  0  0  -0.01998  0  3.996251  0  -0.041416  0  -0.009815  -0.014753  0  3.953476  0
C  C105  1  0.34186241  0.71260977  0.34572363  1  0  -0.034021  0  3.748276  0  0  -0.018286  0  3.96996  0  0  -0.021473  0  3.995482  0  -0.020991  0  -0.01012  -0.016262  0  3.952721  0
N  N106  1  0.52998577  0.25177932  0.19635903  1  0  -0.283873  0  3.090907  0  0  -0.255957  0  3.358121  0  0  -0.261506  0  3.372815  0  -1.218247  0  -0.297658  -0.251814  0  3.348387  0
N  N107  1  0.33410746  0.24822261  0.80368148  1  0  -0.283426  0  3.089665  0  0  -0.255763  0  3.356654  0  0  -0.261309  0  3.371344  0  -1.223051  0  -0.297883  -0.251614  0  3.346915  0
N  N108  1  0.47001416  0.74822015  0.80364271  1  0  -0.283824  0  3.090924  0  0  -0.255923  0  3.358125  0  0  -0.261471  0  3.372818  0  -1.218207  0  -0.297636  -0.251779  0  3.348389  0
N  N109  1  0.66589406  0.75177759  0.19631858  1  0  -0.283432  0  3.089734  0  0  -0.255746  0  3.356761  0  0  -0.261294  0  3.371451  0  -1.223108  0  -0.297898  -0.251598  0  3.347022  0
N  N110  1  0.77417399  0.14505017  0.08894777  1  0  -0.277967  0  3.147986  0  0  -0.22646  0  3.41964  0  0  -0.239883  0  3.437186  0  -1.231886  0  -0.300417  -0.216958  0  3.407522  0
N  N111  1  0.68632731  0.35501634  0.91123640  1  0  -0.276432  0  3.149214  0  0  -0.224697  0  3.42073  0  0  -0.238163  0  3.438234  0  -1.233982  0  -0.299785  -0.215171  0  3.408666  0
N  N112  1  0.22582753  0.85495003  0.91105425  1  0  -0.278018  0  3.147918  0  0  -0.226524  0  3.419575  0  0  -0.239947  0  3.437121  0  -1.231923  0  -0.300485  -0.217022  0  3.407457  0
N  N113  1  0.31367586  0.64498534  0.08876277  1  0  -0.276494  0  3.149281  0  0  -0.224762  0  3.420794  0  0  -0.238228  0  3.438298  0  -1.234106  0  -0.29981  -0.215237  0  3.408732  0
N  N114  1  0.25521298  0.15895928  0.25682110  1  0  -0.415745  0  3.393767  0  0  -0.360233  0  3.63207  0  0  -0.3826  0  3.641855  0  -1.298384  0  -0.389997  -0.344777  0  3.625347  0
N  N115  1  0.99841624  0.34112558  0.74299267  1  0  -0.419417  0  3.396308  0  0  -0.362391  0  3.633983  0  0  -0.38477  0  3.643727  0  -1.270873  0  -0.391363  -0.346968  0  3.627342  0
N  N116  1  0.74478689  0.84103946  0.74317984  1  0  -0.415699  0  3.393748  0  0  -0.36018  0  3.632106  0  0  -0.382545  0  3.641889  0  -1.29849  0  -0.389988  -0.344731  0  3.625389  0
N  N117  1  0.00158673  0.65887389  0.25700740  1  0  -0.419414  0  3.396258  0  0  -0.36238  0  3.633916  0  0  -0.384764  0  3.643655  0  -1.270939  0  -0.391342  -0.346956  0  3.627274  0
Cl  Cl118  1  0.16452251  0.12272884  0.95364384  1  0  -0.412172  0  1.053205  0  0  -0.348188  0  1.333867  0  0  -0.367401  0  1.317483  0  -0.45536  0  -0.232903  -0.335166  0  1.345139  0
Cl  Cl119  1  0.21098125  0.37700086  0.04633375  1  0  -0.413337  0  1.05214  0  0  -0.349578  0  1.332531  0  0  -0.36877  0  1.316227  0  -0.456285  0  -0.234032  -0.336584  0  1.343785  0
Cl  Cl120  1  0.83548219  0.87727284  0.04635810  1  0  -0.412155  0  1.053179  0  0  -0.34818  0  1.333841  0  0  -0.367391  0  1.317455  0  -0.455342  0  -0.232894  -0.335165  0  1.345127  0
Cl  Cl121  1  0.78902172  0.62299861  0.95366763  1  0  -0.413327  0  1.052093  0  0  -0.349562  0  1.332472  0  0  -0.368756  0  1.316171  0  -0.456247  0  -0.234027  -0.336568  0  1.343727  0
O  O122  1  0.31946728  0.00964134  0.17184074  1  0  -0.536888  0  1.982287  0  0  -0.486709  0  2.2101  0  0  -0.507605  0  2.203186  0  -1.128374  0  -0.284116  -0.472493  0  2.214659  0
O  O123  1  0.14780554  0.49037527  0.82829830  1  0  -0.536414  0  1.97927  0  0  -0.486481  0  2.20751  0  0  -0.50738  0  2.200544  0  -1.13049  0  -0.284422  -0.472245  0  2.212087  0
O  O124  1  0.68053411  0.99035740  0.82816035  1  0  -0.537081  0  1.982231  0  0  -0.486874  0  2.210048  0  0  -0.507769  0  2.203132  0  -1.128359  0  -0.284243  -0.472661  0  2.214605  0
O  O125  1  0.85219585  0.50962347  0.17170279  1  0  -0.536378  0  1.97918  0  0  -0.486437  0  2.207428  0  0  -0.507339  0  2.20046  0  -1.130502  0  -0.284389  -0.472201  0  2.212006  0
