# generated using pymatgen
data_ZnH14C14(N3O)2
_symmetry_space_group_name_H-M   'P 1'
_cell_length_a   7.14160076
_cell_length_b   8.27832294
_cell_length_c   26.42815210
_cell_angle_alpha   89.99972896
_cell_angle_beta   89.99995647
_cell_angle_gamma   89.99953368
_symmetry_Int_Tables_number   1
_chemical_formula_structural   ZnH14C14(N3O)2
_chemical_formula_sum   'Zn4 H56 C56 N24 O8'
_cell_volume   1562.44496895
_cell_formula_units_Z   4
loop_
 _symmetry_equiv_pos_site_id
 _symmetry_equiv_pos_as_xyz
  1  'x, y, z'
loop_
 _atom_site_type_symbol
 _atom_site_label
 _atom_site_symmetry_multiplicity
 _atom_site_fract_x
 _atom_site_fract_y
 _atom_site_fract_z
 _atom_site_occupancy
 _atom_site_hle17_bader_spin_density
 _atom_site_hle17_ddec_charge
 _atom_site_hle17_ddec_spin_density
 _atom_site_hle17_ddec_sum_bond_order
 _atom_site_hle17_magmom
 _atom_site_hse06_10hf_bader_charge
 _atom_site_hse06_10hf_bader_spin_density
 _atom_site_hse06_10hf_ddec_charge
 _atom_site_hse06_10hf_ddec_spin_density
 _atom_site_hse06_10hf_ddec_sum_bond_order
 _atom_site_hse06_10hf_magmom
 _atom_site_hse06_bader_spin_density
 _atom_site_hse06_ddec_charge
 _atom_site_hse06_ddec_spin_density
 _atom_site_hse06_ddec_sum_bond_order
 _atom_site_hse06_magmom
 _atom_site_pbe_bader_spin_density
 _atom_site_pbe_cm5_charge
 _atom_site_pbe_ddec_charge
 _atom_site_pbe_ddec_spin_density
 _atom_site_pbe_ddec_sum_bond_order
 _atom_site_pbe_magmom
Zn  Zn0  1  0.27785207  0.04251243  0.00274890  1  0  0.969546  0  1.885957  0  1.289626  0  0.783001  0  2.343482  0  0  0.828565  0  2.293793  0  0  0.70609  0.751216  0  2.377569  0
Zn  Zn1  1  0.22214807  0.95748765  0.50274762  1  0  0.969512  0  1.885981  0  1.289563  0  0.782983  0  2.343528  0  0  0.828525  0  2.293875  0  0  0.706056  0.751205  0  2.377608  0
Zn  Zn2  1  0.72214716  0.54251419  0.49724882  1  0  0.969585  0  1.885852  0  1.289651  0  0.783057  0  2.343343  0  0  0.828616  0  2.293656  0  0  0.706108  0.751261  0  2.377451  0
Zn  Zn3  1  0.77785561  0.45748695  0.99724979  1  0  0.969507  0  1.885968  0  1.289656  0  0.782978  0  2.343501  0  0  0.828533  0  2.293821  0  0  0.706075  0.751198  0  2.377582  0
H  H4  1  0.29036433  0.98461188  0.10166999  1  0  0.257413  0  0.929145  0  0.451383  0  0.242939  0  0.994247  0  0  0.248628  0  0.99077  0  0  0.294763  0.238849  0  0.996798  0
H  H5  1  0.20963971  0.01538068  0.60166935  1  0  0.25741  0  0.929186  0  0.451503  0  0.242939  0  0.994279  0  0  0.248628  0  0.990804  0  0  0.29478  0.238849  0  0.996828  0
H  H6  1  0.70963637  0.48461799  0.39832746  1  0  0.257463  0  0.929292  0  0.451385  0  0.242988  0  0.994381  0  0  0.248679  0  0.990909  0  0  0.294781  0.238899  0  0.99693  0
H  H7  1  0.79035829  0.51538223  0.89832871  1  0  0.257393  0  0.929197  0  0.451339  0  0.242932  0  0.994301  0  0  0.248619  0  0.990826  0  0  0.294774  0.238845  0  0.996861  0
H  H8  1  0.66383501  0.99258468  0.22349950  1  0  0.284357  0  0.910399  0  0.499848  0  0.270916  0  0.968697  0  0  0.275869  0  0.967344  0  0  0.312641  0.267422  0  0.969728  0
H  H9  1  0.83617697  0.00742544  0.72349734  1  0  0.284256  0  0.910413  0  0.499894  0  0.270835  0  0.968683  0  0  0.275784  0  0.967333  0  0  0.312602  0.267342  0  0.969712  0
H  H10  1  0.33615722  0.49258320  0.27650664  1  0  0.28423  0  0.910607  0  0.499641  0  0.270807  0  0.968825  0  0  0.27576  0  0.967473  0  0  0.312605  0.267311  0  0.969853  0
H  H11  1  0.16383510  0.50740913  0.77650415  1  0  0.284349  0  0.910428  0  0.499717  0  0.270858  0  0.968745  0  0  0.27581  0  0.967392  0  0  0.312619  0.267359  0  0.969778  0
H  H12  1  0.20644334  0.70032653  0.07634948  1  0  0.111981  0  0.924547  0  0.067977  0  0.127613  0  0.98041  0  0  0.128967  0  0.980351  0  0  0.109211  0.12662  0  0.98051  0
H  H13  1  0.29355798  0.29966399  0.57635030  1  0  0.112031  0  0.924517  0  0.068014  0  0.127648  0  0.98039  0  0  0.129001  0  0.980331  0  0  0.109246  0.126656  0  0.980488  0
H  H14  1  0.79356282  0.20033407  0.42364877  1  0  0.112053  0  0.924468  0  0.068034  0  0.127675  0  0.980363  0  0  0.129029  0  0.980302  0  0  0.109249  0.126681  0  0.980463  0
H  H15  1  0.70643596  0.79966697  0.92364772  1  0  0.112032  0  0.924431  0  0.068001  0  0.127638  0  0.98034  0  0  0.128991  0  0.980281  0  0  0.109235  0.126646  0  0.980439  0
H  H16  1  0.96669748  0.65274172  0.07641301  1  0  0.113867  0  0.958739  0  0.112407  0  0.124969  0  1.026491  0  0  0.126923  0  1.025287  0  0  0.109174  0.123485  0  1.027497  0
H  H17  1  0.53330233  0.34725491  0.57641570  1  0  0.113836  0  0.958734  0  0.1124  0  0.124973  0  1.026433  0  0  0.126928  0  1.02523  0  0  0.109162  0.12349  0  1.027439  0
H  H18  1  0.03331052  0.15274743  0.42358304  1  0  0.113824  0  0.958684  0  0.112344  0  0.124948  0  1.026444  0  0  0.126903  0  1.025241  0  0  0.109166  0.123468  0  1.027441  0
H  H19  1  0.46668977  0.84725476  0.92358490  1  0  0.113807  0  0.958743  0  0.112355  0  0.124944  0  1.02648  0  0  0.126899  0  1.025275  0  0  0.109156  0.123462  0  1.027483  0
H  H20  1  0.90267821  0.95888981  0.06335210  1  0  0.072469  0  0.914838  0  0.05449  0  0.089122  0  0.974781  0  0  0.089314  0  0.975895  0  0  0.108687  0.08887  0  0.97414  0
H  H21  1  0.59732864  0.04110581  0.56335296  1  0  0.072399  0  0.914917  0  0.054419  0  0.089095  0  0.974851  0  0  0.089287  0  0.975965  0  0  0.108688  0.088844  0  0.974207  0
H  H22  1  0.09732273  0.45889727  0.43664615  1  0  0.072364  0  0.914929  0  0.054542  0  0.089056  0  0.974835  0  0  0.089248  0  0.975949  0  0  0.108661  0.088805  0  0.974193  0
H  H23  1  0.40267752  0.54110713  0.93664734  1  0  0.072392  0  0.914895  0  0.05447  0  0.089068  0  0.974833  0  0  0.08926  0  0.975947  0  0  0.108674  0.088817  0  0.974192  0
H  H24  1  0.98011764  0.89513824  0.12370558  1  0  0.059191  0  0.931622  0  0.070233  0  0.076953  0  0.994977  0  0  0.077158  0  0.995505  0  0  0.10268  0.076738  0  0.994677  0
H  H25  1  0.51988343  0.10485164  0.62370598  1  0  0.059145  0  0.931637  0  0.070209  0  0.076961  0  0.994992  0  0  0.077166  0  0.99552  0  0  0.102664  0.076747  0  0.994691  0
H  H26  1  0.01988530  0.39514717  0.37629200  1  0  0.05921  0  0.931616  0  0.070133  0  0.076961  0  0.994998  0  0  0.077166  0  0.995525  0  0  0.10269  0.076746  0  0.994697  0
H  H27  1  0.48011093  0.60485452  0.87629384  1  0  0.059157  0  0.931589  0  0.070199  0  0.076919  0  0.994979  0  0  0.077122  0  0.995508  0  0  0.10268  0.076705  0  0.994677  0
H  H28  1  0.02450186  0.18426333  0.12683847  1  0  0.068212  0  0.913768  0  0.053134  0  0.078993  0  0.975219  0  0  0.080849  0  0.974198  0  0  0.110541  0.077577  0  0.976136  0
H  H29  1  0.47550211  0.81572522  0.62683584  1  0  0.068126  0  0.913853  0  0.053163  0  0.078919  0  0.975282  0  0  0.080764  0  0.974273  0  0  0.1105  0.077504  0  0.976198  0
H  H30  1  0.97548764  0.68427362  0.37315943  1  0  0.068255  0  0.913869  0  0.053463  0  0.079036  0  0.97524  0  0  0.080844  0  0.974272  0  0  0.110568  0.077619  0  0.976159  0
H  H31  1  0.52450709  0.31572819  0.87316141  1  0  0.068135  0  0.913852  0  0.053116  0  0.078917  0  0.975259  0  0  0.08075  0  0.974261  0  0  0.11051  0.077502  0  0.976176  0
H  H32  1  0.40073642  0.28827496  0.08021270  1  0  0.10307  0  0.924412  0  0.067943  0  0.119335  0  0.984788  0  0  0.121346  0  0.983221  0  0  0.101537  0.117789  0  0.986073  0
H  H33  1  0.09925928  0.71172034  0.58021370  1  0  0.10312  0  0.924334  0  0.068185  0  0.119383  0  0.984704  0  0  0.121396  0  0.983135  0  0  0.101559  0.117833  0  0.985988  0
H  H34  1  0.59925771  0.78828600  0.41978807  1  0  0.103139  0  0.924378  0  0.068309  0  0.119384  0  0.984769  0  0  0.121397  0  0.9832  0  0  0.101589  0.117835  0  0.986054  0
H  H35  1  0.90074108  0.21171752  0.91978900  1  0  0.103124  0  0.92434  0  0.068395  0  0.119393  0  0.984689  0  0  0.121406  0  0.983121  0  0  0.101574  0.117843  0  0.985975  0
H  H36  1  0.25285158  0.41229549  0.11737224  1  0  0.09184  0  0.916739  0  0.025223  0  0.109284  0  0.974072  0  0  0.110393  0  0.973764  0  0  0.099795  0.108403  0  0.9744  0
H  H37  1  0.24714682  0.58769924  0.61737226  1  0  0.091797  0  0.916785  0  0.025157  0  0.109267  0  0.974087  0  0  0.110376  0  0.97378  0  0  0.099804  0.108392  0  0.974403  0
H  H38  1  0.74713720  0.91230726  0.38262797  1  0  0.091875  0  0.916697  0  0.025111  0  0.109303  0  0.974038  0  0  0.11041  0  0.973733  0  0  0.099818  0.108431  0  0.974352  0
H  H39  1  0.75285611  0.08769562  0.88263024  1  0  0.091817  0  0.916782  0  0.025138  0  0.109281  0  0.974071  0  0  0.110389  0  0.973765  0  0  0.099809  0.10841  0  0.974382  0
H  H40  1  0.64379201  0.09317137  0.13370842  1  0  0.101129  0  0.956803  0  0.101052  0  0.110527  0  1.022722  0  0  0.113423  0  1.019973  0  0  0.116643  0.108425  0  1.024668  0
H  H41  1  0.85621604  0.90682802  0.63370833  1  0  0.101215  0  0.956763  0  0.101262  0  0.110607  0  1.022688  0  0  0.113501  0  1.019939  0  0  0.116652  0.108504  0  1.024635  0
H  H42  1  0.35619835  0.59318979  0.36629528  1  0  0.101009  0  0.956745  0  0.101033  0  0.110427  0  1.022664  0  0  0.11332  0  1.019917  0  0  0.116639  0.108326  0  1.024613  0
H  H43  1  0.14379231  0.40681206  0.86629408  1  0  0.101017  0  0.956817  0  0.101095  0  0.110432  0  1.022737  0  0  0.113325  0  1.01999  0  0  0.116615  0.10833  0  1.024683  0
H  H44  1  0.03987423  0.36132875  0.20406659  1  0  0.093143  0  0.962461  0  0.036535  0  0.104396  0  1.023562  0  0  0.1069  0  1.022727  0  0  0.095862  0.10259  0  1.024194  0
H  H45  1  0.46013512  0.63867192  0.70406952  1  0  0.093148  0  0.962493  0  0.03655  0  0.104428  0  1.023575  0  0  0.106934  0  1.022735  0  0  0.095871  0.102616  0  1.024204  0
H  H46  1  0.96011783  0.86132340  0.29593067  1  0  0.093232  0  0.9624  0  0.036719  0  0.104509  0  1.023478  0  0  0.107015  0  1.022639  0  0  0.095888  0.102701  0  1.024109  0
H  H47  1  0.53986593  0.13867958  0.79593328  1  0  0.09315  0  0.962449  0  0.036546  0  0.104436  0  1.023522  0  0  0.10694  0  1.022684  0  0  0.095856  0.102626  0  1.024152  0
H  H48  1  0.95793601  0.31111295  0.29350714  1  0  0.086482  0  0.954261  0  0.05911  0  0.099892  0  1.009118  0  0  0.10286  0  1.008185  0  0  0.092676  0.097784  0  1.009857  0
H  H49  1  0.54207156  0.68889490  0.79350932  1  0  0.086356  0  0.954304  0  0.058903  0  0.09975  0  1.009197  0  0  0.102717  0  1.008265  0  0  0.092623  0.097642  0  1.009936  0
H  H50  1  0.04206071  0.81108648  0.20649246  1  0  0.086462  0  0.954202  0  0.059054  0  0.099862  0  1.009077  0  0  0.102826  0  1.008144  0  0  0.092637  0.097755  0  1.009817  0
H  H51  1  0.45793042  0.18890811  0.70649340  1  0  0.086441  0  0.954225  0  0.058948  0  0.099826  0  1.009123  0  0  0.102788  0  1.008192  0  0  0.092646  0.097719  0  1.009862  0
H  H52  1  0.16657492  0.14248457  0.34877266  1  0  0.081533  0  0.9895  0  0.053417  0  0.088009  0  1.061443  0  0  0.091085  0  1.05922  0  0  0.091399  0.085769  0  1.063132  0
H  H53  1  0.33342839  0.85752599  0.84877302  1  0  0.08149  0  0.989534  0  0.053274  0  0.087945  0  1.061498  0  0  0.091015  0  1.059285  0  0  0.091395  0.085706  0  1.063187  0
H  H54  1  0.83341497  0.64245694  0.15122909  1  0  0.081563  0  0.989607  0  0.053362  0  0.088034  0  1.061541  0  0  0.091109  0  1.059318  0  0  0.091411  0.085795  0  1.063231  0
H  H55  1  0.66658182  0.35753010  0.65122908  1  0  0.081547  0  0.989567  0  0.053247  0  0.088006  0  1.061529  0  0  0.09108  0  1.059307  0  0  0.091409  0.085767  0  1.063217  0
H  H56  1  0.45509769  0.02019574  0.31539467  1  0  0.106612  0  0.961693  0  0.076816  0  0.114866  0  1.025121  0  0  0.117836  0  1.024097  0  0  0.100239  0.112767  0  1.025877  0
H  H57  1  0.04491273  0.97982016  0.81539188  1  0  0.106526  0  0.961789  0  0.076788  0  0.114889  0  1.025117  0  0  0.117861  0  1.024092  0  0  0.100274  0.112792  0  1.025871  0
H  H58  1  0.54489195  0.52017812  0.18461065  1  0  0.106555  0  0.961778  0  0.076823  0  0.114891  0  1.025115  0  0  0.117859  0  1.024096  0  0  0.100281  0.112796  0  1.025865  0
H  H59  1  0.95510755  0.47980480  0.68460966  1  0  0.10663  0  0.961712  0  0.076949  0  0.114899  0  1.02511  0  0  0.11787  0  1.024085  0  0  0.100247  0.112801  0  1.025864  0
C  C60  1  0.06668890  0.73507976  0.00583073  1  0  0.346602  0  3.728107  0  0.986786  0  0.320459  0  3.997463  0  0  0.33347  0  4.014577  0  0  0.21905  0.311802  0  3.985727  0
C  C61  1  0.43331263  0.26491665  0.50583233  1  0  0.346504  0  3.728219  0  0.986865  0  0.320288  0  3.997668  0  0  0.333302  0  4.014784  0  0  0.219012  0.311632  0  3.985931  0
C  C62  1  0.93331694  0.23508525  0.49416633  1  0  0.346524  0  3.728226  0  0.987427  0  0.320293  0  3.99768  0  0  0.333309  0  4.014794  0  0  0.219046  0.311635  0  3.985947  0
C  C63  1  0.56668724  0.76491835  0.99416688  1  0  0.346543  0  3.728193  0  0.986896  0  0.320318  0  3.997669  0  0  0.333334  0  4.014786  0  0  0.21906  0.311662  0  3.985935  0
C  C64  1  0.06899219  0.74061427  0.06225578  1  0  -0.23292  0  3.677715  0  0.014575  0  -0.272483  0  3.926504  0  0  -0.27566  0  3.936864  0  0  -0.152021  -0.270133  0  3.919242  0
C  C65  1  0.43101337  0.25938009  0.56225777  1  0  -0.232913  0  3.677663  0  0.014508  0  -0.272385  0  3.926364  0  0  -0.27556  0  3.936727  0  0  -0.152025  -0.270032  0  3.919098  0
C  C66  1  0.93101639  0.24061942  0.43774127  1  0  -0.232903  0  3.67764  0  0.01452  0  -0.272438  0  3.926368  0  0  -0.275615  0  3.93673  0  0  -0.152  -0.270083  0  3.919107  0
C  C67  1  0.56898515  0.75938021  0.93774183  1  0  -0.232909  0  3.677624  0  0.014574  0  -0.27245  0  3.926436  0  0  -0.275624  0  3.936795  0  0  -0.152028  -0.270101  0  3.919175  0
C  C68  1  0.02295968  0.90781722  0.08384174  1  0  0.058061  0  3.610468  0  0.257861  0  -0.001232  0  3.876549  0  0  0.002918  0  3.888652  0  0  -0.065751  -0.003948  0  3.868164  0
C  C69  1  0.47704581  0.09217561  0.58384169  1  0  0.058147  0  3.610502  0  0.257886  0  -0.001301  0  3.876729  0  0  0.002846  0  3.888836  0  0  -0.065805  -0.004016  0  3.86834  0
C  C70  1  0.97704314  0.40782720  0.41615621  1  0  0.058042  0  3.610518  0  0.257855  0  -0.001267  0  3.87664  0  0  0.002883  0  3.888745  0  0  -0.065818  -0.003986  0  3.868258  0
C  C71  1  0.52295847  0.59217638  0.91615740  1  0  0.058134  0  3.610405  0  0.257876  0  -0.001189  0  3.876584  0  0  0.002963  0  3.888684  0  0  -0.065795  -0.003906  0  3.8682  0
C  C72  1  0.12449348  0.18763105  0.09507460  1  0  0.010677  0  3.640505  0  0.318665  0  -0.009063  0  3.884969  0  0  -0.010572  0  3.897763  0  0  -0.001063  -0.008068  0  3.876113  0
C  C73  1  0.37550638  0.81236161  0.59507275  1  0  0.010784  0  3.640537  0  0.31829  0  -0.008902  0  3.884947  0  0  -0.010405  0  3.897742  0  0  -0.001004  -0.007913  0  3.87609  0
C  C74  1  0.87550019  0.68764277  0.40492329  1  0  0.010491  0  3.641096  0  0.318152  0  -0.009027  0  3.885072  0  0  -0.010503  0  3.897866  0  0  -0.001025  -0.008037  0  3.876217  0
C  C75  1  0.62449725  0.31236218  0.90492526  1  0  0.010779  0  3.640647  0  0.318592  0  -0.008777  0  3.884802  0  0  -0.010268  0  3.897599  0  0  -0.000983  -0.007787  0  3.875947  0
C  C76  1  0.02737489  0.26798134  0.05023714  1  0  0.639477  0  3.850133  0  1.597437  0  0.589127  0  4.148913  0  0  0.62238  0  4.143062  0  0  0.209069  0.566527  0  4.152144  0
C  C77  1  0.47262511  0.73200716  0.55023614  1  0  0.639678  0  3.850008  0  1.597602  0  0.589205  0  4.148977  0  0  0.622459  0  4.143118  0  0  0.208966  0.566606  0  4.152208  0
C  C78  1  0.97261663  0.76798203  0.44976253  1  0  0.639408  0  3.850218  0  1.597853  0  0.589126  0  4.148788  0  0  0.62238  0  4.142927  0  0  0.209134  0.566528  0  4.152016  0
C  C79  1  0.52737087  0.23201621  0.94976236  1  0  0.639451  0  3.850265  0  1.597368  0  0.589017  0  4.149129  0  0  0.62227  0  4.143278  0  0  0.209019  0.566417  0  4.152358  0
C  C80  1  0.29839519  0.28663224  0.11138061  1  0  -0.157857  0  3.697936  0  0.025038  0  -0.206127  0  3.950475  0  0  -0.205838  0  3.962371  0  0  -0.150484  -0.206099  0  3.942254  0
C  C81  1  0.20160603  0.71336258  0.61138007  1  0  -0.157883  0  3.698064  0  0.024985  0  -0.206173  0  3.95055  0  0  -0.205887  0  3.962445  0  0  -0.150521  -0.206138  0  3.942314  0
C  C82  1  0.70159476  0.78664424  0.38861979  1  0  -0.157944  0  3.69813  0  0.024446  0  -0.206205  0  3.950585  0  0  -0.205913  0  3.962464  0  0  -0.150558  -0.206171  0  3.942346  0
C  C83  1  0.79839992  0.21335854  0.88862149  1  0  -0.157951  0  3.698158  0  0.024761  0  -0.206235  0  3.950571  0  0  -0.205948  0  3.962464  0  0  -0.150531  -0.206199  0  3.942335  0
C  C84  1  0.38153786  0.21692423  0.15842594  1  0  -0.050439  0  3.812537  0  0.015829  0  -0.036808  0  4.069204  0  0  -0.042239  0  4.096102  0  0  -0.048549  -0.033152  0  4.050812  0
C  C85  1  0.11846881  0.78307471  0.65842532  1  0  -0.050461  0  3.812774  0  0.015678  0  -0.036763  0  4.069343  0  0  -0.042195  0  4.096247  0  0  -0.048536  -0.033109  0  4.050945  0
C  C86  1  0.61844713  0.71693874  0.34157532  1  0  -0.050478  0  3.812603  0  0.01601  0  -0.036942  0  4.069379  0  0  -0.042379  0  4.096285  0  0  -0.048684  -0.033285  0  4.050985  0
C  C87  1  0.88154069  0.28306234  0.84157652  1  0  -0.050497  0  3.812749  0  0.015496  0  -0.036863  0  4.069397  0  0  -0.042295  0  4.096299  0  0  -0.04862  -0.033211  0  4.051005  0
C  C88  1  0.54248260  0.12501613  0.16261584  1  0  0.004776  0  3.699347  0  0.342858  0  -0.043289  0  3.969549  0  0  -0.035812  0  3.984186  0  0  0.006335  -0.047982  0  3.959335  0
C  C89  1  0.95752956  0.87498766  0.66261539  1  0  0.004653  0  3.699564  0  0.342774  0  -0.043454  0  3.969734  0  0  -0.03598  0  3.984369  0  0  0.006375  -0.048144  0  3.959515  0
C  C90  1  0.45751026  0.62502943  0.33738668  1  0  0.005072  0  3.699087  0  0.342584  0  -0.043032  0  3.969317  0  0  -0.03555  0  3.983947  0  0  0.006459  -0.047733  0  3.959106  0
C  C91  1  0.04248328  0.37497285  0.83738706  1  0  0.005005  0  3.699179  0  0.342644  0  -0.043106  0  3.969378  0  0  -0.035626  0  3.984009  0  0  0.006413  -0.047803  0  3.959162  0
C  C92  1  0.29566209  0.21715851  0.20775440  1  0  -0.052401  0  3.833025  0  -0.091814  0  -0.042159  0  4.070223  0  0  -0.04491  0  4.096485  0  0  -0.032913  -0.040347  0  4.052472  0
C  C93  1  0.20434865  0.78284331  0.70775490  1  0  -0.052422  0  3.833131  0  -0.091923  0  -0.04223  0  4.070352  0  0  -0.044983  0  4.09662  0  0  -0.032953  -0.040418  0  4.0526  0
C  C94  1  0.70432571  0.71716470  0.29224609  1  0  -0.052219  0  3.832953  0  -0.092038  0  -0.041869  0  4.070126  0  0  -0.044619  0  4.096388  0  0  -0.032704  -0.040058  0  4.052376  0
C  C95  1  0.79565946  0.28283954  0.79224731  1  0  -0.05241  0  3.833063  0  -0.091751  0  -0.042171  0  4.070262  0  0  -0.044923  0  4.096526  0  0  -0.032886  -0.04036  0  4.052513  0
C  C96  1  0.13163968  0.28723836  0.22755976  1  0  -0.12743  0  3.803442  0  -0.040309  0  -0.144869  0  4.054542  0  0  -0.1453  0  4.074156  0  0  -0.107256  -0.144413  0  4.041147  0
C  C97  1  0.36836959  0.71276558  0.72756222  1  0  -0.127508  0  3.803355  0  -0.03998  0  -0.144967  0  4.054448  0  0  -0.145399  0  4.074064  0  0  -0.107317  -0.1445  0  4.041043  0
C  C98  1  0.86834606  0.78723522  0.27243874  1  0  -0.127698  0  3.803651  0  -0.040235  0  -0.145178  0  4.054744  0  0  -0.145608  0  4.074354  0  0  -0.107333  -0.144717  0  4.041347  0
C  C99  1  0.63163636  0.21276932  0.77244047  1  0  -0.127435  0  3.803361  0  -0.040543  0  -0.144906  0  4.054451  0  0  -0.145336  0  4.074062  0  0  -0.107251  -0.144444  0  4.041051  0
C  C100  1  0.08645239  0.25909355  0.27814335  1  0  -0.121162  0  3.842766  0  -0.085921  0  -0.136974  0  4.10166  0  0  -0.140048  0  4.123203  0  0  -0.117981  -0.134896  0  4.08696  0
C  C101  1  0.41355254  0.74091567  0.77814651  1  0  -0.120928  0  3.842603  0  -0.086364  0  -0.136703  0  4.10146  0  0  -0.139775  0  4.122999  0  0  -0.117886  -0.134626  0  4.08676  0
C  C102  1  0.91354062  0.75907757  0.22185595  1  0  -0.12106  0  3.842559  0  -0.085927  0  -0.13685  0  4.101456  0  0  -0.139916  0  4.122988  0  0  -0.117992  -0.134773  0  4.086758  0
C  C103  1  0.58645316  0.24092290  0.72185614  1  0  -0.121067  0  3.84261  0  -0.085961  0  -0.136846  0  4.10151  0  0  -0.13991  0  4.123042  0  0  -0.117949  -0.134768  0  4.086809  0
C  C104  1  0.20260602  0.16323894  0.30926779  1  0  -0.085558  0  3.824614  0  -0.018822  0  -0.103823  0  4.085859  0  0  -0.105018  0  4.107372  0  0  -0.10987  -0.102831  0  4.071179  0
C  C105  1  0.29739881  0.83677222  0.80926819  1  0  -0.085572  0  3.824743  0  -0.018123  0  -0.103831  0  4.086052  0  0  -0.105023  0  4.107565  0  0  -0.109889  -0.102841  0  4.071374  0
C  C106  1  0.79738088  0.66322185  0.19073316  1  0  -0.085595  0  3.824472  0  -0.018443  0  -0.103856  0  4.085737  0  0  -0.105048  0  4.107244  0  0  -0.109846  -0.102868  0  4.071062  0
C  C107  1  0.70261299  0.33677547  0.69073394  1  0  -0.085569  0  3.824657  0  -0.018145  0  -0.103838  0  4.085916  0  0  -0.105031  0  4.107427  0  0  -0.10987  -0.102848  0  4.071237  0
C  C108  1  0.36694767  0.09408681  0.29089613  1  0  -0.15985  0  3.762788  0  0.031619  0  -0.175717  0  4.010048  0  0  -0.178754  0  4.02916  0  0  -0.10038  -0.173676  0  3.997048  0
C  C109  1  0.13305861  0.90592342  0.79089532  1  0  -0.159753  0  3.762754  0  0.030753  0  -0.175732  0  4.010026  0  0  -0.17877  0  4.029134  0  0  -0.100421  -0.173691  0  3.997029  0
C  C110  1  0.63303847  0.59407664  0.20910757  1  0  -0.159926  0  3.762712  0  0.030772  0  -0.175815  0  4.010036  0  0  -0.178855  0  4.029145  0  0  -0.100468  -0.173775  0  3.997038  0
C  C111  1  0.86695395  0.40591919  0.70910746  1  0  -0.159863  0  3.762763  0  0.031505  0  -0.175713  0  4.01  0  0  -0.178753  0  4.029113  0  0  -0.100354  -0.173672  0  3.997001  0
C  C112  1  0.41217698  0.12179555  0.24015438  1  0  0.180577  0  3.806226  0  0.343641  0  0.173898  0  4.048099  0  0  0.179787  0  4.069839  0  0  0.086535  0.169967  0  4.033351  0
C  C113  1  0.08783926  0.87821424  0.74015325  1  0  0.180541  0  3.80627  0  0.344212  0  0.173866  0  4.048152  0  0  0.179752  0  4.069891  0  0  0.086587  0.169936  0  4.033407  0
C  C114  1  0.58781311  0.62179459  0.25984852  1  0  0.180687  0  3.805997  0  0.344444  0  0.173806  0  4.048069  0  0  0.179697  0  4.069807  0  0  0.086498  0.169872  0  4.033324  0
C  C115  1  0.91217636  0.37820289  0.75984882  1  0  0.180571  0  3.806342  0  0.34353  0  0.173836  0  4.048241  0  0  0.179725  0  4.069983  0  0  0.086512  0.1699  0  4.033492  0
N  N116  1  0.12645781  0.85486581  0.97565894  1  0  -0.355701  0  3.22135  0  -0.823178  0  -0.286838  0  3.520272  0  0  -0.30571  0  3.532339  0  0  -0.252657  -0.274204  0  3.512079  0
N  N117  1  0.37354652  0.14513196  0.47566043  1  0  -0.355676  0  3.221304  0  -0.823284  0  -0.28685  0  3.520317  0  0  -0.30572  0  3.53238  0  0  -0.252684  -0.274219  0  3.512126  0
N  N118  1  0.87354822  0.35486916  0.52433749  1  0  -0.355626  0  3.221247  0  -0.823424  0  -0.28673  0  3.520181  0  0  -0.305601  0  3.532247  0  0  -0.252684  -0.274096  0  3.511986  0
N  N119  1  0.62646155  0.64513309  0.02433904  1  0  -0.355593  0  3.221178  0  -0.823313  0  -0.286704  0  3.520107  0  0  -0.305577  0  3.532175  0  0  -0.252619  -0.274067  0  3.511906  0
N  N120  1  0.09969380  0.80671401  0.92727081  1  0  -0.061553  0  2.939389  0  -0.112053  0  -0.058636  0  3.235039  0  0  -0.056615  0  3.245684  0  0  -0.089687  -0.059808  0  3.227825  0
N  N121  1  0.40030788  0.19328812  0.42727184  1  0  -0.061445  0  2.939241  0  -0.111914  0  -0.058502  0  3.234875  0  0  -0.056481  0  3.245518  0  0  -0.089582  -0.059676  0  3.227663  0
N  N122  1  0.90030428  0.30671160  0.57272607  1  0  -0.061573  0  2.939308  0  -0.111797  0  -0.058655  0  3.234927  0  0  -0.056636  0  3.245571  0  0  -0.089649  -0.059826  0  3.227711  0
N  N123  1  0.59970255  0.69328750  0.07272793  1  0  -0.061509  0  2.939052  0  -0.111947  0  -0.058572  0  3.23466  0  0  -0.056551  0  3.245304  0  0  -0.089626  -0.059745  0  3.227447  0
N  N124  1  0.02492552  0.66259087  0.92805796  1  0  -0.104437  0  3.004348  0  -0.149291  0  -0.096681  0  3.309409  0  0  -0.096691  0  3.320604  0  0  -0.098947  -0.096461  0  3.301828  0
N  N125  1  0.47507616  0.33741125  0.42805914  1  0  -0.104377  0  3.004219  0  -0.149236  0  -0.096623  0  3.309263  0  0  -0.096631  0  3.320461  0  0  -0.098932  -0.096403  0  3.301678  0
N  N126  1  0.97507250  0.16258674  0.57193875  1  0  -0.104398  0  3.004287  0  -0.149108  0  -0.096646  0  3.30933  0  0  -0.096652  0  3.320526  0  0  -0.098939  -0.096426  0  3.301745  0
N  N127  1  0.52493012  0.83741117  0.07194042  1  0  -0.104573  0  3.004176  0  -0.149155  0  -0.096831  0  3.309236  0  0  -0.096837  0  3.320435  0  0  -0.099052  -0.096611  0  3.301653  0
N  N128  1  0.00208626  0.61424988  0.97686656  1  0  -0.362432  0  3.160284  0  -0.785637  0  -0.303834  0  3.457557  0  0  -0.321604  0  3.470206  0  0  -0.246156  -0.29193  0  3.448958  0
N  N129  1  0.49791668  0.38575030  0.47686842  1  0  -0.362481  0  3.160369  0  -0.78566  0  -0.303859  0  3.457674  0  0  -0.321637  0  3.470329  0  0  -0.246163  -0.291952  0  3.449073  0
N  N130  1  0.99791922  0.11424994  0.52312985  1  0  -0.362402  0  3.160315  0  -0.786287  0  -0.30377  0  3.457602  0  0  -0.321544  0  3.470249  0  0  -0.246161  -0.291866  0  3.449004  0
N  N131  1  0.50208635  0.88575112  0.02313145  1  0  -0.36231  0  3.160328  0  -0.785754  0  -0.303664  0  3.457605  0  0  -0.321443  0  3.47026  0  0  -0.246087  -0.29176  0  3.449006  0
N  N132  1  0.17999023  0.02394684  0.07987426  1  0  -0.443594  0  3.26325  0  -1.110634  0  -0.368688  0  3.51376  0  0  -0.386614  0  3.523427  0  0  -0.479167  -0.356123  0  3.506789  0
N  N133  1  0.32001248  0.97604846  0.57987331  1  0  -0.443625  0  3.263176  0  -1.110652  0  -0.36873  0  3.513743  0  0  -0.386635  0  3.523361  0  0  -0.479143  -0.356183  0  3.506811  0
N  N134  1  0.82000777  0.52395632  0.42012312  1  0  -0.443566  0  3.263499  0  -1.110565  0  -0.36879  0  3.514056  0  0  -0.386698  0  3.523669  0  0  -0.479186  -0.356229  0  3.507091  0
N  N135  1  0.67998962  0.47604720  0.92012483  1  0  -0.443563  0  3.263267  0  -1.110548  0  -0.368775  0  3.513844  0  0  -0.386687  0  3.523479  0  0  -0.479193  -0.356223  0  3.506889  0
N  N136  1  0.56163115  0.06919400  0.21149482  1  0  -0.318853  0  3.454998  0  -1.339323  0  -0.260538  0  3.687995  0  0  -0.277118  0  3.704556  0  0  -0.394624  -0.249288  0  3.676486  0
N  N137  1  0.93838086  0.93081509  0.71149354  1  0  -0.318691  0  3.454921  0  -1.33933  0  -0.260353  0  3.687862  0  0  -0.276922  0  3.704415  0  0  -0.394635  -0.249108  0  3.676354  0
N  N138  1  0.43835802  0.56919851  0.28850968  1  0  -0.318906  0  3.454686  0  -1.339094  0  -0.260456  0  3.687656  0  0  -0.277037  0  3.704214  0  0  -0.394643  -0.249197  0  3.676142  0
N  N139  1  0.06163426  0.43079968  0.78850883  1  0  -0.318911  0  3.454696  0  -1.338918  0  -0.260493  0  3.687738  0  0  -0.277072  0  3.704295  0  0  -0.394633  -0.249229  0  3.676217  0
O  O140  1  0.07984515  0.23252745  0.00566613  1  0  -0.614051  0  2.018281  0  -1.204063  0  -0.552134  0  2.278057  0  0  -0.57846  0  2.264704  0  0  -0.311502  -0.533792  0  2.286593  0
O  O141  1  0.42014518  0.76747622  0.50566206  1  0  -0.614169  0  2.017918  0  -1.203962  0  -0.55223  0  2.277767  0  0  -0.578558  0  2.26441  0  0  -0.311493  -0.533884  0  2.286301  0
O  O142  1  0.92014390  0.73253750  0.49433132  1  0  -0.614023  0  2.018354  0  -1.204585  0  -0.552156  0  2.278069  0  0  -0.578483  0  2.264728  0  0  -0.311579  -0.533814  0  2.286602  0
O  O143  1  0.57984767  0.26747093  0.99433487  1  0  -0.614041  0  2.01815  0  -1.203912  0  -0.552125  0  2.277973  0  0  -0.578446  0  2.264609  0  0  -0.31149  -0.533782  0  2.286506  0
O  O144  1  0.89850683  0.36896843  0.06046206  1  0  -0.592757  0  2.032979  0  -1.192448  0  -0.524417  0  2.288333  0  0  -0.551723  0  2.275644  0  0  -0.313924  -0.505464  0  2.2964  0
O  O145  1  0.60148463  0.63102965  0.56045712  1  0  -0.592828  0  2.033308  0  -1.192439  0  -0.524441  0  2.288728  0  0  -0.551743  0  2.276029  0  0  -0.313829  -0.505491  0  2.296799  0
O  O146  1  0.10149775  0.86896822  0.43953632  1  0  -0.592712  0  2.03278  0  -1.192149  0  -0.524433  0  2.288107  0  0  -0.551737  0  2.275412  0  0  -0.31396  -0.505481  0  2.296174  0
O  O147  1  0.39851089  0.13103373  0.93953850  1  0  -0.592761  0  2.033164  0  -1.192477  0  -0.52442  0  2.28858  0  0  -0.551725  0  2.275887  0  0  -0.31391  -0.505469  0  2.296648  0
