# generated using pymatgen
data_H10Pb3(CO)12
_symmetry_space_group_name_H-M   'P 1'
_cell_length_a   8.24525112
_cell_length_b   9.90484362
_cell_length_c   10.69917085
_cell_angle_alpha   93.14552062
_cell_angle_beta   112.68428063
_cell_angle_gamma   90.04960319
_symmetry_Int_Tables_number   1
_chemical_formula_structural   H10Pb3(CO)12
_chemical_formula_sum   'H20 Pb6 C24 O24'
_cell_volume   804.74220489
_cell_formula_units_Z   2
loop_
 _symmetry_equiv_pos_site_id
 _symmetry_equiv_pos_as_xyz
  1  'x, y, z'
loop_
 _atom_site_type_symbol
 _atom_site_label
 _atom_site_symmetry_multiplicity
 _atom_site_fract_x
 _atom_site_fract_y
 _atom_site_fract_z
 _atom_site_occupancy
 _atom_site_hle17_bader_spin_density
 _atom_site_hle17_ddec_charge
 _atom_site_hle17_ddec_spin_density
 _atom_site_hle17_ddec_sum_bond_order
 _atom_site_hle17_magmom
 _atom_site_hse06_10hf_bader_spin_density
 _atom_site_hse06_10hf_ddec_charge
 _atom_site_hse06_10hf_ddec_spin_density
 _atom_site_hse06_10hf_ddec_sum_bond_order
 _atom_site_hse06_10hf_magmom
 _atom_site_hse06_bader_spin_density
 _atom_site_hse06_ddec_charge
 _atom_site_hse06_ddec_spin_density
 _atom_site_hse06_ddec_sum_bond_order
 _atom_site_hse06_magmom
 _atom_site_pbe_bader_spin_density
 _atom_site_pbe_cm5_charge
 _atom_site_pbe_ddec_charge
 _atom_site_pbe_ddec_spin_density
 _atom_site_pbe_ddec_sum_bond_order
 _atom_site_pbe_magmom
H  H0  1  0.21825171  0.06206121  0.65796961  1  0  0.049024  0  0.959449  0  0  0.059803  0  1.029678  0  0  0.060853  0  1.029679  0  0  0.097166  0.05881  0  1.030474  0
H  H1  1  0.56056227  0.43813744  0.34185778  1  0  0.04883  0  0.960277  0  0  0.059624  0  1.030356  0  0  0.060656  0  1.030381  0  0  0.096986  0.058804  0  1.030784  0
H  H2  1  0.78183060  0.93798230  0.34210524  1  0  0.04847  0  0.959627  0  0  0.059384  0  1.029833  0  0  0.060411  0  1.029867  0  0  0.097062  0.058404  0  1.030608  0
H  H3  1  0.43954862  0.56184734  0.65820608  1  0  0.048758  0  0.959989  0  0  0.059717  0  1.029848  0  0  0.060814  0  1.029798  0  0  0.097007  0.058891  0  1.030284  0
H  H4  1  0.35753302  0.17105523  0.95471282  1  0  0.112445  0  0.954674  0  0  0.127253  0  1.017373  0  0  0.129945  0  1.015566  0  0  0.106174  0.125187  0  1.0192  0
H  H5  1  0.40284387  0.32925309  0.04512255  1  0  0.113194  0  0.954395  0  0  0.127103  0  1.01792  0  0  0.129799  0  1.016069  0  0  0.106252  0.125297  0  1.019391  0
H  H6  1  0.64263281  0.82901770  0.04537296  1  0  0.112716  0  0.954272  0  0  0.127412  0  1.017112  0  0  0.130104  0  1.015288  0  0  0.106157  0.125344  0  1.018974  0
H  H7  1  0.59742787  0.67075711  0.95495427  1  0  0.113076  0  0.954693  0  0  0.127056  0  1.018186  0  0  0.129756  0  1.016326  0  0  0.106325  0.125236  0  1.01968  0
H  H8  1  0.44436292  0.03550041  0.89209724  1  0  0.129435  0  0.940095  0  0  0.141137  0  1.00108  0  0  0.144383  0  0.9995  0  0  0.107204  0.138848  0  1.002336  0
H  H9  1  0.55237692  0.46501907  0.10784500  1  0  0.129063  0  0.940531  0  0  0.141137  0  1.000614  0  0  0.14435  0  0.99908  0  0  0.107044  0.138703  0  1.002156  0
H  H10  1  0.55569860  0.96455799  0.10794410  1  0  0.129269  0  0.940384  0  0  0.141149  0  1.001115  0  0  0.144393  0  0.999529  0  0  0.107125  0.138867  0  1.002379  0
H  H11  1  0.44773493  0.53508659  0.89228988  1  0  0.129384  0  0.940537  0  0  0.141218  0  1.000939  0  0  0.144429  0  0.999402  0  0  0.107099  0.138783  0  1.002478  0
H  H12  1  0.34597216  0.29541128  0.63380819  1  0  0.123394  0  0.924686  0  0  0.139598  0  0.984121  0  0  0.142092  0  0.982694  0  0  0.10928  0.137787  0  0.98544  0
H  H13  1  0.71195905  0.20488820  0.36619266  1  0  0.123089  0  0.925126  0  0  0.139505  0  0.984229  0  0  0.142  0  0.98272  0  0  0.108926  0.137683  0  0.985588  0
H  H14  1  0.65418339  0.70466000  0.36632402  1  0  0.122947  0  0.925041  0  0  0.13911  0  0.984515  0  0  0.141604  0  0.983085  0  0  0.109007  0.137299  0  0.985838  0
H  H15  1  0.28797515  0.79509625  0.63395937  1  0  0.122952  0  0.925414  0  0  0.139604  0  0.984176  0  0  0.142133  0  0.982668  0  0  0.108927  0.137817  0  0.985493  0
H  H16  1  0.46196351  0.30099771  0.81206158  1  0  0.127337  0  0.941421  0  0  0.140965  0  1.000028  0  0  0.143326  0  0.99984  0  0  0.107494  0.139314  0  1.000249  0
H  H17  1  0.64989183  0.19915809  0.18798520  1  0  0.127459  0  0.940781  0  0  0.141424  0  0.998865  0  0  0.143768  0  0.998619  0  0  0.107508  0.139767  0  0.999142  0
H  H18  1  0.53814505  0.69897971  0.18809100  1  0  0.127324  0  0.941404  0  0  0.141142  0  0.999784  0  0  0.143527  0  0.999573  0  0  0.107591  0.139492  0  0.999998  0
H  H19  1  0.35010968  0.80068997  0.81217504  1  0  0.127541  0  0.94062  0  0  0.141424  0  0.998874  0  0  0.14375  0  0.998698  0  0  0.107492  0.139814  0  0.999092  0
Pb  Pb20  1  0.04368192  0.75009759  0.99981914  1  0  1.42934  0  1.370265  0  0  1.241668  0  1.775631  0  0  1.300532  0  1.730669  0  0  0.66245  1.199133  0  1.807164  0
Pb  Pb21  1  0.95614197  0.24995329  0.99945295  1  0  1.429557  0  1.370067  0  0  1.241919  0  1.775239  0  0  1.300785  0  1.73028  0  0  0.662643  1.199397  0  1.806771  0
Pb  Pb22  1  0.78143683  0.95754217  0.62951885  1  0  1.364519  0  1.319521  0  0  1.185806  0  1.699431  0  0  1.247709  0  1.65728  0  0  0.662355  1.140019  0  1.730326  0
Pb  Pb23  1  0.15216984  0.54235581  0.36999704  1  0  1.363816  0  1.319114  0  0  1.184779  0  1.699137  0  0  1.246682  0  1.656907  0  0  0.662022  1.139576  0  1.729684  0
Pb  Pb24  1  0.21790614  0.04242789  0.36986869  1  0  1.3645  0  1.320044  0  0  1.185787  0  1.70001  0  0  1.247695  0  1.657795  0  0  0.662265  1.140011  0  1.730923  0
Pb  Pb25  1  0.84761573  0.45744273  0.62979648  1  0  1.36404  0  1.319359  0  0  1.184963  0  1.699429  0  0  1.246894  0  1.657175  0  0  0.662143  1.13975  0  1.729975  0
C  C26  1  0.09196213  0.23211978  0.70380181  1  0  0.655683  0  3.86899  0  0  0.607684  0  4.164491  0  0  0.641996  0  4.158633  0  0  0.207959  0.584294  0  4.167327  0
C  C27  1  0.38809089  0.26799916  0.29594024  1  0  0.654342  0  3.871246  0  0  0.606573  0  4.165959  0  0  0.64087  0  4.160168  0  0  0.208114  0.583276  0  4.168674  0
C  C28  1  0.90811576  0.76791137  0.29624503  1  0  0.655429  0  3.869092  0  0  0.60739  0  4.164694  0  0  0.641691  0  4.158838  0  0  0.207705  0.583993  0  4.167547  0
C  C29  1  0.61184417  0.73209153  0.70409706  1  0  0.654422  0  3.870714  0  0  0.606478  0  4.165666  0  0  0.640775  0  4.159885  0  0  0.208067  0.583182  0  4.16837  0
C  C30  1  0.25382208  0.14579369  0.73611384  1  0  -0.056091  0  3.660137  0  0  -0.063276  0  3.896937  0  0  -0.067216  0  3.910937  0  0  -0.087256  -0.060477  0  3.887319  0
C  C31  1  0.51770993  0.35442449  0.26368094  1  0  -0.056386  0  3.661854  0  0  -0.063541  0  3.897629  0  0  -0.067564  0  3.911609  0  0  -0.087201  -0.06078  0  3.888009  0
C  C32  1  0.74624578  0.85425076  0.26395305  1  0  -0.055493  0  3.65926  0  0  -0.062812  0  3.896238  0  0  -0.066771  0  3.910272  0  0  -0.087366  -0.060005  0  3.886631  0
C  C33  1  0.48230809  0.64557433  0.73637115  1  0  -0.055929  0  3.660488  0  0  -0.062801  0  3.895824  0  0  -0.066844  0  3.909863  0  0  -0.087068  -0.060039  0  3.886201  0
C  C34  1  0.32169508  0.08802760  0.87560386  1  0  -0.289905  0  3.653988  0  0  -0.332772  0  3.903614  0  0  -0.338721  0  3.909858  0  0  -0.166518  -0.328803  0  3.899802  0
C  C35  1  0.44618473  0.41228720  0.12422562  1  0  -0.291177  0  3.655357  0  0  -0.333051  0  3.903647  0  0  -0.339169  0  3.910245  0  0  -0.166699  -0.329164  0  3.899487  0
C  C36  1  0.67838686  0.91205130  0.12447244  1  0  -0.290131  0  3.653977  0  0  -0.333073  0  3.903795  0  0  -0.339025  0  3.910063  0  0  -0.166507  -0.329008  0  3.899731  0
C  C37  1  0.55392457  0.58773701  0.87583764  1  0  -0.291637  0  3.655509  0  0  -0.333443  0  3.903848  0  0  -0.339556  0  3.910431  0  0  -0.166762  -0.329546  0  3.899683  0
C  C38  1  0.19615024  0.99645846  0.90526778  1  0  0.714877  0  3.843033  0  0  0.660327  0  4.146923  0  0  0.695298  0  4.139549  0  0  0.223126  0.636494  0  4.151306  0
C  C39  1  0.29081781  0.50356804  0.09450851  1  0  0.716119  0  3.843208  0  0  0.660821  0  4.147814  0  0  0.695852  0  4.1403  0  0  0.223054  0.637122  0  4.151861  0
C  C40  1  0.80394187  0.00356945  0.09475319  1  0  0.714587  0  3.843286  0  0  0.659961  0  4.147297  0  0  0.694919  0  4.139932  0  0  0.223169  0.636143  0  4.151687  0
C  C41  1  0.70910826  0.49630929  0.90539807  1  0  0.716759  0  3.842627  0  0  0.661346  0  4.147387  0  0  0.696377  0  4.139872  0  0  0.22361  0.637649  0  4.151421  0
C  C42  1  0.40064726  0.23257914  0.72180779  1  0  -0.282646  0  3.590718  0  0  -0.321283  0  3.830562  0  0  -0.327356  0  3.837327  0  0  -0.158039  -0.317037  0  3.825796  0
C  C43  1  0.67883144  0.26766777  0.27816773  1  0  -0.282401  0  3.590201  0  0  -0.321244  0  3.828335  0  0  -0.327153  0  3.834916  0  0  -0.157572  -0.317046  0  3.823771  0
C  C44  1  0.59944032  0.76745856  0.27829827  1  0  -0.282673  0  3.590475  0  0  -0.321326  0  3.830042  0  0  -0.327418  0  3.836799  0  0  -0.157929  -0.317091  0  3.82529  0
C  C45  1  0.32113888  0.73225264  0.72193977  1  0  -0.282302  0  3.589631  0  0  -0.321444  0  3.828063  0  0  -0.327473  0  3.834854  0  0  -0.157421  -0.317292  0  3.823462  0
C  C46  1  0.54140512  0.14992306  0.69750360  1  0  0.730262  0  3.802439  0  0  0.680514  0  4.097093  0  0  0.716475  0  4.089946  0  0  0.224574  0.656181  0  4.10054  0
C  C47  1  0.84407324  0.35046369  0.30269090  1  0  0.728896  0  3.80257  0  0  0.67997  0  4.095436  0  0  0.715825  0  4.08838  0  0  0.224336  0.655641  0  4.099712  0
C  C48  1  0.45862177  0.85011611  0.30253698  1  0  0.730055  0  3.800993  0  0  0.680444  0  4.095342  0  0  0.7164  0  4.08823  0  0  0.224585  0.656118  0  4.098797  0
C  C49  1  0.15587140  0.64948087  0.69740356  1  0  0.729908  0  3.801113  0  0  0.680967  0  4.094118  0  0  0.71685  0  4.087086  0  0  0.224912  0.656641  0  4.098394  0
O  O50  1  0.97342124  0.21894089  0.58415601  1  0  -0.704318  0  1.956028  0  0  -0.643322  0  2.195295  0  0  -0.67422  0  2.190013  0  0  -0.313044  -0.621367  0  2.198472  0
O  O51  1  0.38941760  0.28113877  0.41561901  1  0  -0.703856  0  1.956893  0  0  -0.642929  0  2.195904  0  0  -0.673756  0  2.19052  0  0  -0.313255  -0.620961  0  2.198938  0
O  O52  1  0.02674579  0.78119506  0.41584690  1  0  -0.70459  0  1.955677  0  0  -0.643542  0  2.194804  0  0  -0.674422  0  2.189512  0  0  -0.313157  -0.621653  0  2.198105  0
O  O53  1  0.61043862  0.71900618  0.58437972  1  0  -0.703625  0  1.95648  0  0  -0.642665  0  2.195792  0  0  -0.673522  0  2.190427  0  0  -0.313118  -0.620685  0  2.198824  0
O  O54  1  0.08523102  0.32155004  0.79296236  1  0  -0.658872  0  1.967073  0  0  -0.585628  0  2.204816  0  0  -0.617324  0  2.199381  0  0  -0.292488  -0.56348  0  2.20825  0
O  O55  1  0.29207824  0.17844827  0.20686609  1  0  -0.657619  0  1.965763  0  0  -0.585374  0  2.204227  0  0  -0.616971  0  2.198756  0  0  -0.292574  -0.563024  0  2.207722  0
O  O56  1  0.91472539  0.67839642  0.20711602  1  0  -0.658471  0  1.966203  0  0  -0.585428  0  2.2042  0  0  -0.617099  0  2.198783  0  0  -0.292433  -0.563298  0  2.207633  0
O  O57  1  0.70784369  0.82164922  0.79313774  1  0  -0.657959  0  1.966019  0  0  -0.585746  0  2.204656  0  0  -0.61733  0  2.199187  0  0  -0.29268  -0.563391  0  2.208139  0
O  O58  1  0.69970105  0.19404003  0.73969259  1  0  -0.691755  0  1.957511  0  0  -0.619664  0  2.197901  0  0  -0.652344  0  2.191277  0  0  -0.289304  -0.596237  0  2.201548  0
O  O59  1  0.96018464  0.30652469  0.26057726  1  0  -0.689728  0  1.955323  0  0  -0.618757  0  2.195652  0  0  -0.651242  0  2.188868  0  0  -0.28988  -0.595615  0  2.199941  0
O  O60  1  0.30031106  0.80606961  0.26018597  1  0  -0.690812  0  1.956181  0  0  -0.618956  0  2.196601  0  0  -0.651584  0  2.189911  0  0  -0.289182  -0.595508  0  2.200137  0
O  O61  1  0.03970875  0.69353541  0.73942867  1  0  -0.690619  0  1.955312  0  0  -0.619324  0  2.195634  0  0  -0.651824  0  2.188801  0  0  -0.290143  -0.596169  0  2.199936  0
O  O62  1  0.49390423  0.03642473  0.62835034  1  0  -0.674209  0  1.998517  0  0  -0.589821  0  2.230386  0  0  -0.624385  0  2.226135  0  0  -0.286463  -0.565398  0  2.23269  0
O  O63  1  0.86583801  0.46392603  0.37189513  1  0  -0.673602  0  1.999074  0  0  -0.589167  0  2.230004  0  0  -0.623725  0  2.225834  0  0  -0.286257  -0.565104  0  2.232702  0
O  O64  1  0.50610175  0.96360483  0.37175189  1  0  -0.674647  0  1.997833  0  0  -0.590447  0  2.230073  0  0  -0.624975  0  2.225675  0  0  -0.286588  -0.566  0  2.232369  0
O  O65  1  0.13409063  0.53599383  0.62827111  1  0  -0.673612  0  1.998087  0  0  -0.58968  0  2.229634  0  0  -0.624131  0  2.225277  0  0  -0.286545  -0.565673  0  2.232426  0
O  O66  1  0.03110658  0.01983467  0.85634105  1  0  -0.746412  0  2.067988  0  0  -0.663691  0  2.315988  0  0  -0.69648  0  2.308854  0  0  -0.301917  -0.640297  0  2.320081  0
O  O67  1  0.17468303  0.47969865  0.14329309  1  0  -0.74656  0  2.066571  0  0  -0.663778  0  2.315153  0  0  -0.696397  0  2.307657  0  0  -0.301768  -0.640404  0  2.319251  0
O  O68  1  0.96895010  0.97997667  0.14352818  1  0  -0.746076  0  2.069116  0  0  -0.663209  0  2.317251  0  0  -0.695999  0  2.310094  0  0  -0.301548  -0.639819  0  2.321348  0
O  O69  1  0.82520789  0.52005476  0.85654254  1  0  -0.747174  0  2.066993  0  0  -0.664315  0  2.315685  0  0  -0.69695  0  2.308192  0  0  -0.302141  -0.640925  0  2.319771  0
O  O70  1  0.26260710  0.90127184  0.98264170  1  0  -0.617779  0  1.994442  0  0  -0.544109  0  2.230731  0  0  -0.574136  0  2.223507  0  0  -0.280961  -0.52336  0  2.235274  0
O  O71  1  0.27985254  0.59890631  0.01728580  1  0  -0.618069  0  1.995436  0  0  -0.54435  0  2.232141  0  0  -0.574403  0  2.224933  0  0  -0.280878  -0.523499  0  2.236581  0
O  O72  1  0.73758282  0.09881441  0.01746578  1  0  -0.617353  0  1.99478  0  0  -0.543657  0  2.231086  0  0  -0.573651  0  2.223848  0  0  -0.280951  -0.52292  0  2.235611  0
O  O73  1  0.71997957  0.40090964  0.98253434  1  0  -0.618331  0  1.995289  0  0  -0.544537  0  2.231981  0  0  -0.574579  0  2.224777  0  0  -0.281301  -0.523694  0  2.236425  0
