# generated using pymatgen
data_Tb2MnH28(C8O9)2
_symmetry_space_group_name_H-M   'P 1'
_cell_length_a   8.89729573
_cell_length_b   9.10432668
_cell_length_c   10.63012666
_cell_angle_alpha   81.87456535
_cell_angle_beta   71.85295595
_cell_angle_gamma   77.31562484
_symmetry_Int_Tables_number   1
_chemical_formula_structural   Tb2MnH28(C8O9)2
_chemical_formula_sum   'Tb2 Mn1 H28 C16 O18'
_cell_volume   795.80642380
_cell_formula_units_Z   1
loop_
 _symmetry_equiv_pos_site_id
 _symmetry_equiv_pos_as_xyz
  1  'x, y, z'
loop_
 _atom_site_type_symbol
 _atom_site_label
 _atom_site_symmetry_multiplicity
 _atom_site_fract_x
 _atom_site_fract_y
 _atom_site_fract_z
 _atom_site_occupancy
 _atom_site_hle17_ddec_charge
 _atom_site_hle17_ddec_spin_density
 _atom_site_hle17_ddec_sum_bond_order
 _atom_site_hle17_magmom
 _atom_site_hse06_10hf_ddec_charge
 _atom_site_hse06_10hf_ddec_spin_density
 _atom_site_hse06_10hf_ddec_sum_bond_order
 _atom_site_hse06_10hf_magmom
 _atom_site_hse06_ddec_charge
 _atom_site_hse06_ddec_spin_density
 _atom_site_hse06_ddec_sum_bond_order
 _atom_site_hse06_magmom
 _atom_site_pbe_cm5_charge
 _atom_site_pbe_ddec_charge
 _atom_site_pbe_ddec_spin_density
 _atom_site_pbe_ddec_sum_bond_order
 _atom_site_pbe_magmom
Tb  Tb0  1  0.91448054  0.07780464  0.68268463  1  2.209199  -0.001509  1.649244  0.0  2.053395  -0.001165  2.124096  0.001  2.104657  -0.0017  2.080331  0.0  1.505452  2.013924  -0.000626  2.159551  0.001
Tb  Tb1  1  0.08551990  0.92219437  0.31731547  1  2.209176  -0.001508  1.649252  0.0  2.053361  -0.001164  2.124115  0.001  2.104629  -0.0017  2.080341  0.0  1.505463  2.013917  -0.000626  2.159513  0.001
Mn  Mn2  1  0.00000141  0.99999887  0.99999981  1  1.272142  4.771166  1.813564  4.674  1.127626  4.687342  2.317665  4.531  1.181472  4.735725  2.243558  4.597  0.62781  1.086322  4.636174  2.371506  4.463
H  H3  1  0.82833733  0.36696992  0.05474986  1  0.147465  -0.000198  0.924244  0.0  0.166511  -0.000186  0.978774  0.0  0.169434  -0.000209  0.977348  0.0  0.105907  0.16424  -0.000157  0.980075  0.0
H  H4  1  0.17166363  0.63301913  0.94525991  1  0.147483  -0.000179  0.924157  0.0  0.166486  -0.000186  0.978752  0.0  0.169404  -0.000209  0.977336  0.0  0.10592  0.164239  -0.000157  0.980021  0.0
H  H5  1  0.63113659  0.41435176  0.03075275  1  0.136622  0.000196  0.936013  0.0  0.156052  0.000344  0.994577  0.0  0.15849  0.000239  0.993452  0.0  0.102548  0.154217  0.000474  0.995503  0.0
H  H6  1  0.36886537  0.58563840  0.96925569  1  0.136532  0.00021  0.936106  0.0  0.155975  0.000344  0.994646  0.0  0.158408  0.000239  0.99353  0.0  0.102493  0.154143  0.000474  0.995569  0.0
H  H7  1  0.78567972  0.51017839  0.93114850  1  0.136813  0.000179  0.949197  0.0  0.157902  0.000356  1.008694  0.0  0.159373  0.000226  1.009247  0.0  0.104868  0.156742  0.000521  1.008429  0.001
H  H8  1  0.21431975  0.48981756  0.06886542  1  0.136708  0.000192  0.949247  0.0  0.157801  0.000356  1.008757  0.0  0.159271  0.000227  1.009309  0.0  0.104826  0.156637  0.000521  1.008503  0.001
H  H9  1  0.73349703  0.74011476  0.07309319  1  0.143326  -0.00017  0.924114  0.0  0.16408  -0.000183  0.976624  0.0  0.166992  -0.000187  0.975011  0.0  0.103358  0.161855  -0.000171  0.978048  0.0
H  H10  1  0.26649724  0.25989109  0.92691030  1  0.14339  -0.000172  0.924129  0.0  0.164161  -0.000183  0.976606  0.0  0.167074  -0.000187  0.974988  0.0  0.10339  0.161934  -0.000171  0.978033  0.0
H  H11  1  0.58299380  0.74504513  0.99057262  1  0.140426  9.5e-05  0.937104  0.0  0.15939  0.000206  0.99702  0.0  0.161451  0.000121  0.99671  0.0  0.102858  0.157834  0.000318  0.997364  0.0
H  H12  1  0.41699733  0.25495849  0.00943287  1  0.140474  9.1e-05  0.936972  0.0  0.159412  0.000206  0.996922  0.0  0.161472  0.000121  0.996611  0.0  0.102875  0.157858  0.000318  0.997264  0.0
H  H13  1  0.56633619  0.89433161  0.08491752  1  0.168383  0.000197  0.944996  0.0  0.184955  0.000421  1.005265  0.001  0.188829  0.00025  1.003313  0.0  0.110064  0.182013  0.000641  1.006896  0.001
H  H14  1  0.43365817  0.10567417  0.91508313  1  0.168351  0.000194  0.944907  0.0  0.18493  0.000421  1.005178  0.001  0.188802  0.00025  1.003225  0.0  0.110046  0.18199  0.000641  1.00681  0.001
H  H15  1  0.49490181  0.86748648  0.57655482  1  0.125657  0.000256  0.947446  0.0  0.143973  0.000409  1.007513  0.0  0.146529  0.000325  1.0063  0.0  0.094281  0.142197  0.000505  1.008392  0.0
H  H16  1  0.50509541  0.13252937  0.42344003  1  0.125663  0.000252  0.947448  0.0  0.143981  0.000409  1.0075  0.0  0.146537  0.000325  1.006287  0.0  0.094306  0.142206  0.000505  1.00838  0.0
H  H17  1  0.45603738  0.72076065  0.70523585  1  0.139745  9.1e-05  0.929125  0.0  0.161366  0.000273  0.983693  0.0  0.163314  0.000196  0.983453  0.0  0.106195  0.160053  0.000359  0.983871  0.0
H  H18  1  0.54396865  0.27924718  0.29475323  1  0.139718  8.7e-05  0.928978  0.0  0.161354  0.000274  0.983548  0.0  0.1633  0.000196  0.983309  0.0  0.106237  0.160037  0.000359  0.983729  0.0
H  H19  1  0.52633398  0.87732612  0.73406678  1  0.158983  -6.6e-05  0.971935  0.0  0.174371  5.1e-05  1.034699  0.0  0.177867  1.3e-05  1.033239  0.0  0.10248  0.171927  9.6e-05  1.03574  0.0
H  H20  1  0.47366598  0.12268183  0.26592846  1  0.158856  -7e-05  0.971969  0.0  0.174246  5.1e-05  1.034758  0.0  0.177743  1.3e-05  1.033295  0.0  0.102451  0.171798  9.6e-05  1.035809  0.0
H  H21  1  0.17990484  0.31999063  0.25485688  1  0.129094  -8e-06  0.969596  0.0  0.146676  8.8e-05  1.032157  0.0  0.148404  3e-05  1.032237  0.0  0.096642  0.145379  0.000161  1.032235  0.0
H  H22  1  0.82009291  0.68000958  0.74514652  1  0.129067  -2e-06  0.969285  0.0  0.146642  8.8e-05  1.031892  0.0  0.148368  3e-05  1.031975  0.0  0.096618  0.145343  0.00016  1.03197  0.0
H  H23  1  0.25865617  0.39043190  0.36581509  1  0.145035  1.3e-05  0.926525  0.0  0.167069  5.2e-05  0.980283  0.0  0.169522  3.7e-05  0.979292  0.0  0.108279  0.165279  6.6e-05  0.981079  0.0
H  H24  1  0.74135226  0.60956355  0.63417696  1  0.145155  2e-05  0.926553  0.0  0.167163  5.2e-05  0.980306  0.0  0.169616  3.7e-05  0.979319  0.0  0.108286  0.165394  6.6e-05  0.981074  0.0
H  H25  1  0.06467824  0.47289815  0.35625641  1  0.169961  -7e-06  0.939509  0.0  0.187688  1.4e-05  0.996712  0.0  0.19131  5e-06  0.994821  0.0  0.111648  0.185056  2.4e-05  0.998187  0.0
H  H26  1  0.93532590  0.52710074  0.64373809  1  0.170057  -1e-06  0.939505  0.0  0.187741  1.4e-05  0.996746  0.0  0.191371  5e-06  0.994845  0.0  0.111637  0.185103  2.4e-05  0.998225  0.0
H  H27  1  0.61039536  0.17847793  0.61451844  1  0.442315  2e-06  0.805553  0.0  0.430806  2e-05  0.846881  0.0  0.43801  1.1e-05  0.836752  0.0  0.339256  0.425638  5.7e-05  0.853779  0.0
H  H28  1  0.38960639  0.82152002  0.38548430  1  0.442263  0.0  0.805677  0.0  0.430756  2e-05  0.846959  0.0  0.43796  1.1e-05  0.836834  0.0  0.33922  0.425591  5.7e-05  0.853889  0.0
H  H29  1  0.74202124  0.12185081  0.47895740  1  0.434826  6e-06  0.871372  0.0  0.400705  2.2e-05  0.940368  0.0  0.412511  1.8e-05  0.923274  0.0  0.297494  0.392369  2.9e-05  0.952386  0.0
H  H30  1  0.25797701  0.87814710  0.52104431  1  0.434799  5e-06  0.871418  0.0  0.400677  2.2e-05  0.940416  0.0  0.412486  1.8e-05  0.923319  0.0  0.297483  0.392336  2.9e-05  0.952446  0.0
C  C31  1  0.27711148  0.92035758  0.74027645  1  0.795062  0.004132  3.780952  0.005  0.755394  0.007387  4.069348  0.008  0.790485  0.005715  4.060503  0.006  0.239299  0.731232  0.00904  4.074158  0.009
C  C32  1  0.72288544  0.07964141  0.25972356  1  0.794973  0.004128  3.781  0.005  0.755323  0.007385  4.069374  0.008  0.790411  0.005715  4.06053  0.006  0.239274  0.731161  0.009039  4.07418  0.009
C  C33  1  0.76101963  0.40044387  0.98167675  1  -0.446229  -0.000601  3.649179  0.0  -0.522448  -0.000124  3.879745  0.0  -0.529163  -0.000319  3.882013  0.0  -0.235549  -0.51763  6.4e-05  3.878573  0.0
C  C34  1  0.23898418  0.59954859  0.01833282  1  -0.446075  -0.000713  3.649085  0.0  -0.52229  -0.000121  3.879727  0.0  -0.529002  -0.000323  3.882007  0.0  -0.235492  -0.517494  6.5e-05  3.878536  0.0
C  C35  1  0.65396370  0.81185283  0.01933172  1  -0.459555  -0.000599  3.640851  0.0  -0.535459  -2.7e-05  3.875278  0.0  -0.543047  -0.000274  3.876004  0.0  -0.240985  -0.530094  0.000228  3.875284  0.0
C  C36  1  0.34602645  0.18815635  0.98066950  1  -0.459596  -0.000593  3.64065  0.0  -0.535494  -2.7e-05  3.875086  0.0  -0.543078  -0.000275  3.875807  0.0  -0.240988  -0.530134  0.000229  3.875098  0.0
C  C37  1  0.81110522  0.28765676  0.87910373  1  0.767739  0.007009  3.811289  0.007  0.728966  0.011093  4.10489  0.011  0.763994  0.007898  4.095645  0.008  0.209499  0.704404  0.014784  4.110753  0.014
C  C38  1  0.18889298  0.71234689  0.12090099  1  0.767613  0.007025  3.81134  0.007  0.728848  0.011091  4.104902  0.011  0.763877  0.0079  4.095664  0.008  0.209423  0.704279  0.014782  4.110777  0.014
C  C39  1  0.74694736  0.89616303  0.89972477  1  0.763678  0.006837  3.819154  0.007  0.721425  0.011022  4.118563  0.01  0.756611  0.007945  4.108679  0.008  0.210145  0.69677  0.014669  4.124886  0.013
C  C40  1  0.25305185  0.10383600  0.10027655  1  0.763606  0.006847  3.81908  0.007  0.721352  0.011023  4.118493  0.01  0.756537  0.007946  4.108615  0.008  0.210097  0.696692  0.014671  4.124828  0.013
C  C41  1  0.44971009  0.84347757  0.68427967  1  -0.473688  0.001017  3.657253  0.001  -0.549378  0.001268  3.888082  0.001  -0.557359  0.000941  3.890336  0.001  -0.245644  -0.543785  0.001606  3.886299  0.001
C  C42  1  0.55028862  0.15653043  0.31571775  1  -0.473491  0.001038  3.657  0.001  -0.549209  0.001269  3.88785  0.001  -0.557187  0.000942  3.890107  0.001  -0.245684  -0.543616  0.001606  3.886074  0.001
C  C43  1  0.15041055  0.36500400  0.35132784  1  -0.455706  6.5e-05  3.62523  0.0  -0.530616  0.000132  3.850615  0.0  -0.538278  9.1e-05  3.853098  0.0  -0.2368  -0.525151  0.000173  3.848881  0.0
C  C44  1  0.84959509  0.63498328  0.64865468  1  -0.455922  4.4e-05  3.625146  0.0  -0.530779  0.000132  3.850586  0.0  -0.538439  9.1e-05  3.853039  0.0  -0.236766  -0.525346  0.000173  3.848881  0.0
C  C45  1  0.07981219  0.25688398  0.46232960  1  0.799579  6.1e-05  3.787987  0.0  0.765541  0.000126  4.071849  0.0  0.800147  7.5e-05  4.061485  0.0  0.221807  0.742038  0.000155  4.07781  0.0
C  C46  1  0.92019291  0.74311604  0.53766452  1  0.799682  7.3e-05  3.788106  0.0  0.765649  0.000125  4.071945  0.0  0.800256  7.6e-05  4.061582  0.0  0.221904  0.74214  0.000155  4.07791  0.0
O  O47  1  0.18889606  0.96094566  0.66092456  1  -0.755137  0.001361  2.041718  0.002  -0.693725  0.002998  2.279688  0.004  -0.721073  0.002177  2.268236  0.003  -0.377931  -0.674008  0.003815  2.286839  0.005
O  O48  1  0.81109795  0.03904997  0.33907755  1  -0.755104  0.001362  2.041722  0.002  -0.693687  0.002998  2.279658  0.004  -0.721031  0.002175  2.268206  0.003  -0.377889  -0.673976  0.003815  2.286799  0.005
O  O49  1  0.03950727  0.29038590  0.58146728  1  -0.688355  -0.000122  1.934612  0.0  -0.642498  -1.5e-05  2.158395  0.0  -0.667379  -6.7e-05  2.149728  0.0  -0.373745  -0.625038  4.3e-05  2.163964  0.0
O  O50  1  0.96049892  0.70960849  0.41852828  1  -0.68837  -0.000129  1.934534  0.0  -0.642544  -1.5e-05  2.158345  0.0  -0.667427  -6.8e-05  2.149672  0.0  -0.373824  -0.625088  4.3e-05  2.163918  0.0
O  O51  1  0.89876807  0.89411787  0.88064581  1  -0.770734  0.026462  2.049014  0.012  -0.710234  0.033736  2.320513  0.015  -0.739316  0.030739  2.305174  0.013  -0.373919  -0.688838  0.036652  2.330694  0.018
O  O52  1  0.10122086  0.10588564  0.11935552  1  -0.770731  0.026466  2.048787  0.012  -0.710223  0.033738  2.320267  0.015  -0.73931  0.030743  2.304936  0.013  -0.373878  -0.688824  0.036655  2.330443  0.018
O  O53  1  0.94533250  0.19102442  0.86696531  1  -0.772065  0.028469  2.062614  0.013  -0.709291  0.035574  2.332991  0.017  -0.738983  0.032359  2.31696  0.014  -0.381733  -0.687384  0.038703  2.343533  0.019
O  O54  1  0.05467784  0.80897232  0.13303269  1  -0.77195  0.028467  2.062906  0.013  -0.709162  0.035571  2.333231  0.017  -0.738836  0.032358  2.317174  0.014  -0.381663  -0.687256  0.038701  2.343767  0.019
O  O55  1  0.67939287  0.97185280  0.81550254  1  -0.707891  0.00459  1.983617  0.006  -0.657533  0.007586  2.219671  0.009  -0.683229  0.005844  2.211648  0.007  -0.369115  -0.639535  0.009461  2.225045  0.01
O  O56  1  0.32060110  0.02814951  0.18449491  1  -0.707795  0.004588  1.983644  0.006  -0.657459  0.007586  2.219739  0.009  -0.683155  0.005842  2.211718  0.007  -0.369102  -0.639466  0.009462  2.225115  0.01
O  O57  1  0.72752107  0.28722382  0.80234829  1  -0.677712  0.005125  1.895353  0.006  -0.634016  0.008198  2.119054  0.009  -0.658774  0.006359  2.110791  0.007  -0.370879  -0.616667  0.010239  2.124629  0.011
O  O58  1  0.27248451  0.71277864  0.19765291  1  -0.677696  0.005121  1.8952  0.006  -0.63398  0.008197  2.118872  0.009  -0.658741  0.006358  2.110609  0.007  -0.370863  -0.616636  0.010238  2.124445  0.011
O  O59  1  0.05607551  0.12924658  0.43875176  1  -0.841471  8e-06  2.080297  0.0  -0.778977  0.000116  2.334946  0.0  -0.806642  7.8e-05  2.324842  0.0  -0.450153  -0.758897  0.000219  2.341172  0.0
O  O60  1  0.94392636  0.87075128  0.56124719  1  -0.841513  3e-06  2.080394  0.0  -0.779018  0.000117  2.335059  0.0  -0.806685  7.8e-05  2.324955  0.0  -0.45018  -0.758933  0.000219  2.341286  0.0
O  O61  1  0.72204950  0.17386678  0.56209753  1  -0.89279  4.7e-05  1.848354  0.0  -0.847542  0.0001  2.026944  0.0  -0.865234  7.4e-05  1.997017  0.0  -0.632235  -0.834688  0.000149  2.047509  0.0
O  O62  1  0.27795071  0.82613336  0.43790246  1  -0.892721  5.3e-05  1.848507  0.0  -0.847466  0.0001  2.027056  0.0  -0.865161  7.4e-05  1.997125  0.0  -0.632193  -0.83461  0.000149  2.047656  0.0
O  O63  1  0.22846179  0.93839248  0.86310204  1  -0.648638  0.031496  2.007902  0.019  -0.578342  0.036435  2.257413  0.02  -0.610172  0.033126  2.245574  0.017  -0.297297  -0.554575  0.039615  2.264322  0.023
O  O64  1  0.77153957  0.06160768  0.13689861  1  -0.648683  0.031499  2.008005  0.019  -0.578379  0.036437  2.257479  0.02  -0.610223  0.033128  2.245676  0.017  -0.297331  -0.554616  0.039615  2.264391  0.023
