# generated using pymatgen
data_Cd3Si2H32(C7O2)8
_symmetry_space_group_name_H-M   'P 1'
_cell_length_a   14.46256181
_cell_length_b   15.17717667
_cell_length_c   23.19310459
_cell_angle_alpha   79.18719189
_cell_angle_beta   71.91632300
_cell_angle_gamma   61.51498460
_symmetry_Int_Tables_number   1
_chemical_formula_structural   Cd3Si2H32(C7O2)8
_chemical_formula_sum   'Cd6 Si4 H64 C112 O32'
_cell_volume   4248.81341320
_cell_formula_units_Z   2
loop_
 _symmetry_equiv_pos_site_id
 _symmetry_equiv_pos_as_xyz
  1  'x, y, z'
loop_
 _atom_site_type_symbol
 _atom_site_label
 _atom_site_symmetry_multiplicity
 _atom_site_fract_x
 _atom_site_fract_y
 _atom_site_fract_z
 _atom_site_occupancy
 _atom_site_pbe_bader_charge
 _atom_site_pbe_bader_spin_density
 _atom_site_pbe_cm5_charge
 _atom_site_pbe_ddec_charge
 _atom_site_pbe_ddec_spin_density
 _atom_site_pbe_ddec_sum_bond_order
 _atom_site_pbe_magmom
Cd  Cd0  1  0.63606903  0.63932776  0.03482904  1  1.336208  0  0.805678  1.02076  0  2.145703  0
Cd  Cd1  1  0.30977692  0.86072413  0.46535740  1  1.334701  0  0.804234  1.020409  0  2.136511  0
Cd  Cd2  1  0.36384210  0.36060680  0.96535962  1  1.336921  0  0.805882  1.02198  0  2.143356  0
Cd  Cd3  1  0.68992944  0.13939437  0.53439800  1  1.335405  0  0.804657  1.021471  0  2.135838  0
Cd  Cd4  1  0.50017754  0.50002291  0.00010583  1  1.425575  0  0.832888  1.143979  0  2.242487  0
Cd  Cd5  1  0.00012129  0.99989802  0.49997885  1  1.425267  0  0.832693  1.143554  0  2.245288  0
Si  Si6  1  0.90180911  0.98597940  0.14139739  1  2.687166  0  0.139059  0.67073  0  3.854218  0
Si  Si7  1  0.02908911  0.51409397  0.35769179  1  2.683412  0  0.139845  0.668758  0  3.855211  0
Si  Si8  1  0.09817496  0.01390921  0.85859740  1  2.686028  0  0.139047  0.670162  0  3.85453  0
Si  Si9  1  0.97053142  0.48598427  0.64239124  1  2.682024  0  0.139797  0.668873  0  3.85377  0
H  H10  1  0.99901692  0.12845860  0.08045643  1  0.025718  0  0.09832  0.086125  0  1.032665  0
H  H11  1  0.20833887  0.37143013  0.41856380  1  0.051028  0  0.098282  0.086592  0  1.03034  0
H  H12  1  0.00116727  0.87120987  0.91949730  1  0.040097  0  0.098411  0.086279  0  1.032224  0
H  H13  1  0.79122705  0.62884470  0.58151685  1  0.052858  0  0.098282  0.086878  0  1.030184  0
H  H14  1  0.59886230  0.31884622  0.10642889  1  0.066733  0  0.109027  0.117704  0  0.992045  0
H  H15  1  0.02400983  0.18121934  0.39310388  1  0.085178  0  0.109032  0.117964  0  0.991055  0
H  H16  1  0.40132919  0.68130681  0.89367558  1  0.06506  0  0.108947  0.117526  0  0.992181  0
H  H17  1  0.97615231  0.81859402  0.60684130  1  0.084851  0  0.109104  0.118173  0  0.990759  0
H  H18  1  0.03929203  0.80296195  0.06857991  1  0.065399  0  0.099732  0.09438  0  1.024361  0
H  H19  1  0.91077318  0.69652179  0.43106353  1  0.057956  0  0.099624  0.094491  0  1.024422  0
H  H20  1  0.96088805  0.19697986  0.93128122  1  0.083656  0  0.099522  0.094134  0  1.024439  0
H  H21  1  0.08896343  0.30349388  0.56918760  1  0.060319  0  0.099703  0.094942  0  1.024296  0
H  H22  1  0.68177425  0.13559034  0.13122104  1  0.076484  0  0.105637  0.098387  0  0.993756  0
H  H23  1  0.94889224  0.36424647  0.36767340  1  0.070208  0  0.10583  0.09895  0  0.993005  0
H  H24  1  0.31819484  0.86453359  0.86879894  1  0.075512  0  0.105869  0.098798  0  0.993597  0
H  H25  1  0.05095288  0.63560214  0.63234389  1  0.07406  0  0.105632  0.098757  0  0.993087  0
H  H26  1  0.02072714  0.85454287  0.23402353  1  0.06947  0  0.100739  0.092889  0  1.010305  0
H  H27  1  0.10876565  0.64573069  0.26528835  1  0.061186  0  0.100529  0.093364  0  1.010197  0
H  H28  1  0.97924429  0.14513617  0.76592457  1  0.073794  0  0.100641  0.092945  0  1.009983  0
H  H29  1  0.89082899  0.35453563  0.73495685  1  0.050075  0  0.100244  0.093232  0  1.010471  0
H  H30  1  0.73367200  0.13689072  0.23275782  1  0.043097  0  0.100823  0.094408  0  1.018243  0
H  H31  1  0.10281655  0.36359001  0.26611815  1  0.054209  0  0.101  0.093766  0  1.018443  0
H  H32  1  0.26643984  0.86294626  0.76729419  1  0.040529  0  0.100878  0.094361  0  1.018493  0
H  H33  1  0.89720376  0.63655298  0.73387346  1  0.053184  0  0.100881  0.093554  0  1.018558  0
H  H34  1  0.91470263  0.31171130  0.05533032  1  0.10239  0  0.111497  0.117338  0  0.985082  0
H  H35  1  0.28175575  0.18840311  0.44426498  1  0.108965  0  0.111656  0.117925  0  0.98545  0
H  H36  1  0.08571427  0.68798060  0.94467727  1  0.10035  0  0.111753  0.11762  0  0.984572  0
H  H37  1  0.71813818  0.81183672  0.55572117  1  0.108387  0  0.111532  0.117781  0  0.985257  0
H  H38  1  0.71668302  0.15724984  0.33978167  1  0.11463  0  0.112283  0.119507  0  0.985229  0
H  H39  1  0.21338478  0.34320638  0.15921115  1  0.113557  0  0.112187  0.118985  0  0.986403  0
H  H40  1  0.28363659  0.84249807  0.66025079  1  0.109539  0  0.112229  0.119318  0  0.984947  0
H  H41  1  0.78693577  0.65703877  0.84083810  1  0.111207  0  0.112341  0.119412  0  0.986128  0
H  H42  1  0.00514798  0.87838864  0.34018767  1  0.090909  0  0.105196  0.111665  0  1.009872  0
H  H43  1  0.22334738  0.62181304  0.15925119  1  0.086891  0  0.105265  0.11158  0  1.01059  0
H  H44  1  0.99503702  0.12120280  0.65974348  1  0.094405  0  0.105351  0.112119  0  1.009733  0
H  H45  1  0.77659684  0.37853569  0.84107565  1  0.09369  0  0.105049  0.111489  0  1.010843  0
H  H46  1  0.09762288  0.00381532  0.14602605  1  0.014205  0  0.105357  0.096581  0  0.99399  0
H  H47  1  0.24732986  0.49686171  0.35287460  1  0.049176  0  0.105345  0.096281  0  0.994898  0
H  H48  1  0.90212462  0.99615967  0.85409973  1  0.012885  0  0.105385  0.096778  0  0.994139  0
H  H49  1  0.75223304  0.50306773  0.64709115  1  0.049777  0  0.105043  0.096121  0  0.994756  0
H  H50  1  0.23813799  0.70211017  0.03063316  1  0.085918  0  0.101432  0.099905  0  1.044965  0
H  H51  1  0.97062301  0.79718918  0.46941553  1  0.086636  0  0.10153  0.10078  0  1.043836  0
H  H52  1  0.76210615  0.29794091  0.96932323  1  0.086271  0  0.101501  0.099991  0  1.044681  0
H  H53  1  0.02944327  0.20267832  0.53072909  1  0.086445  0  0.101575  0.100574  0  1.044072  0
H  H54  1  0.85495387  0.97475217  0.02955803  1  0.043888  0  0.101619  0.094413  0  1.01183  0
H  H55  1  0.85927529  0.52536380  0.46940640  1  0.061647  0  0.101809  0.095007  0  1.009295  0
H  H56  1  0.14504789  0.02506880  0.97044781  1  0.043341  0  0.101747  0.094738  0  1.011767  0
H  H57  1  0.13989808  0.47511621  0.53057000  1  0.058042  0  0.101389  0.094109  0  1.009652  0
H  H58  1  0.78138975  0.87559442  0.00038892  1  0.079266  0  0.107807  0.11245  0  0.99681  0
H  H59  1  0.65746285  0.62442687  0.49837839  1  0.104898  0  0.108052  0.111984  0  0.99714  0
H  H60  1  0.21860221  0.12417271  0.99967083  1  0.116902  0  0.107848  0.112213  0  0.997312  0
H  H61  1  0.34170158  0.37626073  0.50126873  1  0.116169  0  0.107892  0.111762  0  0.997683  0
H  H62  1  0.29649709  0.90335793  0.10551137  1  0.091064  0  0.112471  0.119921  0  0.984351  0
H  H63  1  0.30506896  0.59719901  0.39368050  1  0.105841  0  0.112394  0.11967  0  0.983729  0
H  H64  1  0.70330358  0.09674602  0.89469261  1  0.085645  0  0.112492  0.119807  0  0.984331  0
H  H65  1  0.69482951  0.40255365  0.60618832  1  0.103976  0  0.112227  0.119525  0  0.984012  0
H  H66  1  0.79466786  0.85625934  0.21459491  1  0.072792  0  0.100433  0.092096  0  1.012317  0
H  H67  1  0.86508979  0.64374081  0.28432477  1  0.068422  0  0.1008  0.093159  0  1.011483  0
H  H68  1  0.20527883  0.14373448  0.78545412  1  0.073557  0  0.100679  0.092483  0  1.012081  0
H  H69  1  0.13509415  0.35605618  0.71546728  1  0.07274  0  0.100678  0.09305  0  1.011537  0
H  H70  1  0.71968758  0.75876886  0.18435561  1  0.100794  0  0.109498  0.113838  0  0.993142  0
H  H71  1  0.66248108  0.74118774  0.31435705  1  0.085541  0  0.109137  0.114131  0  0.991992  0
H  H72  1  0.28025662  0.24116971  0.81573833  1  0.103202  0  0.109329  0.113419  0  0.993214  0
H  H73  1  0.33769768  0.25885497  0.68511907  1  0.094479  0  0.109484  0.113318  0  0.993768  0
C  C74  1  0.05258508  0.91273836  0.10902776  1  -0.630258  0  -0.054862  -0.209993  0  3.974142  0
C  C75  1  0.07425573  0.58729798  0.39022618  1  -0.715076  0  -0.055126  -0.209713  0  3.972582  0
C  C76  1  0.94739260  0.08719751  0.89096786  1  -0.62747  0  -0.054957  -0.21022  0  3.974193  0
C  C77  1  0.92538717  0.41267839  0.60991114  1  -0.73612  0  -0.055472  -0.209962  0  3.972555  0
C  C78  1  0.84635563  0.11874004  0.10927195  1  -0.673038  0  -0.051546  -0.202274  0  3.973287  0
C  C79  1  0.07459280  0.38120502  0.38974257  1  -0.678339  0  -0.051211  -0.201289  0  3.96888  0
C  C80  1  0.15370675  0.88115895  0.89073431  1  -0.669257  0  -0.051662  -0.202317  0  3.97312  0
C  C81  1  0.92509218  0.61886080  0.61030896  1  -0.675831  0  -0.050786  -0.200674  0  3.969948  0
C  C82  1  0.83181137  0.92107832  0.12411139  1  -0.626622  0  -0.053566  -0.206156  0  3.9827  0
C  C83  1  0.87686455  0.57899425  0.37484209  1  -0.642858  0  -0.053347  -0.20518  0  3.981644  0
C  C84  1  0.16815581  0.07882501  0.87591032  1  -0.684787  0  -0.053327  -0.206069  0  3.981981  0
C  C85  1  0.12279711  0.42114738  0.62506570  1  -0.645874  0  -0.052895  -0.204928  0  3.982403  0
C  C86  1  0.86105727  0.02018310  0.34568606  1  -0.033353  0  -0.008409  -0.015567  0  3.94199  0
C  C87  1  0.22668592  0.48008143  0.15362200  1  -0.02621  0  -0.008765  -0.016321  0  3.94021  0
C  C88  1  0.13922153  0.97950098  0.65428102  1  -0.029786  0  -0.008891  -0.016189  0  3.942604  0
C  C89  1  0.77345263  0.52021397  0.84656936  1  -0.031109  0  -0.009141  -0.016992  0  3.942588  0
C  C90  1  0.75156761  0.32640686  0.08050705  1  -0.068715  0  -0.015458  -0.034379  0  3.97839  0
C  C91  1  0.15835062  0.17365630  0.41917997  1  -0.025599  0  -0.015852  -0.036179  0  3.981274  0
C  C92  1  0.24874230  0.67352373  0.91956139  1  -0.003085  0  -0.015822  -0.035151  0  3.98077  0
C  C93  1  0.84168628  0.82638197  0.58078113  1  -0.019591  0  -0.016159  -0.037088  0  3.982001  0
C  C94  1  0.91107364  0.16948908  0.08675244  1  -0.044006  0  -0.080644  -0.064321  0  4.010868  0
C  C95  1  0.16753906  0.33048072  0.41240395  1  -0.00266  0  -0.080958  -0.065513  0  4.006425  0
C  C96  1  0.08910914  0.83029305  0.91323733  1  -0.057914  0  -0.080598  -0.06448  0  4.0105  0
C  C97  1  0.83215522  0.66969540  0.58764578  1  -0.005555  0  -0.081071  -0.066221  0  4.008127  0
C  C98  1  0.68614201  0.27657897  0.10149843  1  -0.024101  0  -0.074164  -0.073045  0  3.938679  0
C  C99  1  0.06420668  0.22343056  0.39794211  1  -0.020501  0  -0.073704  -0.072068  0  3.938516  0
C  C100  1  0.31405086  0.72346490  0.89857119  1  -0.019703  0  -0.073898  -0.072344  0  3.939262  0
C  C101  1  0.93581324  0.77649351  0.60203436  1  -0.021612  0  -0.073829  -0.07223  0  3.938425  0
C  C102  1  0.85722067  0.03989377  0.40809544  1  1.581998  0  0.22945  0.594342  0  4.174664  0
C  C103  1  0.30529097  0.46021769  0.09142489  1  1.546333  0  0.22847  0.593262  0  4.176808  0
C  C104  1  0.14316385  0.95980340  0.59184138  1  1.583034  0  0.228205  0.592568  0  4.17627  0
C  C105  1  0.69499700  0.54007280  0.90880460  1  1.559956  0  0.228565  0.592895  0  4.173449  0
C  C106  1  0.09435707  0.82649242  0.07678777  1  -0.081228  0  -0.08146  -0.066414  0  4.002562  0
C  C107  1  0.99753832  0.67319389  0.42278564  1  -0.014832  0  -0.081184  -0.066187  0  4.00095  0
C  C108  1  0.90573867  0.17347627  0.92315523  1  -0.101465  0  -0.081155  -0.065551  0  4.001601  0
C  C109  1  0.00222718  0.32675796  0.57739937  1  0.008362  0  -0.08143  -0.067041  0  4.000791  0
C  C110  1  0.73353155  0.17371720  0.11534901  1  -0.022984  0  -0.078174  -0.066679  0  4.000177  0
C  C111  1  0.02280709  0.32620380  0.38374043  1  -0.060762  0  -0.078555  -0.067439  0  3.998554  0
C  C112  1  0.26653559  0.82630981  0.88468269  1  -0.026353  0  -0.078409  -0.067181  0  4.000171  0
C  C113  1  0.97703761  0.67373785  0.61627635  1  -0.064935  0  -0.078759  -0.067867  0  3.998907  0
C  C114  1  0.95303018  0.92090249  0.25692159  1  -0.129877  0  -0.080787  -0.063032  0  4.010844  0
C  C115  1  0.13039637  0.57939111  0.24234023  1  -0.003766  0  -0.080633  -0.064293  0  4.011323  0
C  C116  1  0.04702782  0.07880262  0.74304450  1  -0.078305  0  -0.080842  -0.063347  0  4.009894  0
C  C117  1  0.86934951  0.42087423  0.75785520  1  -0.008253  0  -0.080877  -0.065242  0  4.012264  0
C  C118  1  0.87876933  0.99425054  0.22510017  1  -0.609086  0  -0.054332  -0.208164  0  3.976074  0
C  C119  1  0.09770959  0.50606199  0.27400550  1  -0.690771  0  -0.054197  -0.206887  0  3.974972  0
C  C120  1  0.12128744  0.00553678  0.77489529  1  -0.608897  0  -0.054154  -0.207798  0  3.975067  0
C  C121  1  0.90207110  0.49413678  0.72610188  1  -0.737947  0  -0.054416  -0.206924  0  3.975206  0
C  C122  1  0.79274863  0.07865982  0.25607313  1  -0.040642  0  -0.079741  -0.059847  0  4.004402  0
C  C123  1  0.12701279  0.42175951  0.24293161  1  -0.078037  0  -0.080281  -0.06043  0  4.005881  0
C  C124  1  0.20738714  0.92113323  0.74394716  1  -0.038478  0  -0.080169  -0.060094  0  4.004062  0
C  C125  1  0.87298162  0.57842777  0.75712785  1  -0.032221  0  -0.079855  -0.059366  0  4.005204  0
C  C126  1  0.86456538  0.27228004  0.07250670  1  0.040419  0  -0.074739  -0.081432  0  3.935548  0
C  C127  1  0.20937269  0.22777929  0.42697727  1  -0.049863  0  -0.074982  -0.081311  0  3.936275  0
C  C128  1  0.13574573  0.72751528  0.92751230  1  -0.011098  0  -0.074813  -0.081259  0  3.935145  0
C  C129  1  0.79050229  0.77238160  0.57302349  1  -0.052815  0  -0.074609  -0.080342  0  3.936126  0
C  C130  1  0.70202115  0.43614550  0.06609676  1  1.515838  0  0.207272  0.569196  0  4.183447  0
C  C131  1  0.20400723  0.06398428  0.43395581  1  1.520516  0  0.208136  0.571438  0  4.180589  0
C  C132  1  0.29838477  0.56379449  0.93400491  1  1.500846  0  0.207683  0.57024  0  4.183604  0
C  C133  1  0.79623541  0.93604404  0.56595353  1  1.518837  0  0.208887  0.572412  0  4.178781  0
C  C134  1  0.78278597  0.09134358  0.31602304  1  -0.022109  0  -0.077744  -0.087727  0  3.950502  0
C  C135  1  0.18978412  0.40904113  0.18306204  1  -0.002741  0  -0.077279  -0.086066  0  3.949785  0
C  C136  1  0.21746153  0.90839934  0.68398491  1  -0.02245  0  -0.076976  -0.086787  0  3.949635  0
C  C137  1  0.81038376  0.59120052  0.81703391  1  -0.004543  0  -0.077371  -0.086906  0  3.950053  0
C  C138  1  0.94514329  0.93365803  0.31654282  1  -0.003704  0  -0.081995  -0.091948  0  3.953705  0
C  C139  1  0.19497187  0.56660392  0.18280218  1  -0.034832  0  -0.081953  -0.091202  0  3.954157  0
C  C140  1  0.05503407  0.06599618  0.68341129  1  -0.056489  0  -0.081956  -0.091985  0  3.953534  0
C  C141  1  0.80497365  0.43370374  0.81743567  1  -0.03272  0  -0.081532  -0.090501  0  3.954324  0
C  C142  1  0.12718129  0.93948310  0.11904585  1  -0.027404  0  -0.07851  -0.065181  0  4.004917  0
C  C143  1  0.18556282  0.56090197  0.38008100  1  0.002708  0  -0.078831  -0.064657  0  4.006877  0
C  C144  1  0.87268212  0.06050958  0.88103985  1  -0.02894  0  -0.078449  -0.065401  0  4.005619  0
C  C145  1  0.81412341  0.43899532  0.61994398  1  0.002226  0  -0.078449  -0.064413  0  4.006118  0
C  C146  1  0.20617198  0.76937571  0.05497131  1  -0.0181  0  -0.077223  -0.076117  0  3.947779  0
C  C147  1  0.03031001  0.73022594  0.44480189  1  0.039341  0  -0.077534  -0.0782  0  3.949201  0
C  C148  1  0.79395227  0.23065692  0.94502687  1  -0.01684  0  -0.077408  -0.076495  0  3.946799  0
C  C149  1  0.96964131  0.26964261  0.55531489  1  0.041289  0  -0.077146  -0.077319  0  3.948538  0
C  C150  1  0.27897692  0.79735340  0.06489365  1  -0.050874  0  -0.010191  -0.020847  0  3.941101  0
C  C151  1  0.14096883  0.70261358  0.43474325  1  -0.044131  0  -0.010006  -0.018503  0  3.940644  0
C  C152  1  0.72103524  0.20272241  0.93520615  1  -0.047896  0  -0.009784  -0.019989  0  3.93983  0
C  C153  1  0.85902579  0.29718796  0.56525546  1  -0.099447  0  -0.010038  -0.01878  0  3.939833  0
C  C154  1  0.74820082  0.81071657  0.09055402  1  -0.013831  0  -0.011242  -0.018831  0  3.981397  0
C  C155  1  0.64925185  0.68938564  0.40822283  1  -0.010394  0  -0.011659  -0.019715  0  3.977274  0
C  C156  1  0.25177056  0.18915903  0.90953439  1  -0.014257  0  -0.011108  -0.018303  0  3.979676  0
C  C157  1  0.35045106  0.31097445  0.59132113  1  -0.053834  0  -0.011331  -0.018514  0  3.978777  0
C  C158  1  0.39919318  0.73288600  0.04227030  1  1.564011  0  0.221065  0.595785  0  4.174579  0
C  C159  1  0.17392393  0.76704460  0.45761138  1  1.561781  0  0.220746  0.594473  0  4.176386  0
C  C160  1  0.60083916  0.26721053  0.95792542  1  1.553812  0  0.219547  0.593101  0  4.177311  0
C  C161  1  0.82626677  0.23270273  0.54226499  1  1.564077  0  0.220055  0.593415  0  4.176979  0
C  C162  1  0.82631858  0.92701134  0.06382885  1  -0.029015  0  -0.079511  -0.068136  0  4.013054  0
C  C163  1  0.81711806  0.57307896  0.43507975  1  -0.044991  0  -0.079675  -0.069983  0  4.010491  0
C  C164  1  0.17366516  0.07284169  0.93619563  1  0.026306  0  -0.079544  -0.06829  0  4.012598  0
C  C165  1  0.18228062  0.42729416  0.56478874  1  0.008333  0  -0.079532  -0.069077  0  4.010108  0
C  C166  1  0.78523338  0.87222405  0.04700812  1  -0.054706  0  -0.077009  -0.089223  0  3.950751  0
C  C167  1  0.70442276  0.62784942  0.45179032  1  -0.087683  0  -0.07693  -0.086563  0  3.947563  0
C  C168  1  0.21474852  0.12760690  0.95304689  1  -0.093074  0  -0.077081  -0.08912  0  3.950925  0
C  C169  1  0.29498459  0.37262695  0.54789450  1  -0.086661  0  -0.077163  -0.087468  0  3.949521  0
C  C170  1  0.70853864  0.75024431  0.07101979  1  1.50316  0  0.204694  0.543163  0  4.199562  0
C  C171  1  0.52956658  0.75000202  0.42782151  1  1.521342  0  0.205658  0.543825  0  4.197692  0
C  C172  1  0.29143701  0.24962048  0.92909797  1  1.504689  0  0.205244  0.543712  0  4.197999  0
C  C173  1  0.47014445  0.25045702  0.57159027  1  1.522253  0  0.205999  0.543678  0  4.198714  0
C  C174  1  0.23921680  0.88307999  0.09700865  1  0.021701  0  -0.077859  -0.09152  0  3.948557  0
C  C175  1  0.21905532  0.61724995  0.40229222  1  -0.095871  0  -0.077917  -0.092285  0  3.949446  0
C  C176  1  0.76066748  0.11698493  0.90312667  1  0.029257  0  -0.078091  -0.091548  0  3.948348  0
C  C177  1  0.78081130  0.38255575  0.59766783  1  -0.045126  0  -0.077718  -0.091952  0  3.948855  0
C  C178  1  0.79229003  0.86066799  0.16749201  1  -0.04583  0  -0.080188  -0.064337  0  4.008756  0
C  C179  1  0.82014471  0.63934660  0.33141136  1  -0.091679  0  -0.080384  -0.065696  0  4.010912  0
C  C180  1  0.20766376  0.13927702  0.83256141  1  -0.043917  0  -0.080698  -0.065231  0  4.009041  0
C  C181  1  0.17980644  0.36066155  0.66835056  1  -0.089365  0  -0.080775  -0.065958  0  4.01127  0
C  C182  1  0.75036680  0.80595694  0.15104895  1  -0.066272  0  -0.077477  -0.089585  0  3.945188  0
C  C183  1  0.70705195  0.69406703  0.34774852  1  0.015533  0  -0.076805  -0.089211  0  3.945328  0
C  C184  1  0.24958733  0.19396449  0.84903434  1  -0.067389  0  -0.077326  -0.089004  0  3.945387  0
C  C185  1  0.29290995  0.30606383  0.65183307  1  -0.015566  0  -0.077241  -0.088787  0  3.94652  0
O  O186  1  0.60029008  0.48623706  0.06774299  1  -1.163188  0  -0.328007  -0.5901  0  2.267848  0
O  O187  1  0.15370855  0.01398771  0.43268759  1  -1.158874  0  -0.327258  -0.590017  0  2.27113  0
O  O188  1  0.40002042  0.51381554  0.93256193  1  -1.164576  0  -0.328091  -0.59075  0  2.269698  0
O  O189  1  0.84661297  0.98592493  0.56723501  1  -1.15969  0  -0.327459  -0.590359  0  2.27002  0
O  O190  1  0.94421145  0.98567792  0.42527262  1  -1.115179  0  -0.29898  -0.52707  0  2.285094  0
O  O191  1  0.35474843  0.51474634  0.07425898  1  -1.096637  0  -0.298356  -0.52718  0  2.287054  0
O  O192  1  0.05617467  0.01399837  0.57465126  1  -1.116361  0  -0.298809  -0.526585  0  2.2857  0
O  O193  1  0.64590529  0.48523139  0.92617185  1  -1.092289  0  -0.299254  -0.528447  0  2.285595  0
O  O194  1  0.42960929  0.67028345  0.00262144  1  -1.146986  0  -0.311777  -0.567434  0  2.29696  0
O  O195  1  0.10202861  0.82945804  0.49733430  1  -1.14416  0  -0.311649  -0.56701  0  2.294061  0
O  O196  1  0.57059133  0.32978854  0.99755464  1  -1.141075  0  -0.310924  -0.565663  0  2.297738  0
O  O197  1  0.89837816  0.17029920  0.50259682  1  -1.14372  0  -0.310897  -0.565786  0  2.294699  0
O  O198  1  0.76246045  0.48063965  0.05255715  1  -1.062566  0  -0.287589  -0.476238  0  2.111814  0
O  O199  1  0.29561050  0.01939422  0.44734316  1  -1.06866  0  -0.288373  -0.477194  0  2.108828  0
O  O200  1  0.23803452  0.51922287  0.94735171  1  -1.061076  0  -0.288099  -0.47714  0  2.111493  0
O  O201  1  0.70464910  0.98070289  0.55251778  1  -1.067912  0  -0.288752  -0.477782  0  2.109398  0
O  O202  1  0.76871478  0.10859048  0.43590317  1  -1.10432  0  -0.289711  -0.503776  0  2.254431  0
O  O203  1  0.31402580  0.39100810  0.06373022  1  -1.094497  0  -0.289447  -0.502521  0  2.257882  0
O  O204  1  0.23171411  0.89119628  0.56400433  1  -1.109077  0  -0.289091  -0.502721  0  2.252711  0
O  O205  1  0.68596445  0.60957640  0.93636783  1  -1.095731  0  -0.288951  -0.500954  0  2.256387  0
O  O206  1  0.46170740  0.74678230  0.06403027  1  -1.108257  0  -0.305842  -0.514648  0  2.214742  0
O  O207  1  0.27197511  0.75333936  0.43601606  1  -1.108327  0  -0.306415  -0.515576  0  2.217305  0
O  O208  1  0.53821162  0.25331091  0.93626673  1  -1.108809  0  -0.305257  -0.514051  0  2.216077  0
O  O209  1  0.72819036  0.24642830  0.56371311  1  -1.111528  0  -0.306335  -0.515671  0  2.218093  0
O  O210  1  0.71687361  0.74783379  0.01479747  1  -1.068791  0  -0.297542  -0.489499  0  2.065547  0
O  O211  1  0.47982022  0.75237548  0.48414144  1  -1.073848  0  -0.297855  -0.489938  0  2.066569  0
O  O212  1  0.28302739  0.25207366  0.98532991  1  -1.07056  0  -0.298181  -0.490488  0  2.064335  0
O  O213  1  0.51990021  0.24838336  0.51529797  1  -1.075893  0  -0.298041  -0.490322  0  2.064568  0
O  O214  1  0.66598191  0.69933298  0.11026382  1  -1.019022  0  -0.268871  -0.444187  0  2.021929  0
O  O215  1  0.47484414  0.80097060  0.38876601  1  -1.023407  0  -0.268218  -0.443498  0  2.017597  0
O  O216  1  0.33407053  0.30047991  0.88986570  1  -1.018558  0  -0.269125  -0.44464  0  2.021473  0
O  O217  1  0.52491211  0.19916629  0.61060262  1  -1.021866  0  -0.268968  -0.444031  0  2.02003  0
