# generated using pymatgen
data_AgH5(C2N)2
_symmetry_space_group_name_H-M   'P 1'
_cell_length_a   10.42150308
_cell_length_b   12.74006025
_cell_length_c   19.44727281
_cell_angle_alpha   89.99974830
_cell_angle_beta   90.00007225
_cell_angle_gamma   90.00063234
_symmetry_Int_Tables_number   1
_chemical_formula_structural   AgH5(C2N)2
_chemical_formula_sum   'Ag16 H80 C64 N32'
_cell_volume   2582.02563465
_cell_formula_units_Z   16
loop_
 _symmetry_equiv_pos_site_id
 _symmetry_equiv_pos_as_xyz
  1  'x, y, z'
loop_
 _atom_site_type_symbol
 _atom_site_label
 _atom_site_symmetry_multiplicity
 _atom_site_fract_x
 _atom_site_fract_y
 _atom_site_fract_z
 _atom_site_occupancy
 _atom_site_pbe_bader_charge
 _atom_site_pbe_bader_spin_density
 _atom_site_pbe_cm5_charge
 _atom_site_pbe_ddec_charge
 _atom_site_pbe_ddec_spin_density
 _atom_site_pbe_ddec_sum_bond_order
 _atom_site_pbe_magmom
Ag  Ag0  1  0.75000323  0.74999915  0.67192424  1  0.46548  0  0.451407  0.272819  0  2.070599  0
Ag  Ag1  1  0.25000261  0.74999872  0.82807553  1  0.465482  0  0.451422  0.272867  0  2.070566  0
Ag  Ag2  1  0.24999672  0.24999884  0.32807606  1  0.465456  0  0.451415  0.272863  0  2.070622  0
Ag  Ag3  1  0.74999927  0.24999770  0.17192323  1  0.465475  0  0.451437  0.272885  0  2.070533  0
Ag  Ag4  1  0.86015707  0.32587808  0.53785107  1  0.459684  0  0.45272  0.268506  0  2.039562  0
Ag  Ag5  1  0.13984113  0.32587498  0.96215094  1  0.459609  0  0.452696  0.268424  0  2.039455  0
Ag  Ag6  1  0.36015573  0.17412551  0.96214969  1  0.45844  0  0.452728  0.268508  0  2.039486  0
Ag  Ag7  1  0.63984137  0.17412349  0.53785019  1  0.458372  0  0.452739  0.268523  0  2.039522  0
Ag  Ag8  1  0.13984385  0.67412462  0.46214923  1  0.458379  0  0.452706  0.268464  0  2.039501  0
Ag  Ag9  1  0.86015691  0.67412380  0.03784936  1  0.459558  0  0.452694  0.268489  0  2.03945  0
Ag  Ag10  1  0.63984135  0.82587405  0.03785112  1  0.458458  0  0.452756  0.268491  0  2.039561  0
Ag  Ag11  1  0.36015858  0.82587921  0.46214908  1  0.459695  0  0.452765  0.268567  0  2.039601  0
Ag  Ag12  1  0.99999731  0.17089376  0.25000070  1  0.458462  0  0.458978  0.257011  0  2.133213  0
Ag  Ag13  1  0.49999469  0.32910739  0.25000133  1  0.458438  0  0.45897  0.256976  0  2.133233  0
Ag  Ag14  1  0.00000744  0.82910659  0.75000114  1  0.458567  0  0.459001  0.256982  0  2.133286  0
Ag  Ag15  1  0.50000047  0.67089609  0.75000103  1  0.458448  0  0.459003  0.257051  0  2.13324  0
H  H16  1  0.79080266  0.33749568  0.70334005  1  0.059453  0  0.10589  0.099614  0  1.030293  0
H  H17  1  0.20919089  0.33749353  0.79666039  1  0.059615  0  0.105887  0.099591  0  1.030354  0
H  H18  1  0.29079790  0.16250729  0.79666015  1  0.059409  0  0.105892  0.099589  0  1.030322  0
H  H19  1  0.70919617  0.16250007  0.70333976  1  0.059593  0  0.105833  0.09952  0  1.03031  0
H  H20  1  0.20920017  0.66250309  0.29665922  1  0.059536  0  0.105892  0.099594  0  1.030304  0
H  H21  1  0.79080331  0.66250132  0.20333888  1  0.059698  0  0.105864  0.099587  0  1.03028  0
H  H22  1  0.70920206  0.83749228  0.20334169  1  0.059269  0  0.105878  0.099593  0  1.030304  0
H  H23  1  0.29080762  0.83749321  0.29665952  1  0.05944  0  0.105888  0.099625  0  1.030288  0
H  H24  1  0.74416393  0.52976516  0.76537673  1  0.102788  0  0.105128  0.102649  0  1.042466  0
H  H25  1  0.25583702  0.52976620  0.73462521  1  0.10257  0  0.105135  0.102611  0  1.042471  0
H  H26  1  0.24416221  0.97023580  0.73462303  1  0.102784  0  0.105124  0.102611  0  1.042469  0
H  H27  1  0.75583988  0.97022859  0.76537456  1  0.10254  0  0.105141  0.102636  0  1.042493  0
H  H28  1  0.25583603  0.47023205  0.23462511  1  0.10256  0  0.105154  0.102632  0  1.042497  0
H  H29  1  0.74416006  0.47023023  0.26537406  1  0.102546  0  0.105113  0.102545  0  1.04253  0
H  H30  1  0.75584254  0.02976533  0.26537675  1  0.102894  0  0.10515  0.102663  0  1.042427  0
H  H31  1  0.24416295  0.02976469  0.23462111  1  0.102723  0  0.105099  0.102563  0  1.042505  0
H  H32  1  0.81451439  0.67582598  0.54041441  1  0.017155  0  0.090675  0.140471  0  1.02006  0
H  H33  1  0.18548757  0.67582252  0.95958557  1  0.017375  0  0.090687  0.140466  0  1.020121  0
H  H34  1  0.31451219  0.82417719  0.95958643  1  0.017192  0  0.090687  0.140465  0  1.020119  0
H  H35  1  0.68548505  0.82417477  0.54041313  1  0.01735  0  0.090676  0.140446  0  1.020078  0
H  H36  1  0.18548173  0.32417672  0.45958846  1  0.017382  0  0.090686  0.140445  0  1.020109  0
H  H37  1  0.81451238  0.32417469  0.04041370  1  0.017166  0  0.090658  0.140404  0  1.020167  0
H  H38  1  0.68548777  0.17582081  0.04041439  1  0.017421  0  0.090705  0.140504  0  1.020107  0
H  H39  1  0.31451298  0.17582479  0.45958357  1  0.017207  0  0.090688  0.140455  0  1.02012  0
H  H40  1  0.73906287  0.56699270  0.49936457  1  0.051634  0  0.091939  0.139095  0  1.004708  0
H  H41  1  0.26093740  0.56699300  0.00063741  1  0.051605  0  0.09193  0.139058  0  1.004698  0
H  H42  1  0.23906203  0.93300844  0.00063636  1  0.051617  0  0.091928  0.139061  0  1.004694  0
H  H43  1  0.76093839  0.93300755  0.49936251  1  0.051595  0  0.091923  0.139033  0  1.00472  0
H  H44  1  0.26093228  0.43300922  0.50063830  1  0.051552  0  0.091927  0.13906  0  1.004698  0
H  H45  1  0.73906352  0.43300578  0.99936186  1  0.051798  0  0.091937  0.139069  0  1.004698  0
H  H46  1  0.76093793  0.06698955  0.99936445  1  0.054179  0  0.091931  0.139087  0  1.004631  0
H  H47  1  0.23906253  0.06699358  0.50063522  1  0.054148  0  0.091937  0.139087  0  1.00469  0
H  H48  1  0.90833983  0.56955385  0.50986275  1  0.05251  0  0.080244  0.11262  0  1.0577  0
H  H49  1  0.09165974  0.56955091  0.99013702  1  0.052496  0  0.080231  0.112606  0  1.057664  0
H  H50  1  0.40834010  0.93045016  0.99013763  1  0.052369  0  0.080238  0.112617  0  1.05765  0
H  H51  1  0.59165858  0.93044789  0.50986213  1  0.052485  0  0.080232  0.112592  0  1.057688  0
H  H52  1  0.09165437  0.43045042  0.49013652  1  0.052496  0  0.080219  0.112582  0  1.057668  0
H  H53  1  0.90834214  0.43044787  0.00986225  1  0.052479  0  0.080225  0.112595  0  1.057692  0
H  H54  1  0.59165986  0.06954862  0.00986266  1  0.052237  0  0.080233  0.112606  0  1.05766  0
H  H55  1  0.40833946  0.06955324  0.49013509  1  0.052563  0  0.080244  0.112647  0  1.05764  0
H  H56  1  0.00680088  0.00989588  0.38034483  1  0.113093  0  0.110278  0.109332  0  1.012245  0
H  H57  1  0.99319667  0.00988708  0.11965926  1  0.112863  0  0.11025  0.109279  0  1.012301  0
H  H58  1  0.50679887  0.49010789  0.11965892  1  0.11298  0  0.110275  0.109362  0  1.012276  0
H  H59  1  0.49319269  0.49011009  0.38034277  1  0.112919  0  0.110283  0.109294  0  1.012333  0
H  H60  1  0.99320580  0.99010682  0.61965958  1  0.113015  0  0.110249  0.10935  0  1.012226  0
H  H61  1  0.00680425  0.99011170  0.88034156  1  0.112901  0  0.110272  0.109295  0  1.012308  0
H  H62  1  0.49319821  0.50988932  0.88034138  1  0.112943  0  0.110294  0.109344  0  1.012276  0
H  H63  1  0.50680055  0.50989575  0.61965650  1  0.113062  0  0.110265  0.10935  0  1.012205  0
H  H64  1  0.95266412  0.08131145  0.51291685  1  0.084175  0  0.107449  0.102945  0  1.043549  0
H  H65  1  0.04733750  0.08130342  0.98708483  1  0.084077  0  0.107469  0.10302  0  1.043506  0
H  H66  1  0.45266518  0.41869298  0.98708603  1  0.08424  0  0.107451  0.102949  0  1.043532  0
H  H67  1  0.54733523  0.41869343  0.51291623  1  0.08405  0  0.107454  0.102979  0  1.043506  0
H  H68  1  0.04733776  0.91869282  0.48708653  1  0.08416  0  0.10745  0.102956  0  1.043563  0
H  H69  1  0.95266246  0.91869379  0.01291495  1  0.0842  0  0.107477  0.103029  0  1.043503  0
H  H70  1  0.54733669  0.58130423  0.01291633  1  0.084051  0  0.107459  0.102993  0  1.043531  0
H  H71  1  0.45266281  0.58131398  0.48708355  1  0.084226  0  0.107469  0.102966  0  1.043541  0
H  H72  1  0.90233327  0.35814655  0.30819416  1  0.041049  0  0.088201  0.129614  0  1.042173  0
H  H73  1  0.09766514  0.35814017  0.19180636  1  0.041122  0  0.088227  0.129597  0  1.042175  0
H  H74  1  0.40233662  0.14185450  0.19180626  1  0.041042  0  0.088217  0.129612  0  1.042181  0
H  H75  1  0.59766463  0.14186049  0.30819231  1  0.041063  0  0.088213  0.129598  0  1.042185  0
H  H76  1  0.09766572  0.64185379  0.69180665  1  0.041034  0  0.088198  0.129595  0  1.042199  0
H  H77  1  0.90233386  0.64186096  0.80819137  1  0.040989  0  0.088208  0.129563  0  1.042168  0
H  H78  1  0.59766621  0.85814506  0.80819455  1  0.041055  0  0.088224  0.1296  0  1.042183  0
H  H79  1  0.40233341  0.85814535  0.69180696  1  0.041034  0  0.088208  0.129603  0  1.042176  0
H  H80  1  0.95094097  0.41947040  0.38567385  1  0.056713  0  0.093576  0.14765  0  1.007383  0
H  H81  1  0.04906019  0.41946332  0.11432598  1  0.056881  0  0.093617  0.147713  0  1.007322  0
H  H82  1  0.45094139  0.08053267  0.11432558  1  0.056733  0  0.093584  0.147659  0  1.007393  0
H  H83  1  0.54905903  0.08053612  0.38567214  1  0.056929  0  0.093624  0.147726  0  1.007306  0
H  H84  1  0.04905995  0.58053230  0.61432594  1  0.05675  0  0.093598  0.147691  0  1.007365  0
H  H85  1  0.95093977  0.58053782  0.88567174  1  0.056971  0  0.093636  0.147729  0  1.007327  0
H  H86  1  0.54905953  0.91946847  0.88567575  1  0.056803  0  0.093578  0.147665  0  1.007337  0
H  H87  1  0.45094188  0.91947129  0.61432662  1  0.056688  0  0.093573  0.147635  0  1.007379  0
H  H88  1  0.78884315  0.37893928  0.37541071  1  0.085595  0  0.091911  0.141612  0  1.028835  0
H  H89  1  0.21115843  0.37893516  0.12458923  1  0.085489  0  0.091884  0.141573  0  1.028826  0
H  H90  1  0.28884414  0.12105997  0.12458912  1  0.085616  0  0.091912  0.141618  0  1.028836  0
H  H91  1  0.71115779  0.12106652  0.37540952  1  0.085474  0  0.091892  0.141567  0  1.028822  0
H  H92  1  0.21115777  0.62105950  0.62459061  1  0.085681  0  0.091904  0.141652  0  1.028802  0
H  H93  1  0.78884057  0.62106440  0.87540850  1  0.085565  0  0.091895  0.141601  0  1.028772  0
H  H94  1  0.71115774  0.87893646  0.87541273  1  0.085558  0  0.091898  0.141598  0  1.028832  0
H  H95  1  0.28884216  0.87894010  0.62458975  1  0.0856  0  0.091906  0.14161  0  1.028837  0
C  C96  1  0.80237037  0.53837110  0.60279764  1  1.006315  0  0.183536  0.350223  0  3.995636  0
C  C97  1  0.19763070  0.53836896  0.89720376  1  1.006503  0  0.183503  0.350092  0  3.995719  0
C  C98  1  0.30236892  0.96163038  0.89720370  1  1.006126  0  0.18349  0.35012  0  3.995721  0
C  C99  1  0.69763306  0.96162844  0.60279597  1  1.00579  0  0.183475  0.350028  0  3.99592  0
C  C100  1  0.19763055  0.46162924  0.39720368  1  1.006108  0  0.183479  0.350046  0  3.995679  0
C  C101  1  0.80236926  0.46162904  0.10279551  1  1.005777  0  0.183484  0.35  0  3.995778  0
C  C102  1  0.69763103  0.03836840  0.10279763  1  1.006563  0  0.183435  0.34996  0  3.995935  0
C  C103  1  0.30236786  0.03837190  0.39720073  1  1.006334  0  0.18353  0.350223  0  3.995772  0
C  C104  1  0.78803101  0.41567983  0.68146849  1  0.3108  0  -0.032695  -0.074932  0  4.080303  0
C  C105  1  0.21196360  0.41567834  0.81853224  1  0.310407  0  -0.032668  -0.074884  0  4.080367  0
C  C106  1  0.28802908  0.08432233  0.81853223  1  0.310793  0  -0.032672  -0.07488  0  4.080429  0
C  C107  1  0.71196969  0.08431685  0.68146842  1  0.310461  0  -0.032616  -0.074744  0  4.080073  0
C  C108  1  0.21197086  0.58431894  0.31853181  1  0.310588  0  -0.032679  -0.074835  0  4.080173  0
C  C109  1  0.78803252  0.58431808  0.18146652  1  0.310393  0  -0.032623  -0.074805  0  4.080222  0
C  C110  1  0.71197087  0.91567724  0.18146910  1  0.310941  0  -0.03269  -0.074919  0  4.080354  0
C  C111  1  0.28803411  0.91567957  0.31853085  1  0.310813  0  -0.032703  -0.074977  0  4.080315  0
C  C112  1  0.76587750  0.51119959  0.71229117  1  0.362334  0  -0.034298  -0.078914  0  4.076163  0
C  C113  1  0.23412032  0.51119929  0.78770979  1  0.362607  0  -0.034296  -0.078837  0  4.076224  0
C  C114  1  0.26587616  0.98880157  0.78770963  1  0.362244  0  -0.03432  -0.078866  0  4.076228  0
C  C115  1  0.73412427  0.98879766  0.71228945  1  0.362487  0  -0.034326  -0.078915  0  4.076234  0
C  C116  1  0.23412438  0.48879841  0.28771016  1  0.362484  0  -0.034276  -0.078846  0  4.076141  0
C  C117  1  0.76587580  0.48879792  0.21228845  1  0.362535  0  -0.034292  -0.078796  0  4.076203  0
C  C118  1  0.73412667  0.01119878  0.21229067  1  0.362134  0  -0.034301  -0.078927  0  4.076163  0
C  C119  1  0.26587569  0.01120034  0.28770777  1  0.362303  0  -0.034276  -0.0788  0  4.07623  0
C  C120  1  0.81664209  0.59021260  0.53460241  1  -0.046734  0  -0.242596  -0.462273  0  3.978294  0
C  C121  1  0.18335871  0.59021065  0.96539730  1  -0.04673  0  -0.242567  -0.462162  0  3.978425  0
C  C122  1  0.31664011  0.90978980  0.96539689  1  -0.046581  0  -0.242576  -0.462187  0  3.97846  0
C  C123  1  0.68335925  0.90978741  0.53460190  1  -0.046221  0  -0.242573  -0.462098  0  3.978349  0
C  C124  1  0.18335594  0.40978775  0.46539892  1  -0.046527  0  -0.242543  -0.462077  0  3.97823  0
C  C125  1  0.81664124  0.40978656  0.03460145  1  -0.046399  0  -0.242543  -0.462074  0  3.978355  0
C  C126  1  0.68335985  0.09020819  0.03460290  1  -0.049079  0  -0.242611  -0.462249  0  3.97838  0
C  C127  1  0.31663974  0.09021215  0.46539480  1  -0.049274  0  -0.242593  -0.462277  0  3.978415  0
C  C128  1  0.92122437  0.25261703  0.39224775  1  0.939631  0  0.187157  0.359763  0  3.98391  0
C  C129  1  0.07877454  0.25261026  0.10775308  1  0.939623  0  0.187124  0.359698  0  3.984261  0
C  C130  1  0.42122606  0.24738420  0.10775320  1  0.939791  0  0.187206  0.359737  0  3.983957  0
C  C131  1  0.57877277  0.24738866  0.39224713  1  0.939783  0  0.187133  0.359715  0  3.984172  0
C  C132  1  0.07878039  0.74738489  0.60775358  1  0.941336  0  0.187078  0.359572  0  3.984082  0
C  C133  1  0.92122446  0.74738852  0.89224568  1  0.939608  0  0.187156  0.359709  0  3.984124  0
C  C134  1  0.57877197  0.75261301  0.89224864  1  0.939695  0  0.187196  0.35974  0  3.984084  0
C  C135  1  0.42122431  0.75261718  0.60775317  1  0.941529  0  0.187171  0.359794  0  3.983855  0
C  C136  1  0.97499860  0.08612589  0.39847819  1  0.384441  0  -0.030514  -0.072543  0  4.056331  0
C  C137  1  0.02499710  0.08611789  0.10152363  1  0.384437  0  -0.030586  -0.072552  0  4.056476  0
C  C138  1  0.47499869  0.41387661  0.10152434  1  0.384509  0  -0.030495  -0.072561  0  4.056437  0
C  C139  1  0.52499183  0.41387976  0.39847808  1  0.384433  0  -0.030581  -0.072548  0  4.056523  0
C  C140  1  0.02500615  0.91387603  0.60152520  1  0.38436  0  -0.030479  -0.072645  0  4.056301  0
C  C141  1  0.97500478  0.91388010  0.89847615  1  0.38445  0  -0.030615  -0.0726  0  4.056554  0
C  C142  1  0.52500222  0.58612138  0.89847647  1  0.384512  0  -0.030546  -0.07254  0  4.056541  0
C  C143  1  0.47499949  0.58612608  0.60152274  1  0.384461  0  -0.030457  -0.072553  0  4.056137  0
C  C144  1  0.95006106  0.12179964  0.46396289  1  0.277636  0  -0.031495  -0.08038  0  4.068109  0
C  C145  1  0.04993800  0.12179074  0.03603883  1  0.277572  0  -0.031539  -0.080562  0  4.068225  0
C  C146  1  0.45006243  0.37820342  0.03603962  1  0.277627  0  -0.031486  -0.080361  0  4.068151  0
C  C147  1  0.54993241  0.37820557  0.46396238  1  0.277608  0  -0.031475  -0.080404  0  4.068052  0
C  C148  1  0.04994177  0.87820228  0.53603998  1  0.277663  0  -0.031494  -0.080337  0  4.068221  0
C  C149  1  0.95006484  0.87820647  0.96396096  1  0.277613  0  -0.031513  -0.080499  0  4.068193  0
C  C150  1  0.54993944  0.62179143  0.96396222  1  0.277575  0  -0.031524  -0.080498  0  4.068082  0
C  C151  1  0.45006083  0.62180263  0.53603792  1  0.277699  0  -0.031528  -0.080398  0  4.068177  0
C  C152  1  0.88903103  0.35788179  0.36416704  1  -0.059972  0  -0.243442  -0.464045  0  3.936983  0
C  C153  1  0.11096929  0.35787355  0.13583194  1  -0.059933  0  -0.243474  -0.46406  0  3.937119  0
C  C154  1  0.38903233  0.14211915  0.13583285  1  -0.059958  0  -0.243486  -0.46407  0  3.937078  0
C  C155  1  0.61096604  0.14212645  0.36416623  1  -0.059925  0  -0.243464  -0.464061  0  3.937083  0
C  C156  1  0.11097180  0.64211935  0.63583326  1  -0.060021  0  -0.243447  -0.464095  0  3.936992  0
C  C157  1  0.88903162  0.64212601  0.86416579  1  -0.060011  0  -0.243505  -0.464088  0  3.937061  0
C  C158  1  0.61096858  0.85787727  0.86416899  1  -0.059909  0  -0.243467  -0.464055  0  3.937083  0
C  C159  1  0.38903104  0.85788096  0.63583253  1  -0.059954  0  -0.243468  -0.464069  0  3.937008  0
N  N160  1  0.77589379  0.58823711  0.66256738  1  -1.177916  0  -0.400322  -0.300534  0  3.638292  0
N  N161  1  0.22410699  0.58823639  0.83743336  1  -1.178142  0  -0.400358  -0.300605  0  3.638316  0
N  N162  1  0.27589345  0.91176335  0.83743291  1  -1.177712  0  -0.400329  -0.300565  0  3.638165  0
N  N163  1  0.72410978  0.91175968  0.66256484  1  -1.177921  0  -0.400322  -0.300539  0  3.638298  0
N  N164  1  0.22410521  0.41176088  0.33743446  1  -1.177868  0  -0.400392  -0.300629  0  3.638295  0
N  N165  1  0.77589105  0.41175925  0.16256488  1  -1.177916  0  -0.400351  -0.300547  0  3.638259  0
N  N166  1  0.72410747  0.08823464  0.16256636  1  -1.178013  0  -0.400362  -0.300508  0  3.638422  0
N  N167  1  0.27589114  0.08823674  0.33743083  1  -1.177976  0  -0.400355  -0.300608  0  3.63845  0
N  N168  1  0.81122252  0.43334885  0.61250559  1  -1.211636  0  -0.411019  -0.314473  0  3.688507  0
N  N169  1  0.18877329  0.43334668  0.88749612  1  -1.211364  0  -0.411004  -0.314387  0  3.688346  0
N  N170  1  0.31121956  0.06665274  0.88749463  1  -1.211675  0  -0.411004  -0.314461  0  3.688382  0
N  N171  1  0.68877802  0.06665066  0.61250247  1  -1.211151  0  -0.41097  -0.314425  0  3.688285  0
N  N172  1  0.18877935  0.56665307  0.38749677  1  -1.211322  0  -0.411014  -0.314463  0  3.688376  0
N  N173  1  0.81122379  0.56665131  0.11250264  1  -1.211288  0  -0.411011  -0.314478  0  3.688453  0
N  N174  1  0.68877848  0.93334447  0.11250618  1  -1.211798  0  -0.410896  -0.314268  0  3.688344  0
N  N175  1  0.31122386  0.93334891  0.38749371  1  -1.211621  0  -0.411007  -0.31445  0  3.688508  0
N  N176  1  0.91682471  0.22661063  0.45955234  1  -1.180596  0  -0.409088  -0.307704  0  3.670892  0
N  N177  1  0.08317864  0.22660199  0.04044908  1  -1.180189  0  -0.409005  -0.307551  0  3.670628  0
N  N178  1  0.41682660  0.27339213  0.04044912  1  -1.180502  0  -0.409082  -0.30764  0  3.670686  0
N  N179  1  0.58317546  0.27339383  0.45955164  1  -1.180445  0  -0.409078  -0.307712  0  3.670563  0
N  N180  1  0.08317716  0.77339208  0.54044950  1  -1.180534  0  -0.409036  -0.307641  0  3.670725  0
N  N181  1  0.91682228  0.77339521  0.95954968  1  -1.180202  0  -0.409009  -0.307604  0  3.670546  0
N  N182  1  0.58317623  0.72660665  0.95955323  1  -1.180458  0  -0.409128  -0.307647  0  3.670712  0
N  N183  1  0.41682449  0.72661280  0.54044814  1  -1.18063  0  -0.409133  -0.307769  0  3.670907  0
N  N184  1  0.95649122  0.16904393  0.35362704  1  -1.189556  0  -0.408432  -0.31321  0  3.679567  0
N  N185  1  0.04350559  0.16903972  0.14637505  1  -1.18979  0  -0.408346  -0.313077  0  3.67958  0
N  N186  1  0.45649030  0.33095683  0.14637444  1  -1.189853  0  -0.408464  -0.313228  0  3.67965  0
N  N187  1  0.54350199  0.33095967  0.35362564  1  -1.189624  0  -0.408394  -0.313098  0  3.67959  0
N  N188  1  0.04351641  0.83095563  0.64637531  1  -1.191487  0  -0.408388  -0.312987  0  3.679487  0
N  N189  1  0.95649628  0.83095984  0.85362422  1  -1.189829  0  -0.40839  -0.313066  0  3.679584  0
N  N190  1  0.54350774  0.66904116  0.85362534  1  -1.18954  0  -0.408424  -0.31319  0  3.679574  0
N  N191  1  0.45649125  0.66904539  0.64637414  1  -1.191475  0  -0.408437  -0.3132  0  3.679579  0
