# generated using pymatgen
data_AlH6C11O5
_symmetry_space_group_name_H-M   'P 1'
_cell_length_a   6.30677317
_cell_length_b   8.70770942
_cell_length_c   15.25942867
_cell_angle_alpha   81.99661367
_cell_angle_beta   77.82636231
_cell_angle_gamma   76.91448494
_symmetry_Int_Tables_number   1
_chemical_formula_structural   AlH6C11O5
_chemical_formula_sum   'Al2 H12 C22 O10'
_cell_volume   794.20299622
_cell_formula_units_Z   2
loop_
 _symmetry_equiv_pos_site_id
 _symmetry_equiv_pos_as_xyz
  1  'x, y, z'
loop_
 _atom_site_type_symbol
 _atom_site_label
 _atom_site_symmetry_multiplicity
 _atom_site_fract_x
 _atom_site_fract_y
 _atom_site_fract_z
 _atom_site_occupancy
 _atom_site_pbe_bader_charge
 _atom_site_pbe_bader_spin_density
 _atom_site_pbe_cm5_charge
 _atom_site_pbe_ddec_charge
 _atom_site_pbe_ddec_spin_density
 _atom_site_pbe_ddec_sum_bond_order
 _atom_site_pbe_magmom
Al  Al0  1  0.50000740  0.49999139  0.49999941  1  2.497082  0  0.391002  1.644484  0  2.607863  0
Al  Al1  1  0.00000535  0.49999202  0.49999864  1  2.49574  0  0.389396  1.645004  0  2.610447  0
H  H2  1  0.26448459  0.32267889  0.57616478  1  0.624701  0  0.367583  0.447397  0  0.828778  0
H  H3  1  0.73552035  0.67732026  0.42383593  1  0.624742  0  0.367595  0.447442  0  0.828662  0
H  H4  1  0.22816486  0.02104972  0.51274497  1  0.143273  0  0.119025  0.136843  0  0.978915  0
H  H5  1  0.77183120  0.97893621  0.48725801  1  0.143158  0  0.119028  0.136866  0  0.978836  0
H  H6  1  0.70502602  0.52491941  0.22974627  1  0.082016  0  0.107799  0.117072  0  1.010637  0
H  H7  1  0.86967555  0.66479974  0.07764503  1  0.044735  0  0.100659  0.081572  0  0.96393  0
H  H8  1  0.06589827  0.43470992  0.23035573  1  0.094561  0  0.107655  0.115953  0  1.012296  0
H  H9  1  0.05795768  0.31346277  0.08172986  1  0.056436  0  0.101631  0.082507  0  0.96018  0
H  H10  1  0.29497964  0.47508234  0.77025093  1  0.082014  0  0.107813  0.117096  0  1.010633  0
H  H11  1  0.13032071  0.33522703  0.92234891  1  0.044981  0  0.100705  0.081717  0  0.963696  0
H  H12  1  0.93410939  0.56528003  0.76964134  1  0.094505  0  0.107667  0.116005  0  1.012324  0
H  H13  1  0.94203337  0.68656512  0.91826449  1  0.056151  0  0.101665  0.082697  0  0.960166  0
C  C14  1  0.67558801  0.51671199  0.66173908  1  1.551893  0  0.260217  0.628096  0  4.124126  0
C  C15  1  0.82903463  0.21282664  0.50299694  1  1.58474  0  0.265353  0.6715  0  4.112765  0
C  C16  1  0.32442274  0.48327817  0.33825507  1  1.551789  0  0.260371  0.628273  0  4.123739  0
C  C17  1  0.17097257  0.78715965  0.49700171  1  1.584821  0  0.265389  0.671589  0  4.112748  0
C  C18  1  0.10309594  0.96024956  0.50265116  1  -0.130272  0  -0.065103  -0.165938  0  3.866617  0
C  C19  1  0.89690049  0.03973020  0.49735544  1  -0.002026  0  -0.065153  -0.165857  0  3.866559  0
C  C20  1  0.58680947  0.50623809  0.19140737  1  -0.047631  0  -0.085967  -0.150695  0  3.973258  0
C  C21  1  0.63929815  0.51302643  0.09765182  1  0.004498  0  -0.007662  0.045285  0  3.905241  0
C  C22  1  0.86117237  0.55515738  0.05159266  1  -0.033084  0  -0.072922  -0.063815  0  3.747214  0
C  C23  1  0.22392262  0.45763605  0.19173469  1  -0.031796  0  -0.085347  -0.150843  0  3.97329  0
C  C24  1  0.26655774  0.46450783  0.09797097  1  -0.037144  0  -0.006584  0.04645  0  3.905889  0
C  C25  1  0.08968475  0.43097688  0.05291281  1  0.039685  0  -0.073395  -0.056662  0  3.743127  0
C  C26  1  0.41319341  0.49377226  0.80858498  1  -0.047663  0  -0.085954  -0.150657  0  3.973203  0
C  C27  1  0.36069158  0.48700034  0.90234141  1  0.004125  0  -0.007592  0.045436  0  3.905329  0
C  C28  1  0.13883115  0.44486701  0.94840206  1  -0.033288  0  -0.073008  -0.064184  0  3.747653  0
C  C29  1  0.77607482  0.54237643  0.80826066  1  -0.031844  0  -0.085508  -0.150778  0  3.973688  0
C  C30  1  0.73344658  0.53550346  0.90202512  1  -0.036774  0  -0.006481  0.045601  0  3.907251  0
C  C31  1  0.91031237  0.56904734  0.94708383  1  0.039777  0  -0.073409  -0.056583  0  3.743477  0
C  C32  1  0.38069161  0.48010568  0.23875515  1  -0.01974  0  -0.020323  -0.038094  0  4.025715  0
C  C33  1  0.47626951  0.49403833  0.04963883  1  -0.07974  0  -0.004382  -0.01536  0  3.919976  0
C  C34  1  0.61931830  0.51989763  0.76123697  1  -0.019942  0  -0.020229  -0.037857  0  4.025542  0
C  C35  1  0.52371791  0.50600632  0.95035222  1  0.036549  0  -0.004367  -0.01534  0  3.920387  0
O  O36  1  0.54106512  0.47268281  0.62342805  1  -1.269081  0  -0.24168  -0.603055  0  2.366093  0
O  O37  1  0.96008806  0.28421616  0.52668419  1  -1.266953  0  -0.236392  -0.602339  0  2.343364  0
O  O38  1  0.14237700  0.44685547  0.37944558  1  -1.263842  0  -0.239787  -0.58548  0  2.337448  0
O  O39  1  0.35917548  0.72008470  0.51616740  1  -1.246613  0  -0.231653  -0.576891  0  2.280242  0
O  O40  1  0.45894009  0.52730961  0.37656714  1  -1.268967  0  -0.241749  -0.603044  0  2.365797  0
O  O41  1  0.03992352  0.71577150  0.47331201  1  -1.266936  0  -0.236495  -0.602421  0  2.343298  0
O  O42  1  0.85764192  0.55312405  0.62054912  1  -1.263887  0  -0.239756  -0.585414  0  2.337443  0
O  O43  1  0.64082750  0.27990496  0.48383340  1  -1.246384  0  -0.231635  -0.576869  0  2.2802  0
O  O44  1  0.24897789  0.42859918  0.54585380  1  -1.419176  0  -0.448987  -1.008309  0  2.304594  0
O  O45  1  0.75102630  0.57139173  0.45414616  1  -1.419185  0  -0.449033  -1.0084  0  2.304597  0
