# generated using pymatgen
data_ZnH10C14N9
_symmetry_space_group_name_H-M   'P 1'
_cell_length_a   6.76546203
_cell_length_b   10.59395572
_cell_length_c   20.33100000
_cell_angle_alpha   90.00000000
_cell_angle_beta   94.05697724
_cell_angle_gamma   90.00000000
_symmetry_Int_Tables_number   1
_chemical_formula_structural   ZnH10C14N9
_chemical_formula_sum   'Zn4 H40 C56 N36'
_cell_volume   1453.53243971
_cell_formula_units_Z   4
loop_
 _symmetry_equiv_pos_site_id
 _symmetry_equiv_pos_as_xyz
  1  'x, y, z'
loop_
 _atom_site_type_symbol
 _atom_site_label
 _atom_site_symmetry_multiplicity
 _atom_site_fract_x
 _atom_site_fract_y
 _atom_site_fract_z
 _atom_site_occupancy
 _atom_site_hle17_bader_spin_density
 _atom_site_hle17_ddec_charge
 _atom_site_hle17_ddec_spin_density
 _atom_site_hle17_ddec_sum_bond_order
 _atom_site_hle17_magmom
 _atom_site_hse06_10hf_bader_spin_density
 _atom_site_hse06_10hf_ddec_charge
 _atom_site_hse06_10hf_ddec_spin_density
 _atom_site_hse06_10hf_ddec_sum_bond_order
 _atom_site_hse06_10hf_magmom
 _atom_site_hse06_bader_spin_density
 _atom_site_hse06_ddec_charge
 _atom_site_hse06_ddec_spin_density
 _atom_site_hse06_ddec_sum_bond_order
 _atom_site_hse06_magmom
 _atom_site_pbe_bader_charge
 _atom_site_pbe_bader_spin_density
 _atom_site_pbe_cm5_charge
 _atom_site_pbe_ddec_charge
 _atom_site_pbe_ddec_spin_density
 _atom_site_pbe_ddec_sum_bond_order
 _atom_site_pbe_magmom
Zn  Zn0  1  0.57755276  0.65797991  0.78277671  1  0  0.835263  0  2.036052  0  0  0.633135  0  2.496515  0  0  0.672412  0  2.459495  0  1.24947  0  0.714177  0.606352  0  2.521703  0
Zn  Zn1  1  0.92244968  0.15798065  0.21722330  1  0  0.835253  0  2.036057  0  0  0.633129  0  2.496512  0  0  0.672408  0  2.459491  0  1.24935  0  0.714166  0.60634  0  2.521701  0
Zn  Zn2  1  0.42244887  0.34201955  0.21722362  1  0  0.83524  0  2.036086  0  0  0.633107  0  2.496553  0  0  0.672384  0  2.459533  0  1.24947  0  0.714161  0.60632  0  2.521744  0
Zn  Zn3  1  0.07755194  0.84201975  0.78277654  1  0  0.835289  0  2.036023  0  0  0.633176  0  2.496494  0  0  0.672454  0  2.459473  0  1.249479  0  0.714175  0.606392  0  2.521682  0
H  H4  1  0.75301373  0.65441372  0.92536801  1  0  0.069785  0  0.971076  0  0  0.075555  0  1.040646  0  0  0.078172  0  1.038297  0  0.087985  0  0.11021  0.073436  0  1.042774  0
H  H5  1  0.74699018  0.15441541  0.07463449  1  0  0.069833  0  0.97107  0  0  0.075615  0  1.04064  0  0  0.078231  0  1.038293  0  0.088001  0  0.110208  0.073493  0  1.042775  0
H  H6  1  0.24698789  0.34558479  0.07463331  1  0  0.069798  0  0.971068  0  0  0.07558  0  1.040639  0  0  0.078199  0  1.038288  0  0.087961  0  0.110204  0.07346  0  1.042768  0
H  H7  1  0.25301737  0.84558688  0.92536746  1  0  0.069793  0  0.971091  0  0  0.075609  0  1.040613  0  0  0.078227  0  1.038263  0  0.087976  0  0.110221  0.073486  0  1.042747  0
H  H8  1  0.79824743  0.49610647  0.01942246  1  0  0.105812  0  0.974307  0  0  0.111248  0  1.040449  0  0  0.114158  0  1.04042  0  0.115734  0  0.103357  0.109075  0  1.040712  0
H  H9  1  0.70175352  0.99611234  0.98057801  1  0  0.105769  0  0.974367  0  0  0.111238  0  1.040464  0  0  0.114147  0  1.040436  0  0.115746  0  0.103378  0.109065  0  1.040728  0
H  H10  1  0.20175271  0.50388921  0.98057833  1  0  0.105766  0  0.974366  0  0  0.111236  0  1.040459  0  0  0.114145  0  1.040431  0  0.115743  0  0.103376  0.109063  0  1.040724  0
H  H11  1  0.29824662  0.00389279  0.01942180  1  0  0.105808  0  0.974329  0  0  0.111251  0  1.040459  0  0  0.114159  0  1.04043  0  0.115706  0  0.103368  0.109079  0  1.04072  0
H  H12  1  0.69319163  0.27214858  0.99564573  1  0  0.088039  0  0.951899  0  0  0.103502  0  1.004598  0  0  0.105622  0  1.003411  0  0.062097  0  0.10667  0.101834  0  1.005689  0
H  H13  1  0.80681080  0.77215350  0.00435280  1  0  0.087991  0  0.951755  0  0  0.103437  0  1.004491  0  0  0.105557  0  1.003302  0  0.062139  0  0.106631  0.101773  0  1.005575  0
H  H14  1  0.30680851  0.72784710  0.00435358  1  0  0.087983  0  0.951827  0  0  0.10342  0  1.004567  0  0  0.105537  0  1.003385  0  0.062134  0  0.106643  0.101765  0  1.005641  0
H  H15  1  0.19318786  0.22785068  0.99564648  1  0  0.087995  0  0.951823  0  0  0.103466  0  1.004516  0  0  0.10558  0  1.003336  0  0.062091  0  0.106649  0.101781  0  1.005629  0
H  H16  1  0.54564645  0.21528597  0.88438697  1  0  0.115282  0  0.981523  0  0  0.121097  0  1.050015  0  0  0.124322  0  1.048774  0  0.145602  0  0.107204  0.11844  0  1.051402  0
H  H17  1  0.95435154  0.71528806  0.11561195  1  0  0.115309  0  0.981519  0  0  0.121123  0  1.05001  0  0  0.12435  0  1.048765  0  0.145486  0  0.107216  0.118462  0  1.0514  0
H  H18  1  0.45435073  0.78471066  0.11561227  1  0  0.115289  0  0.981556  0  0  0.121102  0  1.050045  0  0  0.124328  0  1.048801  0  0.145634  0  0.10721  0.118441  0  1.051436  0
H  H19  1  0.04564860  0.28471235  0.88438737  1  0  0.115278  0  0.981563  0  0  0.121084  0  1.050061  0  0  0.124309  0  1.04882  0  0.145614  0  0.107199  0.118426  0  1.051449  0
H  H20  1  0.44438705  0.18047650  0.78695411  1  0  0.114092  0  0.953108  0  0  0.121046  0  1.018433  0  0  0.124269  0  1.017451  0  0.100208  0  0.107695  0.11882  0  1.019163  0
H  H21  1  0.05560932  0.68047670  0.21304693  1  0  0.114078  0  0.95314  0  0  0.121027  0  1.018466  0  0  0.12425  0  1.017483  0  0.10021  0  0.107699  0.118798  0  1.019204  0
H  H22  1  0.55560865  0.81952391  0.21304657  1  0  0.11408  0  0.953083  0  0  0.121032  0  1.018412  0  0  0.124255  0  1.017428  0  0.100134  0  0.10769  0.118806  0  1.019142  0
H  H23  1  0.94438786  0.31952371  0.78695428  1  0  0.114068  0  0.953117  0  0  0.121017  0  1.018453  0  0  0.124241  0  1.017469  0  0.100204  0  0.107689  0.118792  0  1.019183  0
H  H24  1  0.29946170  0.15828082  0.67270455  1  0  0.093959  0  0.990239  0  0  0.097246  0  1.062299  0  0  0.1006  0  1.059816  0  0.136855  0  0.102599  0.094825  0  1.063982  0
H  H25  1  0.20053318  0.65828008  0.32729597  1  0  0.093938  0  0.990254  0  0  0.097238  0  1.06229  0  0  0.100591  0  1.059805  0  0.136842  0  0.10259  0.094817  0  1.063974  0
H  H26  1  0.70053399  0.84171958  0.32729614  1  0  0.093972  0  0.990236  0  0  0.097267  0  1.062276  0  0  0.100622  0  1.059792  0  0.136853  0  0.102604  0.094846  0  1.063959  0
H  H27  1  0.79946251  0.34172033  0.67270471  1  0  0.09395  0  0.990244  0  0  0.097247  0  1.062285  0  0  0.100601  0  1.059801  0  0.136843  0  0.102592  0.094825  0  1.063969  0
H  H28  1  0.25124216  0.35445683  0.60148375  1  0  0.101336  0  0.950414  0  0  0.112717  0  1.006305  0  0  0.114971  0  1.007688  0  0.072116  0  0.105818  0.11105  0  1.005524  0
H  H29  1  0.24875420  0.85445609  0.39851632  1  0  0.101353  0  0.950415  0  0  0.112718  0  1.006322  0  0  0.114972  0  1.007705  0  0.072108  0  0.105822  0.111053  0  1.005538  0
H  H30  1  0.74875650  0.64554263  0.39851652  1  0  0.101386  0  0.950347  0  0  0.112748  0  1.006258  0  0  0.115005  0  1.007643  0  0.072115  0  0.105825  0.111082  0  1.005476  0
H  H31  1  0.75124001  0.14554337  0.60148335  1  0  0.101361  0  0.95037  0  0  0.112724  0  1.006284  0  0  0.114978  0  1.007668  0  0.07211  0  0.10582  0.111058  0  1.005501  0
H  H32  1  0.35269716  0.56348263  0.65150150  1  0  0.082077  0  0.956218  0  0  0.084043  0  1.031666  0  0  0.0864  0  1.02945  0  0.132565  0  0.11617  0.082217  0  1.033329  0
H  H33  1  0.14730365  0.06348243  0.34849866  1  0  0.082098  0  0.956184  0  0  0.084022  0  1.031666  0  0  0.086378  0  1.029451  0  0.132565  0  0.116167  0.082196  0  1.033329  0
H  H34  1  0.64730594  0.43651778  0.34849788  1  0  0.082087  0  0.956255  0  0  0.08405  0  1.03169  0  0  0.086407  0  1.029474  0  0.132558  0  0.116174  0.082224  0  1.033353  0
H  H35  1  0.85269501  0.93651798  0.65150160  1  0  0.082101  0  0.956247  0  0  0.084066  0  1.031683  0  0  0.086423  0  1.029467  0  0.132563  0  0.116181  0.08224  0  1.033346  0
H  H36  1  0.21081842  0.67473097  0.54744712  1  0  0.105769  0  0.948364  0  0  0.114081  0  1.01084  0  0  0.117391  0  1.009186  0  0.086591  0  0.104439  0.111689  0  1.012073  0
H  H37  1  0.28917943  0.17473077  0.45255199  1  0  0.105766  0  0.948374  0  0  0.114078  0  1.010857  0  0  0.117389  0  1.009202  0  0.086568  0  0.104433  0.111686  0  1.01209  0
H  H38  1  0.78917876  0.32526944  0.45255213  1  0  0.105775  0  0.948365  0  0  0.114085  0  1.01085  0  0  0.117396  0  1.009194  0  0.086573  0  0.104437  0.111693  0  1.012082  0
H  H39  1  0.71081923  0.82527153  0.54744679  1  0  0.105769  0  0.94837  0  0  0.114082  0  1.010847  0  0  0.117391  0  1.009194  0  0.086603  0  0.104452  0.11169  0  1.012079  0
H  H40  1  0.72015462  0.41923434  0.56103335  1  0  0.100146  0  0.946483  0  0  0.11294  0  1.002457  0  0  0.116082  0  1.001025  0  0.078096  0  0.10554  0.110653  0  1.00358  0
H  H41  1  0.77984336  0.91923548  0.43896606  1  0  0.100137  0  0.946526  0  0  0.112969  0  1.002451  0  0  0.116111  0  1.001018  0  0.078091  0  0.105554  0.110682  0  1.003574  0
H  H42  1  0.27984255  0.58076512  0.43896638  1  0  0.100127  0  0.946497  0  0  0.112954  0  1.002432  0  0  0.116095  0  1.000999  0  0.078105  0  0.105549  0.110665  0  1.003557  0
H  H43  1  0.22015678  0.08076587  0.56103277  1  0  0.100167  0  0.946463  0  0  0.112969  0  1.002429  0  0  0.11611  0  1.000997  0  0.078112  0  0.10556  0.110682  0  1.003551  0
C  C44  1  0.70542841  0.55632005  0.92027350  1  0  0.143003  0  3.714233  0  0  0.108356  0  3.968972  0  0  0.114968  0  3.986702  0  0.478119  0  0.050459  0.104025  0  3.957365  0
C  C45  1  0.79457254  0.05632363  0.07972746  1  0  0.142935  0  3.714194  0  0  0.108246  0  3.968968  0  0  0.114862  0  3.986695  0  0.478128  0  0.050408  0.103911  0  3.957365  0
C  C46  1  0.29457025  0.44367752  0.07972677  1  0  0.143025  0  3.714065  0  0  0.108349  0  3.968851  0  0  0.114965  0  3.986578  0  0.478136  0  0.050435  0.104018  0  3.957242  0
C  C47  1  0.20542760  0.94367867  0.92027431  1  0  0.143076  0  3.714147  0  0  0.108401  0  3.968906  0  0  0.115014  0  3.986639  0  0.478108  0  0.050486  0.104072  0  3.957297  0
C  C48  1  0.73204762  0.46851055  0.97102610  1  0  -0.120617  0  3.72821  0  0  -0.13178  0  3.979631  0  0  -0.138957  0  4.001894  0  0.030676  0  -0.084121  -0.127287  0  3.964838  0
C  C49  1  0.76795481  0.96851264  0.02897440  1  0  -0.120526  0  3.728251  0  0  -0.131697  0  3.979653  0  0  -0.138873  0  4.001918  0  0.030642  0  -0.08409  -0.127205  0  3.964863  0
C  C50  1  0.26795548  0.53148797  0.02897378  1  0  -0.120605  0  3.728249  0  0  -0.131782  0  3.979659  0  0  -0.138957  0  4.001919  0  0.030647  0  -0.084117  -0.12729  0  3.96487  0
C  C51  1  0.23204977  0.03148965  0.97102600  1  0  -0.120643  0  3.72822  0  0  -0.131801  0  3.979639  0  0  -0.138978  0  4.001904  0  0.030719  0  -0.084113  -0.127306  0  3.964839  0
C  C52  1  0.67301236  0.34441903  0.95767964  1  0  1.8e-05  0  3.7218  0  0  -0.016501  0  3.966551  0  0  -0.013521  0  3.985893  0  -0.064418  0  -0.06637  -0.018185  0  3.95339  0
C  C53  1  0.82698711  0.84442301  0.04232079  1  0  2.3e-05  0  3.721723  0  0  -0.016486  0  3.966493  0  0  -0.013507  0  3.985836  0  -0.064422  0  -0.066356  -0.018172  0  3.95333  0
C  C54  1  0.32698482  0.65557759  0.04232010  1  0  0.000106  0  3.721772  0  0  -0.016397  0  3.966537  0  0  -0.013416  0  3.985878  0  -0.064441  0  -0.066321  -0.018089  0  3.953373  0
C  C55  1  0.17301451  0.15558022  0.95767954  1  0  0.000102  0  3.721691  0  0  -0.016418  0  3.966425  0  0  -0.013434  0  3.985767  0  -0.064413  0  -0.066326  -0.01809  0  3.953264  0
C  C56  1  0.58829291  0.31241399  0.89548739  1  0  -0.140864  0  3.688852  0  0  -0.159582  0  3.93829  0  0  -0.166752  0  3.959891  0  -0.047778  0  -0.076577  -0.154713  0  3.923793  0
C  C57  1  0.91170508  0.81241514  0.10451252  1  0  -0.140831  0  3.688832  0  0  -0.159538  0  3.938245  0  0  -0.166709  0  3.959845  0  -0.047627  0  -0.076551  -0.154669  0  3.923752  0
C  C58  1  0.41170575  0.68758547  0.10451239  1  0  -0.140852  0  3.688838  0  0  -0.159587  0  3.938277  0  0  -0.166756  0  3.959876  0  -0.047777  0  -0.076582  -0.154718  0  3.923787  0
C  C59  1  0.08829358  0.18758621  0.89548775  1  0  -0.14086  0  3.688735  0  0  -0.15959  0  3.938235  0  0  -0.166759  0  3.959835  0  -0.04778  0  -0.076586  -0.154721  0  3.923734  0
C  C60  1  0.56126916  0.40716330  0.84767740  1  0  0.185216  0  3.738843  0  0  0.178042  0  3.979656  0  0  0.185099  0  3.999153  0  0.496633  0  0.125979  0.173317  0  3.966356  0
C  C61  1  0.93873327  0.90716634  0.15232310  1  0  0.185189  0  3.738871  0  0  0.178034  0  3.979721  0  0  0.185097  0  3.999218  0  0.496671  0  0.125951  0.173303  0  3.966422  0
C  C62  1  0.43873246  0.59283521  0.15232342  1  0  0.185173  0  3.738952  0  0  0.178036  0  3.979739  0  0  0.185097  0  3.999237  0  0.496564  0  0.12595  0.173308  0  3.966436  0
C  C63  1  0.06126983  0.09283690  0.84767678  1  0  0.185252  0  3.738778  0  0  0.178047  0  3.979632  0  0  0.185109  0  3.99913  0  0.496634  0  0.125992  0.17332  0  3.966334  0
C  C64  1  0.46933330  0.38437295  0.78040207  1  0  0.176639  0  3.748374  0  0  0.171095  0  3.988846  0  0  0.177394  0  4.008998  0  0.440631  0  0.121908  0.166933  0  3.975342  0
C  C65  1  0.03066307  0.88437221  0.21959897  1  0  0.17664  0  3.748268  0  0  0.170999  0  3.988887  0  0  0.177293  0  4.00904  0  0.440742  0  0.121859  0.166837  0  3.975385  0
C  C66  1  0.53066684  0.61562840  0.21959823  1  0  0.176564  0  3.748393  0  0  0.171001  0  3.988879  0  0  0.177296  0  4.009031  0  0.440681  0  0.121884  0.16684  0  3.975375  0
C  C67  1  0.96933411  0.11562914  0.78040224  1  0  0.176552  0  3.748418  0  0  0.171041  0  3.988859  0  0  0.177337  0  4.009015  0  0.440615  0  0.121859  0.166881  0  3.975354  0
C  C68  1  0.41832203  0.26417516  0.75638720  1  0  -0.135988  0  3.683412  0  0  -0.15336  0  3.929323  0  0  -0.160794  0  3.951255  0  -0.029822  0  -0.078545  -0.148653  0  3.915001  0
C  C69  1  0.08167582  0.76417442  0.24361388  1  0  -0.135918  0  3.683306  0  0  -0.153246  0  3.929234  0  0  -0.160676  0  3.951163  0  -0.02979  0  -0.078499  -0.14854  0  3.914922  0
C  C70  1  0.58167515  0.73582429  0.24361303  1  0  -0.135897  0  3.683316  0  0  -0.153254  0  3.92922  0  0  -0.160683  0  3.951149  0  -0.029719  0  -0.078513  -0.148547  0  3.914898  0
C  C71  1  0.91832284  0.23582504  0.75638737  1  0  -0.135898  0  3.683378  0  0  -0.153265  0  3.929271  0  0  -0.160697  0  3.951202  0  -0.029832  0  -0.078511  -0.14856  0  3.914949  0
C  C72  1  0.33875334  0.25212395  0.69158442  1  0  -0.000372  0  3.722131  0  0  -0.01678  0  3.967905  0  0  -0.013314  0  3.986755  0  -0.020051  0  -0.068507  -0.018855  0  3.955272  0
C  C73  1  0.16124302  0.75212227  0.30841711  1  0  -0.000363  0  3.722048  0  0  -0.016775  0  3.967817  0  0  -0.013306  0  3.986665  0  -0.020072  0  -0.068516  -0.018849  0  3.955182  0
C  C74  1  0.66124383  0.74787456  0.30841679  1  0  -0.00039  0  3.722061  0  0  -0.0168  0  3.967834  0  0  -0.013335  0  3.986687  0  -0.020047  0  -0.068518  -0.018874  0  3.955199  0
C  C75  1  0.83875415  0.24787530  0.69158410  1  0  -0.000371  0  3.722096  0  0  -0.016785  0  3.967885  0  0  -0.013319  0  3.986736  0  -0.020033  0  -0.06851  -0.018861  0  3.955255  0
C  C76  1  0.31256385  0.35969945  0.65244294  1  0  -0.121823  0  3.71296  0  0  -0.13177  0  3.960362  0  0  -0.139536  0  3.982272  0  0.098126  0  -0.082614  -0.126797  0  3.945828  0
C  C77  1  0.18743547  0.85969870  0.34755719  1  0  -0.121961  0  3.712914  0  0  -0.131896  0  3.960317  0  0  -0.139663  0  3.982225  0  0.098097  0  -0.082679  -0.126923  0  3.945786  0
C  C78  1  0.68743777  0.64030001  0.34755690  1  0  -0.121958  0  3.71292  0  0  -0.131901  0  3.960339  0  0  -0.139673  0  3.982252  0  0.098108  0  -0.082671  -0.126929  0  3.945808  0
C  C79  1  0.81256318  0.14030076  0.65244307  1  0  -0.121918  0  3.712913  0  0  -0.131859  0  3.960333  0  0  -0.139626  0  3.982242  0  0.098125  0  -0.082661  -0.126887  0  3.9458  0
C  C80  1  0.36698773  0.47626686  0.67980017  1  0  0.154345  0  3.688202  0  0  0.116322  0  3.951459  0  0  0.124594  0  3.967569  0  0.413659  0  0.054981  0.110842  0  3.94075  0
C  C81  1  0.13301160  0.97626706  0.32019947  1  0  0.15441  0  3.688278  0  0  0.116445  0  3.951493  0  0  0.124719  0  3.967603  0  0.413677  0  0.055046  0.110963  0  3.940785  0
C  C82  1  0.63301241  0.52373260  0.32019915  1  0  0.15433  0  3.688299  0  0  0.116327  0  3.951519  0  0  0.1246  0  3.96763  0  0.413681  0  0.054994  0.110846  0  3.940813  0
C  C83  1  0.86698854  0.02373334  0.67980083  1  0  0.15432  0  3.688335  0  0  0.116307  0  3.95156  0  0  0.124581  0  3.967669  0  0.413698  0  0.054987  0.110827  0  3.940852  0
C  C84  1  0.92725963  0.60371406  0.62609803  1  0  0.233726  0  3.837279  0  0  0.215486  0  4.119643  0  0  0.222166  0  4.136151  0  0.924103  0  0.207254  0.211023  0  4.108376  0
C  C85  1  0.57273984  0.10371386  0.37390141  1  0  0.233798  0  3.837184  0  0  0.215602  0  4.119486  0  0  0.22228  0  4.135996  0  0.924121  0  0.207342  0.211139  0  4.108217  0
C  C86  1  0.07274051  0.39628446  0.37390079  1  0  0.233626  0  3.837417  0  0  0.215447  0  4.119743  0  0  0.222124  0  4.136257  0  0.924116  0  0.207264  0.210984  0  4.108474  0
C  C87  1  0.42726030  0.89628655  0.62609889  1  0  0.233799  0  3.83719  0  0  0.215583  0  4.119526  0  0  0.222264  0  4.136031  0  0.924103  0  0.207308  0.211118  0  4.108256  0
C  C88  1  0.96163018  0.55246408  0.56140281  1  0  0.009041  0  3.812833  0  0  0.025632  0  4.044558  0  0  0.025008  0  4.067662  0  -0.029366  0  -0.005548  0.025968  0  4.028882  0
C  C89  1  0.53836780  0.05246293  0.43859710  1  0  0.009006  0  3.812868  0  0  0.025576  0  4.044604  0  0  0.024952  0  4.067714  0  -0.029577  0  -0.005552  0.025918  0  4.028919  0
C  C90  1  0.03836996  0.44753632  0.43859602  1  0  0.009098  0  3.812809  0  0  0.025593  0  4.044645  0  0  0.024967  0  4.067756  0  -0.02935  0  -0.005576  0.025932  0  4.028963  0
C  C91  1  0.46163234  0.94753653  0.56140320  1  0  0.008946  0  3.812824  0  0  0.025506  0  4.044585  0  0  0.024881  0  4.067692  0  -0.029347  0  -0.005555  0.025852  0  4.028894  0
C  C92  1  0.11844542  0.59852147  0.52627089  1  0  -0.103612  0  3.742192  0  0  -0.122142  0  3.986704  0  0  -0.124272  0  4.006452  0  0.009302  0  -0.088665  -0.120542  0  3.973127  0
C  C93  1  0.38155391  0.09852316  0.47372875  1  0  -0.103606  0  3.742209  0  0  -0.122138  0  3.98672  0  0  -0.124268  0  4.00647  0  0.009324  0  -0.088664  -0.12054  0  3.973144  0
C  C94  1  0.88155324  0.40147799  0.47372888  1  0  -0.103621  0  3.742163  0  0  -0.122132  0  3.986695  0  0  -0.124262  0  4.006446  0  0.009364  0  -0.088655  -0.120533  0  3.973118  0
C  C95  1  0.61844623  0.90147913  0.52627056  1  0  -0.103542  0  3.742159  0  0  -0.122064  0  3.986677  0  0  -0.124192  0  4.006426  0  0.009281  0  -0.088668  -0.120466  0  3.9731  0
C  C96  1  0.84341889  0.45362753  0.53424520  1  0  -0.09807  0  3.745297  0  0  -0.117859  0  3.988832  0  0  -0.119912  0  4.008807  0  -0.0747  0  -0.087592  -0.116304  0  3.975115  0
C  C97  1  0.65658206  0.95362868  0.46575478  1  0  -0.098108  0  3.745315  0  0  -0.117931  0  3.98887  0  0  -0.119984  0  4.008843  0  -0.074481  0  -0.08764  -0.116378  0  3.975155  0
C  C98  1  0.15657829  0.54637193  0.46575454  1  0  -0.098052  0  3.745277  0  0  -0.117843  0  3.98884  0  0  -0.119895  0  4.008814  0  -0.07469  0  -0.087594  -0.116289  0  3.975122  0
C  C99  1  0.34341956  0.04637267  0.53424506  1  0  -0.098022  0  3.745233  0  0  -0.117811  0  3.988784  0  0  -0.119864  0  4.008759  0  -0.074683  0  -0.087583  -0.11626  0  3.975067  0
N  N100  1  0.62143800  0.52666541  0.86075741  1  0  -0.330047  0  3.301128  0  0  -0.252528  0  3.56056  0  0  -0.270183  0  3.577655  0  -1.225484  0  -0.318528  -0.24085  0  3.549209  0
N  N101  1  0.87856295  0.02666520  0.13924355  1  0  -0.330052  0  3.301151  0  0  -0.252524  0  3.560599  0  0  -0.270182  0  3.577691  0  -1.225531  0  -0.318503  -0.24083  0  3.549228  0
N  N102  1  0.37856214  0.47333500  0.13924289  1  0  -0.330017  0  3.301147  0  0  -0.252536  0  3.560629  0  0  -0.270195  0  3.577727  0  -1.225472  0  -0.318511  -0.24085  0  3.549266  0
N  N103  1  0.12144164  0.97333614  0.86075784  1  0  -0.330132  0  3.301079  0  0  -0.252655  0  3.560609  0  0  -0.27031  0  3.577694  0  -1.225496  0  -0.318583  -0.240972  0  3.549255  0
N  N104  1  0.44253923  0.48791784  0.74211055  1  0  -0.333213  0  3.271377  0  0  -0.261856  0  3.535153  0  0  -0.278976  0  3.550954  0  -1.248314  0  -0.318975  -0.25048  0  3.524507  0
N  N105  1  0.05746158  0.98791804  0.25788961  1  0  -0.333199  0  3.271483  0  0  -0.261863  0  3.535359  0  0  -0.278982  0  3.551162  0  -1.248328  0  -0.318966  -0.250487  0  3.524715  0
N  N106  1  0.55746387  0.51207973  0.25788932  1  0  -0.333114  0  3.271413  0  0  -0.261761  0  3.535187  0  0  -0.278878  0  3.550986  0  -1.248317  0  -0.318932  -0.250386  0  3.524544  0
N  N107  1  0.94254152  0.01208236  0.74211075  1  0  -0.333141  0  3.271435  0  0  -0.261787  0  3.535188  0  0  -0.278907  0  3.550991  0  -1.248319  0  -0.318931  -0.250411  0  3.524542  0
N  N108  1  0.82042714  0.62627315  0.72107639  1  0  -0.093865  0  3.177248  0  0  -0.048666  0  3.47281  0  0  -0.053809  0  3.485461  0  -0.192542  0  -0.109588  -0.045302  0  3.464239  0
N  N109  1  0.67957084  0.12627200  0.27892351  1  0  -0.093962  0  3.177531  0  0  -0.048803  0  3.473124  0  0  -0.053946  0  3.485773  0  -0.193235  0  -0.109624  -0.045439  0  3.464556  0
N  N110  1  0.17957003  0.37372726  0.27892334  1  0  -0.09398  0  3.177344  0  0  -0.048805  0  3.472923  0  0  -0.053947  0  3.485572  0  -0.193344  0  -0.109654  -0.045441  0  3.464356  0
N  N111  1  0.32043078  0.87372746  0.72107633  1  0  -0.093961  0  3.177421  0  0  -0.048804  0  3.473033  0  0  -0.053948  0  3.485683  0  -0.193225  0  -0.109642  -0.045439  0  3.464462  0
N  N112  1  0.80251948  0.55326170  0.66787874  1  0  -0.274963  0  2.975576  0  0  -0.258498  0  3.256517  0  0  -0.266013  0  3.269971  0  -0.632465  0  -0.206645  -0.252754  0  3.246989  0
N  N113  1  0.69747999  0.05326150  0.33212070  1  0  -0.274946  0  2.975652  0  0  -0.258484  0  3.256595  0  0  -0.265998  0  3.270049  0  -0.632462  0  -0.206677  -0.252741  0  3.247068  0
N  N114  1  0.19748066  0.44673776  0.33212106  1  0  -0.27491  0  2.975579  0  0  -0.258459  0  3.256516  0  0  -0.265973  0  3.269969  0  -0.632464  0  -0.206644  -0.252716  0  3.246988  0
N  N115  1  0.30252015  0.94673890  0.66787910  1  0  -0.274932  0  2.975564  0  0  -0.258448  0  3.256497  0  0  -0.265964  0  3.269951  0  -0.632486  0  -0.206644  -0.252706  0  3.24697  0
N  N116  1  0.95118936  0.71752046  0.71173051  1  0  -0.095845  0  3.248023  0  0  -0.039246  0  3.543984  0  0  -0.046566  0  3.558699  0  -0.220166  0  -0.110518  -0.03432  0  3.53391  0
N  N117  1  0.54880863  0.21752120  0.28826841  1  0  -0.095775  0  3.248226  0  0  -0.039142  0  3.544154  0  0  -0.046461  0  3.558868  0  -0.219532  0  -0.110471  -0.034217  0  3.534082  0
N  N118  1  0.04881078  0.28247805  0.28826881  1  0  -0.095716  0  3.248145  0  0  -0.039075  0  3.544044  0  0  -0.046393  0  3.558759  0  -0.219426  0  -0.11043  -0.034152  0  3.533972  0
N  N119  1  0.45119151  0.78248014  0.71173041  1  0  -0.095806  0  3.248192  0  0  -0.039199  0  3.544159  0  0  -0.046519  0  3.558874  0  -0.21949  0  -0.11051  -0.034271  0  3.534081  0
N  N120  1  0.02163885  0.70580057  0.65273559  1  0  -0.275436  0  2.94464  0  0  -0.268653  0  3.232166  0  0  -0.275624  0  3.246674  0  -0.636417  0  -0.214132  -0.263865  0  3.222326  0
N  N121  1  0.47836196  0.20580037  0.34726310  1  0  -0.275475  0  2.944695  0  0  -0.268706  0  3.232193  0  0  -0.275677  0  3.246704  0  -0.636378  0  -0.214186  -0.263919  0  3.222353  0
N  N122  1  0.97836129  0.29419889  0.34726323  1  0  -0.275399  0  2.944747  0  0  -0.268631  0  3.232241  0  0  -0.275601  0  3.246751  0  -0.636415  0  -0.214141  -0.263844  0  3.222402  0
N  N123  1  0.52163818  0.79420098  0.65273622  1  0  -0.275451  0  2.944678  0  0  -0.268673  0  3.232204  0  0  -0.275644  0  3.246713  0  -0.636414  0  -0.214144  -0.263887  0  3.222363  0
N  N124  1  0.74608776  0.80012606  0.83428862  1  0  -0.575651  0  2.708207  0  0  -0.540589  0  3.020031  0  0  -0.562878  0  3.025505  0  -0.335003  0  -0.299672  -0.524845  0  3.016132  0
N  N125  1  0.75391764  0.30012774  0.16571047  1  0  -0.575703  0  2.70823  0  0  -0.54064  0  3.020074  0  0  -0.562932  0  3.025547  0  -0.335166  0  -0.299666  -0.524883  0  3.016136  0
N  N126  1  0.25391534  0.19987246  0.16571126  1  0  -0.575741  0  2.708143  0  0  -0.540656  0  3.019951  0  0  -0.562945  0  3.025421  0  -0.335188  0  -0.29971  -0.524902  0  3.01603  0
N  N127  1  0.24608843  0.69987361  0.83428849  1  0  -0.575712  0  2.708199  0  0  -0.540648  0  3.020036  0  0  -0.562938  0  3.025507  0  -0.335002  0  -0.299692  -0.524906  0  3.016145  0
N  N128  1  0.67440822  0.89942135  0.84890378  1  0  0.40289  0  4.226717  0  0  0.435311  0  4.513836  0  0  0.450897  0  4.541977  0  -0.349597  0  0.079896  0.424795  0  4.494264  0
N  N129  1  0.82559717  0.39942304  0.15109630  1  0  0.402892  0  4.226758  0  0  0.435308  0  4.513877  0  0  0.450899  0  4.542014  0  -0.349325  0  0.079836  0.424794  0  4.49431  0
N  N130  1  0.32559340  0.10057622  0.15109704  1  0  0.40289  0  4.226664  0  0  0.435313  0  4.513776  0  0  0.4509  0  4.541912  0  -0.34935  0  0.079893  0.424797  0  4.494213  0
N  N131  1  0.17440889  0.60057831  0.84890316  1  0  0.402907  0  4.226747  0  0  0.435318  0  4.513883  0  0  0.450905  0  4.542019  0  -0.349604  0  0.07985  0.424801  0  4.494312  0
N  N132  1  0.61153804  0.99741686  0.86375438  1  0  -0.416099  0  2.431824  0  0  -0.417054  0  2.66888  0  0  -0.42343  0  2.679003  0  -0.052466  0  -0.207756  -0.411554  0  2.661743  0
N  N133  1  0.88846439  0.49742043  0.13624612  1  0  -0.416064  0  2.431828  0  0  -0.417014  0  2.668885  0  0  -0.423403  0  2.679027  0  -0.052595  0  -0.207701  -0.411513  0  2.661745  0
N  N134  1  0.38846358  0.00258072  0.13624694  1  0  -0.416041  0  2.431876  0  0  -0.417012  0  2.668955  0  0  -0.423398  0  2.679092  0  -0.052539  0  -0.207722  -0.411516  0  2.661822  0
N  N135  1  0.11154019  0.50258281  0.86375428  1  0  -0.416062  0  2.431858  0  0  -0.41701  0  2.668919  0  0  -0.423391  0  2.679046  0  -0.052459  0  -0.207693  -0.411512  0  2.661785  0
