# generated using pymatgen
data_ZnH8C18N3O4
_symmetry_space_group_name_H-M   'P 1'
_cell_length_a   9.77949532
_cell_length_b   11.07268043
_cell_length_c   13.30499143
_cell_angle_alpha   90.24732827
_cell_angle_beta   70.55939770
_cell_angle_gamma   91.42039749
_symmetry_Int_Tables_number   1
_chemical_formula_structural   ZnH8C18N3O4
_chemical_formula_sum   'Zn2 H16 C36 N6 O8'
_cell_volume   1358.16421499
_cell_formula_units_Z   2
loop_
 _symmetry_equiv_pos_site_id
 _symmetry_equiv_pos_as_xyz
  1  'x, y, z'
loop_
 _atom_site_type_symbol
 _atom_site_label
 _atom_site_symmetry_multiplicity
 _atom_site_fract_x
 _atom_site_fract_y
 _atom_site_fract_z
 _atom_site_occupancy
 _atom_site_pbe_bader_charge
 _atom_site_pbe_bader_spin_density
 _atom_site_pbe_cm5_charge
 _atom_site_pbe_ddec_charge
 _atom_site_pbe_ddec_spin_density
 _atom_site_pbe_ddec_sum_bond_order
 _atom_site_pbe_magmom
Zn  Zn0  1  0.35142110  0.50175084  0.49763337  1  1.285761  0  0.673267  0.824456  0  2.360879  0
Zn  Zn1  1  0.64721376  0.50844933  0.48837287  1  1.297384  0  0.688537  0.835631  0  2.43417  0
H  H2  1  0.22517262  0.11837136  0.67485070  1  0.107625  0  0.130147  0.122842  0  0.924155  0
H  H3  1  0.19114199  0.89667932  0.67580037  1  0.067382  0  0.109916  0.12521  0  0.972848  0
H  H4  1  0.14806151  0.90208459  0.55460434  1  0.095893  0  0.115207  0.136811  0  0.961886  0
H  H5  1  0.93216660  0.39638023  0.35551121  1  0.173371  0  0.134213  0.122983  0  0.995056  0
H  H6  1  0.18501850  0.39205632  0.36132532  1  0.151332  0  0.138576  0.119671  0  0.959321  0
H  H7  1  0.00776982  0.59253499  0.73558022  1  0.065451  0  0.107014  0.126557  0  0.978488  0
H  H8  1  0.06741940  0.72403219  0.65389050  1  0.099873  0  0.103558  0.118993  0  1.019858  0
H  H9  1  0.75646369  0.61205384  0.72447556  1  0.118262  0  0.105646  0.130868  0  1.002329  0
H  H10  1  0.86114388  0.38330919  0.79434542  1  0.030628  0  0.102387  0.10507  0  1.00078  0
H  H11  1  0.81813162  0.73991454  0.63726423  1  0.076325  0  0.112411  0.135644  0  0.960313  0
H  H12  1  0.92854553  0.44582029  0.95129294  1  0.086995  0  0.106198  0.108923  0  1.021906  0
H  H13  1  0.40940747  0.45360372  0.17591351  1  0.109926  0  0.111729  0.118284  0  1.011207  0
H  H14  1  0.26753992  0.36312102  0.11225124  1  0.078666  0  0.109757  0.110783  0  0.997037  0
H  H15  1  0.08783596  0.33472867  0.02242899  1  0.11928  0  0.104403  0.104578  0  1.009193  0
H  H16  1  0.15710900  0.38321054  0.82641375  1  0.083807  0  0.098704  0.0979  0  1.022796  0
H  H17  1  0.67531277  0.37654475  0.70718224  1  0.093092  0  0.10799  0.12104  0  1.01063  0
C  C18  1  0.49514969  0.73913059  0.50134133  1  1.614544  0  0.218024  0.595396  0  4.199714  0
C  C19  1  0.44917918  0.39597976  0.96656235  1  -0.082478  0  0.001804  0.029777  0  3.945079  0
C  C20  1  0.49251565  0.40000716  0.85286522  1  0.014162  0  0.004699  0.069644  0  3.939799  0
C  C21  1  0.55849795  0.41834747  0.01664295  1  -0.047842  0  0.005282  0.041277  0  3.949716  0
C  C22  1  0.70825241  0.41873959  0.95282961  1  0.058001  0  -0.005847  0.079531  0  4.037424  0
C  C23  1  0.74704654  0.39529716  0.84114042  1  -0.044229  0  -0.092685  -0.144038  0  4.014445  0
C  C24  1  0.64393795  0.39090606  0.79263147  1  -0.011546  0  -0.083836  -0.112807  0  3.990088  0
C  C25  1  0.52233328  0.44765510  0.12532096  1  -0.008748  0  -0.069959  -0.119418  0  3.929387  0
C  C26  1  0.77637939  0.47227246  0.10850069  1  0.057722  0  0.01042  0.048693  0  4.062741  0
C  C27  1  0.38232414  0.40685739  0.80465836  1  -0.0585  0  -0.018778  -0.085957  0  3.930021  0
C  C28  1  0.37841892  0.94375084  0.52982118  1  -0.051303  0  0.0104  0.082485  0  3.904046  0
C  C29  1  0.41513795  0.45311545  0.69324847  1  1.521778  0  0.211614  0.589471  0  4.174814  0
C  C30  1  0.50053696  0.87384633  0.48852494  1  0.063076  0  0.0085  -0.086111  0  3.897894  0
C  C31  1  0.63145274  0.93886457  0.43388824  1  0.08593  0  0.034223  0.029774  0  3.974314  0
C  C32  1  0.63482768  0.06721521  0.42320852  1  0.135617  0  0.031304  0.017529  0  3.981488  0
C  C33  1  0.50917064  0.13570520  0.47033297  1  0.019904  0  0.015195  -0.057458  0  3.918998  0
C  C34  1  0.38407241  0.06922032  0.52219951  1  0.051736  0  0.00878  0.029514  0  3.881502  0
C  C35  1  0.22821944  0.08258751  0.59672135  1  0.078951  0  -0.03774  -0.035464  0  3.88897  0
C  C36  1  0.21924950  0.93850171  0.59667325  1  -0.027583  0  -0.129416  -0.222342  0  3.807279  0
C  C37  1  0.89777315  0.56693211  0.56109924  1  0.531653  0  0.143302  0.194033  0  3.872305  0
C  C38  1  0.96121727  0.44614550  0.41649534  1  0.54736  0  0.082981  0.084397  0  3.804594  0
C  C39  1  0.10235360  0.44314203  0.42009093  1  0.462424  0  0.079688  0.077599  0  3.829841  0
C  C40  1  0.51026846  0.27086240  0.47267186  1  1.64639  0  0.215192  0.590177  0  4.2143  0
C  C41  1  0.03719299  0.56135945  0.56584876  1  0.590378  0  0.139795  0.188954  0  3.877534  0
C  C42  1  0.00365671  0.63948103  0.66414424  1  -0.04198  0  -0.140326  -0.226827  0  3.829527  0
C  C43  1  0.84524189  0.64921840  0.65658735  1  -0.040865  0  -0.139301  -0.227226  0  3.811394  0
C  C44  1  0.58059875  0.50335375  0.28812873  1  1.612889  0  0.215753  0.588981  0  4.187608  0
C  C45  1  0.81433432  0.44464052  0.00053483  1  -0.02713  0  -0.073698  -0.160545  0  3.920997  0
C  C46  1  0.62687652  0.47496484  0.17180135  1  0.007157  0  -0.006108  -0.057164  0  3.936538  0
C  C47  1  0.23860289  0.38159191  0.86589465  1  -0.008416  0  -0.08623  -0.097068  0  4.0018  0
C  C48  1  0.19955952  0.35808965  0.97540258  1  -0.072876  0  -0.089515  -0.079037  0  4.022585  0
C  C49  1  0.30199488  0.37209873  0.02587818  1  0.028707  0  -0.071211  -0.091095  0  3.939512  0
C  C50  1  0.89151407  0.49974954  0.14939258  1  0.841493  0  0.181186  0.251673  0  4.024249  0
C  C51  1  0.76700364  0.12786104  0.36232491  1  0.838209  0  0.18353  0.247391  0  4.019231  0
C  C52  1  0.12336574  0.14724609  0.56333557  1  0.864306  0  0.181271  0.268702  0  3.965247  0
C  C53  1  0.76714747  0.88028288  0.38947378  1  0.895066  0  0.172858  0.236129  0  4.036561  0
N  N54  1  0.85559629  0.50938034  0.48802285  1  -1.230435  0  -0.289287  -0.187875  0  3.464371  0
N  N55  1  0.14302813  0.50116750  0.49589507  1  -1.235246  0  -0.292003  -0.193913  0  3.485198  0
N  N56  1  0.99530661  0.51952499  0.17235739  1  -1.131308  0  -0.312708  -0.375692  0  2.750117  0
N  N57  1  0.87312972  0.17750833  0.30940015  1  -1.102388  0  -0.292961  -0.33804  0  2.699399  0
N  N58  1  0.03349780  0.19775162  0.54190047  1  -1.143734  0  -0.312978  -0.381179  0  2.763072  0
N  N59  1  0.88468784  0.84427573  0.35278525  1  -1.090981  0  -0.302143  -0.334659  0  2.660609  0
O  O60  1  0.37091708  0.68670311  0.52583484  1  -1.156523  0  -0.309366  -0.535045  0  2.267232  0
O  O61  1  0.61598392  0.68999682  0.48586620  1  -1.154809  0  -0.296976  -0.521965  0  2.373913  0
O  O62  1  0.31525513  0.44375992  0.65122844  1  -1.14619  0  -0.320968  -0.551891  0  2.308523  0
O  O63  1  0.53869917  0.50441764  0.64885978  1  -1.170893  0  -0.315709  -0.552173  0  2.375231  0
O  O64  1  0.40335103  0.32004955  0.45694389  1  -1.147078  0  -0.305544  -0.534309  0  2.298398  0
O  O65  1  0.61426327  0.32132765  0.49482782  1  -1.15382  0  -0.301955  -0.527764  0  2.318783  0
O  O66  1  0.44932941  0.53133867  0.33546550  1  -1.16293  0  -0.318243  -0.546297  0  2.305032  0
O  O67  1  0.67805559  0.49417942  0.33127198  1  -1.158676  0  -0.29997  -0.52401  0  2.387992  0
