# generated using pymatgen
data_CaCuH4(CO2)4
_symmetry_space_group_name_H-M   'P 1'
_cell_length_a   6.53284598
_cell_length_b   7.37173630
_cell_length_c   8.38764807
_cell_angle_alpha   90.00018690
_cell_angle_beta   90.00033045
_cell_angle_gamma   97.52033273
_symmetry_Int_Tables_number   1
_chemical_formula_structural   CaCuH4(CO2)4
_chemical_formula_sum   'Ca2 Cu2 H8 C8 O16'
_cell_volume   400.46139721
_cell_formula_units_Z   2
loop_
 _symmetry_equiv_pos_site_id
 _symmetry_equiv_pos_as_xyz
  1  'x, y, z'
loop_
 _atom_site_type_symbol
 _atom_site_label
 _atom_site_symmetry_multiplicity
 _atom_site_fract_x
 _atom_site_fract_y
 _atom_site_fract_z
 _atom_site_occupancy
 _atom_site_hle17_ddec_charge
 _atom_site_hle17_ddec_spin_density
 _atom_site_hle17_ddec_sum_bond_order
 _atom_site_hle17_magmom
 _atom_site_hse06_10hf_ddec_charge
 _atom_site_hse06_10hf_ddec_spin_density
 _atom_site_hse06_10hf_ddec_sum_bond_order
 _atom_site_hse06_10hf_magmom
 _atom_site_hse06_ddec_charge
 _atom_site_hse06_ddec_spin_density
 _atom_site_hse06_ddec_sum_bond_order
 _atom_site_hse06_magmom
 _atom_site_pbe_cm5_charge
 _atom_site_pbe_ddec_charge
 _atom_site_pbe_ddec_spin_density
 _atom_site_pbe_ddec_sum_bond_order
 _atom_site_pbe_magmom
Ca  Ca0  1  0.75000008  0.00000072  0.13735843  1  1.560122  0.000571  1.123853  0.0  1.424859  0.000726  1.483238  0.0  1.472793  0.000507  1.433561  0.0  0.893646  1.388898  0.000895  1.5182  0.0
Ca  Ca1  1  0.24999934  0.99999866  0.86262281  1  1.560139  -0.000532  1.123889  0.0  1.424875  -0.000735  1.483292  0.0  1.472801  -0.000506  1.433622  0.0  0.893643  1.388951  -0.000896  1.518188  0.0
Cu  Cu2  1  0.74999607  0.49999937  0.40462476  1  1.0213  0.728761  1.666414  0.525  1.033155  0.826669  2.049004  0.657  1.120713  0.899332  1.991594  0.747  0.719442  0.967868  0.764638  2.102849  0.591
Cu  Cu3  1  0.25000508  0.50000138  0.59538033  1  1.020985  -0.728604  1.665569  -0.525  1.032918  -0.826575  2.047891  -0.657  1.120519  -0.899304  1.990526  -0.747  0.719144  0.96759  -0.764529  2.101774  -0.59
H  H4  1  0.27370534  0.15453035  0.44642634  1  0.016101  -0.000751  0.955562  -0.001  0.021569  -0.000348  1.031291  -0.001  0.021456  -0.000117  1.02669  0.0  0.120082  0.021516  -0.000562  1.034447  -0.001
H  H5  1  0.22629190  0.84546487  0.44642601  1  0.016055  -0.00075  0.955589  -0.001  0.021532  -0.000348  1.03131  -0.001  0.021419  -0.000117  1.02671  0.0  0.120066  0.021481  -0.000562  1.034463  -0.001
H  H6  1  0.72626501  0.84546905  0.55357040  1  0.015943  0.000753  0.955357  0.001  0.021531  0.00035  1.031011  0.001  0.02142  0.000117  1.026406  0.0  0.120062  0.021476  0.000564  1.034169  0.001
H  H7  1  0.77373222  0.15453587  0.55357073  1  0.015945  0.000753  0.955359  0.001  0.021468  0.00035  1.031084  0.001  0.021358  0.000117  1.026478  0.0  0.120018  0.021415  0.000564  1.034242  0.001
H  H8  1  0.40903339  0.42815632  0.15479700  1  0.024424  0.000194  0.901784  0.0  0.034549  0.000107  0.967052  0.0  0.034697  2.5e-05  0.962311  0.0  0.122747  0.03409  0.000164  0.970646  0.0
H  H9  1  0.09096516  0.57184163  0.15479888  1  0.024412  0.000194  0.901792  0.0  0.034541  0.000107  0.967059  0.0  0.034686  2.5e-05  0.962323  0.0  0.122758  0.034084  0.000164  0.970653  0.0
H  H10  1  0.59094468  0.57187455  0.84520689  1  0.024381  -0.000191  0.902371  0.0  0.034495  -0.000106  0.967649  0.0  0.034637  -2.4e-05  0.962904  0.0  0.122726  0.034046  -0.000163  0.971244  0.0
H  H11  1  0.90905807  0.42812216  0.84520263  1  0.02434  -0.000192  0.902366  0.0  0.034456  -0.000106  0.967656  0.0  0.034597  -2.4e-05  0.962911  0.0  0.122742  0.034011  -0.000163  0.971247  0.0
C  C12  1  0.12806684  0.19280614  0.39780457  1  0.601628  0.0053  3.86577  0.008  0.537815  0.000791  4.182044  0.003  0.57598  0.000808  4.171678  0.002  0.159722  0.511645  0.000564  4.187406  0.003
C  C13  1  0.37194000  0.80719432  0.39780479  1  0.60161  0.005297  3.865972  0.008  0.537785  0.00079  4.18226  0.003  0.575948  0.000809  4.171901  0.002  0.159726  0.511611  0.000564  4.187619  0.003
C  C14  1  0.87195036  0.80716860  0.60218264  1  0.60189  -0.005296  3.865314  -0.008  0.538016  -0.000789  4.181574  -0.003  0.576183  -0.000806  4.171211  -0.002  0.159731  0.511844  -0.000562  4.186938  -0.003
C  C15  1  0.62804247  0.19283518  0.60218360  1  0.601887  -0.005297  3.865528  -0.008  0.538037  -0.00079  4.181796  -0.003  0.576207  -0.000806  4.17143  -0.002  0.159753  0.511857  -0.000562  4.187162  -0.003
C  C16  1  0.50559349  0.31589212  0.14378206  1  0.606208  -0.003532  3.85946  -0.005  0.539699  -0.000565  4.16517  -0.002  0.576643  -0.000577  4.15561  -0.002  0.16948  0.514584  -0.000488  4.170407  -0.002
C  C17  1  0.99440287  0.68410676  0.14378368  1  0.606221  -0.00353  3.859446  -0.005  0.539717  -0.000566  4.165147  -0.002  0.576662  -0.000577  4.155592  -0.002  0.169462  0.514596  -0.000487  4.170385  -0.002
C  C18  1  0.49445277  0.68410313  0.85623734  1  0.606349  0.003533  3.860103  0.005  0.539735  0.000568  4.165887  0.002  0.576689  0.000579  4.156314  0.002  0.169373  0.514617  0.00049  4.171123  0.002
C  C19  1  0.00554910  0.31589265  0.85623214  1  0.606412  0.003533  3.859982  0.005  0.539773  0.000568  4.16579  0.002  0.576729  0.00058  4.156216  0.002  0.169342  0.51465  0.00049  4.171025  0.002
O  O20  1  0.08685473  0.35486965  0.43057313  1  -0.612258  -0.094144  2.15018  -0.123  -0.598442  -0.057803  2.471896  -0.083  -0.642555  -0.043079  2.458586  -0.065  -0.327096  -0.566137  -0.067235  2.479808  -0.092
O  O21  1  0.41316084  0.64513643  0.43058262  1  -0.61223  -0.094142  2.15037  -0.123  -0.598405  -0.057805  2.472071  -0.083  -0.642517  -0.043081  2.458764  -0.065  -0.327111  -0.566099  -0.067238  2.47998  -0.092
O  O22  1  0.91312328  0.64510922  0.56939023  1  -0.612275  0.094082  2.150564  0.123  -0.59847  0.057775  2.472411  0.083  -0.642567  0.043066  2.459075  0.065  -0.327086  -0.566161  0.067203  2.480331  0.092
O  O23  1  0.58686908  0.35489304  0.56939028  1  -0.612297  0.094077  2.150664  0.123  -0.598477  0.057776  2.472494  0.083  -0.642574  0.043065  2.459159  0.065  -0.327095  -0.566167  0.067202  2.480415  0.092
O  O24  1  0.46411417  0.19216001  0.04084232  1  -0.668906  0.007614  2.042057  0.01  -0.604316  0.004554  2.295071  0.006  -0.63369  0.002596  2.285339  0.004  -0.357057  -0.583558  0.006315  2.301091  0.008
O  O25  1  0.03588326  0.80783604  0.04084223  1  -0.66892  0.007614  2.041984  0.01  -0.60435  0.004554  2.29504  0.006  -0.633704  0.002597  2.285258  0.004  -0.35707  -0.583594  0.006317  2.301057  0.008
O  O26  1  0.53590823  0.80781884  0.95916038  1  -0.668771  -0.007624  2.042783  -0.01  -0.604148  -0.004556  2.295846  -0.006  -0.63352  -0.002598  2.286103  -0.004  -0.356894  -0.583391  -0.00632  2.301868  -0.008
O  O27  1  0.96409657  0.19217567  0.95915213  1  -0.668759  -0.007624  2.04273  -0.01  -0.604146  -0.004556  2.29582  -0.006  -0.633511  -0.002597  2.286057  -0.004  -0.356888  -0.583388  -0.006321  2.301842  -0.008
O  O28  1  0.65944611  0.31577144  0.23812232  1  -0.630429  0.059458  2.180388  0.079  -0.588236  0.042163  2.474985  0.061  -0.628111  0.033297  2.463664  0.051  -0.33072  -0.560128  0.047136  2.482109  0.066
O  O29  1  0.84055275  0.68422926  0.23812086  1  -0.630403  0.059457  2.180351  0.079  -0.58822  0.042164  2.474959  0.062  -0.628099  0.033296  2.463639  0.051  -0.330714  -0.560114  0.047139  2.482081  0.066
O  O30  1  0.34056613  0.68427309  0.76192211  1  -0.630567  -0.059478  2.179551  -0.079  -0.588292  -0.042176  2.474036  -0.062  -0.62817  -0.033302  2.462703  -0.051  -0.330733  -0.560192  -0.047152  2.481169  -0.066
O  O31  1  0.15943712  0.31572634  0.76191880  1  -0.630626  -0.059479  2.179518  -0.079  -0.588304  -0.042176  2.473961  -0.062  -0.628184  -0.033302  2.462628  -0.051  -0.330726  -0.560203  -0.047153  2.481091  -0.066
O  O32  1  0.01536345  0.07918640  0.31539965  1  -0.627402  -0.012488  2.038949  -0.016  -0.571601  -0.006308  2.297558  -0.009  -0.601153  -0.003347  2.288116  -0.005  -0.363616  -0.550345  -0.009258  2.303261  -0.012
O  O33  1  0.48463527  0.92081504  0.31539712  1  -0.627394  -0.012486  2.039005  -0.016  -0.57159  -0.006306  2.297606  -0.009  -0.601141  -0.003347  2.28817  -0.005  -0.363607  -0.550333  -0.009258  2.303307  -0.012
O  O34  1  0.98464383  0.92081435  0.68459829  1  -0.627586  0.012475  2.038568  0.016  -0.571787  0.006302  2.297214  0.009  -0.601344  0.003347  2.287772  0.005  -0.363651  -0.550535  0.00925  2.302915  0.012
O  O35  1  0.51535384  0.07918708  0.68459843  1  -0.627532  0.012474  2.038676  0.016  -0.57174  0.006302  2.297328  0.009  -0.601295  0.003347  2.287886  0.005  -0.363601  -0.550485  0.009249  2.303028  0.012
