# generated using pymatgen
data_Zn4H12C58Cl24O13
_symmetry_space_group_name_H-M   'P 1'
_cell_length_a   21.53467171
_cell_length_b   21.53465048
_cell_length_c   34.54927616
_cell_angle_alpha   90.00036187
_cell_angle_beta   89.99961572
_cell_angle_gamma   89.99980337
_symmetry_Int_Tables_number   1
_chemical_formula_structural   Zn4H12C58Cl24O13
_chemical_formula_sum   'Zn8 H24 C116 Cl48 O26'
_cell_volume   16021.93758316
_cell_formula_units_Z   2
loop_
 _symmetry_equiv_pos_site_id
 _symmetry_equiv_pos_as_xyz
  1  'x, y, z'
loop_
 _atom_site_type_symbol
 _atom_site_label
 _atom_site_symmetry_multiplicity
 _atom_site_fract_x
 _atom_site_fract_y
 _atom_site_fract_z
 _atom_site_occupancy
 _atom_site_pbe_bader_charge
 _atom_site_pbe_bader_spin_density
 _atom_site_pbe_cm5_charge
 _atom_site_pbe_ddec_charge
 _atom_site_pbe_ddec_spin_density
 _atom_site_pbe_ddec_sum_bond_order
 _atom_site_pbe_magmom
Zn  Zn0  1  0.55246283  0.55139382  0.03357719  1  1.314023  0  0.675713  0.979482  0  2.338302  0
Zn  Zn1  1  0.44753214  0.55139316  0.96642213  1  1.314096  0  0.67567  0.979507  0  2.337988  0
Zn  Zn2  1  0.44753222  0.44860896  0.03357663  1  1.314113  0  0.675691  0.979534  0  2.338218  0
Zn  Zn3  1  0.55246356  0.44860794  0.96642113  1  1.314154  0  0.675739  0.979562  0  2.337764  0
Zn  Zn4  1  0.44860909  0.44752917  0.46642303  1  1.314044  0  0.675658  0.979494  0  2.338175  0
Zn  Zn5  1  0.44860994  0.55246551  0.53358065  1  1.314167  0  0.675732  0.979551  0  2.337767  0
Zn  Zn6  1  0.55139014  0.55246778  0.46642128  1  1.314043  0  0.675748  0.979569  0  2.338045  0
Zn  Zn7  1  0.55139553  0.44753398  0.53357820  1  1.314151  0  0.675649  0.979481  0  2.337935  0
H  H8  1  0.42153492  0.43832014  0.15190591  1  0.065523  0  0.105722  0.115584  0  1.000182  0
H  H9  1  0.57846072  0.56167827  0.15190699  1  0.06564  0  0.105757  0.115652  0  1.000209  0
H  H10  1  0.56167832  0.57846155  0.34809322  1  0.06569  0  0.105712  0.11556  0  1.000066  0
H  H11  1  0.43832032  0.42153328  0.34809172  1  0.065558  0  0.105716  0.115579  0  1.000199  0
H  H12  1  0.36754984  0.46461225  0.23806649  1  0.020755  0  0.098386  0.098883  0  0.963452  0
H  H13  1  0.38471126  0.39473912  0.21338129  1  0.032323  0  0.099493  0.100899  0  0.969665  0
H  H14  1  0.63245137  0.53538285  0.23806637  1  0.020445  0  0.0984  0.098914  0  0.963341  0
H  H15  1  0.61528836  0.60525387  0.21338151  1  0.032473  0  0.099486  0.100916  0  0.969615  0
H  H16  1  0.53538110  0.63244857  0.26193296  1  0.020364  0  0.098426  0.098958  0  0.963453  0
H  H17  1  0.60525251  0.61528879  0.28661782  1  0.032348  0  0.099505  0.100928  0  0.969635  0
H  H18  1  0.46461753  0.36754306  0.26193288  1  0.020566  0  0.098494  0.09899  0  0.963311  0
H  H19  1  0.39474168  0.38470681  0.28661896  1  0.032212  0  0.099441  0.100836  0  0.969727  0
H  H20  1  0.57846183  0.43832108  0.84809441  1  0.065585  0  0.105739  0.115572  0  1.000237  0
H  H21  1  0.42153700  0.56168207  0.84809382  1  0.065509  0  0.105739  0.115584  0  1.000127  0
H  H22  1  0.43832352  0.57846284  0.65190708  1  0.065741  0  0.105763  0.115626  0  1.000206  0
H  H23  1  0.56168392  0.42153414  0.65190622  1  0.065465  0  0.10571  0.11557  0  1.000157  0
H  H24  1  0.63245471  0.46462049  0.76193480  1  0.020446  0  0.098517  0.098989  0  0.963283  0
H  H25  1  0.61529214  0.39474767  0.78661944  1  0.032388  0  0.099511  0.10087  0  0.969775  0
H  H26  1  0.36755062  0.53537946  0.76193289  1  0.020338  0  0.098439  0.098957  0  0.963385  0
H  H27  1  0.38470874  0.60525392  0.78661773  1  0.032267  0  0.099497  0.100909  0  0.96967  0
H  H28  1  0.46461545  0.63245203  0.73806668  1  0.020699  0  0.098397  0.098939  0  0.963396  0
H  H29  1  0.39474410  0.61528620  0.71338147  1  0.032431  0  0.099517  0.100935  0  0.969593  0
H  H30  1  0.53538735  0.36755139  0.73806774  1  0.020808  0  0.098428  0.098953  0  0.963388  0
H  H31  1  0.60525850  0.38471186  0.71338347  1  0.032447  0  0.099498  0.100923  0  0.96964  0
C  C32  1  0.49999766  0.66433730  0.00000084  1  1.666783  0  0.224578  0.623508  0  4.185786  0
C  C33  1  0.33453566  0.50000007  0.99999924  1  1.585473  0  0.222698  0.623511  0  4.200147  0
C  C34  1  0.49999923  0.50000175  0.10487392  1  1.538782  0  0.228909  0.610831  0  4.148301  0
C  C35  1  0.49999563  0.33566000  0.99999828  1  1.666835  0  0.224609  0.623475  0  4.185693  0
C  C36  1  0.66546320  0.49999862  0.00000075  1  1.585188  0  0.222569  0.62341  0  4.200054  0
C  C37  1  0.49999916  0.50000158  0.89512347  1  1.541012  0  0.228993  0.611288  0  4.147408  0
C  C38  1  0.33566119  0.50000404  0.50000236  1  1.666765  0  0.224557  0.623454  0  4.185792  0
C  C39  1  0.49999636  0.66546918  0.50000061  1  1.585358  0  0.222597  0.623469  0  4.19964  0
C  C40  1  0.49999814  0.49999579  0.39512254  1  1.539721  0  0.229034  0.6111  0  4.148097  0
C  C41  1  0.66433813  0.50000626  0.49999618  1  1.66677  0  0.224485  0.62332  0  4.185731  0
C  C42  1  0.50000204  0.33453369  0.50000256  1  1.585271  0  0.222578  0.623497  0  4.199701  0
C  C43  1  0.50000583  0.49999964  0.60487831  1  1.540962  0  0.229049  0.611199  0  4.147393  0
C  C44  1  0.26469248  0.50000066  0.99999938  1  0.045513  0  -0.016803  -0.114401  0  3.942571  0
C  C45  1  0.23230204  0.44376668  0.99706353  1  0.091305  0  0.012109  0.077131  0  4.028857  0
C  C46  1  0.16710903  0.44385177  0.99720058  1  0.162757  0  0.007525  0.044411  0  4.040278  0
C  C47  1  0.23230441  0.55623665  0.00293670  1  0.091251  0  0.01211  0.077155  0  4.028915  0
C  C48  1  0.16711047  0.55614992  0.00280399  1  0.162642  0  0.007532  0.044382  0  4.04017  0
C  C49  1  0.13432021  0.50000138  0.00000447  1  0.082819  0  -0.024036  -0.025978  0  4.043063  0
C  C50  1  0.06538858  0.50000150  0.00000287  1  0.120058  0  -0.023984  -0.023407  0  4.035223  0
C  C51  1  0.03259812  0.50018477  0.96489175  1  0.046809  0  0.007376  0.049807  0  4.032346  0
C  C52  1  0.03259894  0.49981506  0.03511540  1  0.047387  0  0.007401  0.049927  0  4.031783  0
C  C53  1  0.73530592  0.50000082  0.00000118  1  0.045419  0  -0.016774  -0.114444  0  3.942337  0
C  C54  1  0.76769751  0.55623427  0.99706148  1  0.091303  0  0.012095  0.077234  0  4.028849  0
C  C55  1  0.83289006  0.55614825  0.99719767  1  0.163083  0  0.007529  0.044368  0  4.040253  0
C  C56  1  0.76769377  0.44376397  0.00293826  1  0.091164  0  0.01208  0.077187  0  4.028938  0
C  C57  1  0.83288538  0.44385069  0.00280382  1  0.163177  0  0.007492  0.044402  0  4.040041  0
C  C58  1  0.86567707  0.49999920  0.00000381  1  0.082319  0  -0.023985  -0.025983  0  4.042997  0
C  C59  1  0.93460963  0.49999769  0.00000192  1  0.120095  0  -0.02406  -0.023553  0  4.035317  0
C  C60  1  0.96739796  0.50018634  0.03511576  1  0.227163  0  0.007363  0.049811  0  4.031834  0
C  C61  1  0.96739899  0.49981260  0.96489067  1  0.227476  0  0.007357  0.049838  0  4.032297  0
C  C62  1  0.40533784  0.43172051  0.23114001  1  -0.007633  0  -0.153312  -0.186632  0  3.981458  0
C  C63  1  0.59465927  0.56827313  0.23114075  1  -0.008089  0  -0.153301  -0.186603  0  3.981402  0
C  C64  1  0.56827274  0.59466061  0.26885771  1  0.018674  0  -0.153237  -0.186525  0  3.981326  0
C  C65  1  0.43172397  0.40533481  0.26885734  1  0.018602  0  -0.153304  -0.186603  0  3.981485  0
C  C66  1  0.45563422  0.46518849  0.16815515  1  0.019404  0  -0.088155  -0.162235  0  3.969517  0
C  C67  1  0.45459660  0.46562009  0.20842922  1  -0.01925  0  -0.005217  0.083889  0  3.958502  0
C  C68  1  0.54436171  0.53481055  0.16815510  1  0.019366  0  -0.08826  -0.162359  0  3.969804  0
C  C69  1  0.54540214  0.53437378  0.20842888  1  -0.018766  0  -0.005236  0.083691  0  3.95863  0
C  C70  1  0.53480738  0.54435833  0.33184395  1  0.019808  0  -0.088148  -0.162075  0  3.969354  0
C  C71  1  0.53437434  0.54539785  0.29156815  1  -0.019005  0  -0.005325  0.083534  0  3.958498  0
C  C72  1  0.46518679  0.45563261  0.33184219  1  0.019455  0  -0.088143  -0.162184  0  3.969741  0
C  C73  1  0.46562072  0.45459129  0.29156927  1  -0.019612  0  -0.005284  0.08377  0  3.958752  0
C  C74  1  0.49999947  0.50000104  0.14786845  1  -0.047256  0  -0.022554  -0.031965  0  4.027633  0
C  C75  1  0.50000043  0.49999495  0.22878852  1  0.02688  0  -0.003536  -0.018434  0  3.935279  0
C  C76  1  0.49999930  0.49999650  0.35213062  1  -0.047513  0  -0.022679  -0.032267  0  4.027725  0
C  C77  1  0.50000020  0.49999656  0.27120967  1  -0.114832  0  -0.003464  -0.018329  0  3.935187  0
C  C78  1  0.59466497  0.43172895  0.76886058  1  0.018921  0  -0.15345  -0.186604  0  3.981509  0
C  C79  1  0.40533703  0.56827293  0.76885922  1  0.019193  0  -0.153319  -0.186615  0  3.981418  0
C  C80  1  0.43172487  0.59466133  0.73114149  1  -0.007824  0  -0.153278  -0.186626  0  3.98142  0
C  C81  1  0.56827894  0.40533924  0.73114286  1  -0.008212  0  -0.153235  -0.186602  0  3.981394  0
C  C82  1  0.54436244  0.46518845  0.83184470  1  0.019379  0  -0.08818  -0.16209  0  3.969742  0
C  C83  1  0.54540562  0.46562429  0.79157121  1  -0.019546  0  -0.005231  0.083736  0  3.958718  0
C  C84  1  0.45563749  0.53481592  0.83184213  1  0.019464  0  -0.088063  -0.161986  0  3.969951  0
C  C85  1  0.45459614  0.53437875  0.79156951  1  -0.019486  0  -0.005215  0.083836  0  3.95884  0
C  C86  1  0.46519086  0.54436387  0.66815795  1  0.019291  0  -0.088215  -0.162207  0  3.969874  0
C  C87  1  0.46562436  0.54540612  0.70842999  1  -0.019593  0  -0.005233  0.083755  0  3.958855  0
C  C88  1  0.53481734  0.45563605  0.66815763  1  0.019059  0  -0.088128  -0.162129  0  3.969902  0
C  C89  1  0.53438062  0.45459747  0.70843256  1  -0.019121  0  -0.005245  0.083798  0  3.958808  0
C  C90  1  0.49999939  0.50000275  0.85212836  1  -0.047241  0  -0.022747  -0.032457  0  4.02784  0
C  C91  1  0.50000215  0.50000234  0.77121118  1  0.026937  0  -0.003572  -0.018606  0  3.935412  0
C  C92  1  0.50000792  0.49999847  0.64787256  1  -0.046667  0  -0.02262  -0.032296  0  4.027518  0
C  C93  1  0.50000331  0.50000120  0.72879032  1  -0.114898  0  -0.003497  -0.018372  0  3.935253  0
C  C94  1  0.49999482  0.26558085  0.99999959  1  0.141592  0  -0.018044  -0.113462  0  3.929425  0
C  C95  1  0.50358266  0.23293321  0.03504877  1  0.14718  0  0.012731  0.077646  0  4.022999  0
C  C96  1  0.50347829  0.16766166  0.03499885  1  0.062181  0  0.008238  0.045135  0  4.035698  0
C  C97  1  0.49641804  0.23293004  0.96495075  1  0.147442  0  0.012617  0.077391  0  4.023086  0
C  C98  1  0.49652867  0.16765756  0.96500214  1  0.062295  0  0.008199  0.045199  0  4.035684  0
C  C99  1  0.50000321  0.13467929  0.00000096  1  0.120933  0  -0.023549  -0.025232  0  4.0365  0
C  C100  1  0.50000287  0.06558925  0.00000285  1  0.070599  0  -0.023716  -0.024691  0  4.030936  0
C  C101  1  0.55625148  0.03262085  0.99991015  1  0.004524  0  0.007682  0.050745  0  4.031249  0
C  C102  1  0.44375410  0.03262294  0.00009726  1  0.185674  0  0.00756  0.05045  0  4.031506  0
C  C103  1  0.49999615  0.73441645  0.00000156  1  0.14161  0  -0.018018  -0.113632  0  3.929637  0
C  C104  1  0.50357628  0.76706825  0.96495237  1  0.147431  0  0.012623  0.077542  0  4.023154  0
C  C105  1  0.50347122  0.83233841  0.96500286  1  0.063217  0  0.008233  0.045138  0  4.035871  0
C  C106  1  0.49641284  0.76706634  0.03504954  1  0.14732  0  0.012704  0.077649  0  4.023017  0
C  C107  1  0.49652186  0.83233789  0.03499902  1  0.062377  0  0.008204  0.045032  0  4.035802  0
C  C108  1  0.49999964  0.86531943  0.00000095  1  0.120273  0  -0.023508  -0.025114  0  4.036453  0
C  C109  1  0.50000230  0.93441134  0.00000224  1  0.070599  0  -0.023792  -0.024797  0  4.030964  0
C  C110  1  0.44375176  0.96737919  0.99990991  1  0.003829  0  0.007629  0.05061  0  4.031438  0
C  C111  1  0.55625061  0.96737764  0.00009655  1  0.185357  0  0.007556  0.050505  0  4.031474  0
C  C112  1  0.49999996  0.73530732  0.50000104  1  0.045487  0  -0.016734  -0.114334  0  3.942583  0
C  C113  1  0.55623524  0.76769736  0.50293881  1  0.091301  0  0.012059  0.077137  0  4.02884  0
C  C114  1  0.55614737  0.83289090  0.50280320  1  0.162444  0  0.007448  0.044318  0  4.040336  0
C  C115  1  0.44376363  0.76769567  0.49706570  1  0.091261  0  0.012048  0.076992  0  4.028915  0
C  C116  1  0.44384664  0.83288781  0.49720129  1  0.162804  0  0.007503  0.044485  0  4.0399  0
C  C117  1  0.49999787  0.86567767  0.50000071  1  0.082668  0  -0.023928  -0.025996  0  4.042847  0
C  C118  1  0.49999497  0.93460891  0.49999969  1  0.120127  0  -0.024042  -0.023547  0  4.035258  0
C  C119  1  0.49981223  0.96739671  0.53511395  1  0.227412  0  0.00729  0.049826  0  4.032038  0
C  C120  1  0.50018271  0.96740007  0.46488874  1  0.227277  0  0.007358  0.049845  0  4.032218  0
C  C121  1  0.50000169  0.26469323  0.50000300  1  0.045297  0  -0.016785  -0.114457  0  3.942621  0
C  C122  1  0.44376498  0.23230461  0.50293944  1  0.091304  0  0.012097  0.077186  0  4.028838  0
C  C123  1  0.44385100  0.16711107  0.50280501  1  0.162718  0  0.007498  0.044278  0  4.040327  0
C  C124  1  0.55623109  0.23230113  0.49706673  1  0.091787  0  0.012134  0.077255  0  4.028688  0
C  C125  1  0.55614761  0.16710667  0.49720437  1  0.162813  0  0.007549  0.044369  0  4.040204  0
C  C126  1  0.49999820  0.13431962  0.50000420  1  0.082784  0  -0.024099  -0.02598  0  4.043188  0
C  C127  1  0.49999693  0.06538746  0.50000117  1  0.120259  0  -0.02405  -0.023539  0  4.035438  0
C  C128  1  0.49981003  0.03259827  0.46488980  1  0.046385  0  0.007388  0.049808  0  4.032415  0
C  C129  1  0.50018672  0.03259676  0.53511385  1  0.047444  0  0.007425  0.049905  0  4.032148  0
C  C130  1  0.73441768  0.50000753  0.49999632  1  0.141263  0  -0.017974  -0.113514  0  3.929373  0
C  C131  1  0.76706383  0.49642563  0.46494370  1  0.147417  0  0.012619  0.077711  0  4.022556  0
C  C132  1  0.83233624  0.49652814  0.46499653  1  0.063228  0  0.008319  0.045253  0  4.035452  0
C  C133  1  0.76706576  0.50358143  0.53504591  1  0.147414  0  0.012541  0.077416  0  4.023234  0
C  C134  1  0.83233911  0.50347080  0.53499309  1  0.063421  0  0.008328  0.0452  0  4.035626  0
C  C135  1  0.86531868  0.49999756  0.49999518  1  0.119524  0  -0.023497  -0.025398  0  4.036738  0
C  C136  1  0.93441144  0.49999372  0.49999503  1  0.070624  0  -0.02367  -0.02454  0  4.030597  0
C  C137  1  0.96737791  0.44374432  0.50008863  1  0.185161  0  0.007621  0.05061  0  4.031487  0
C  C138  1  0.96737725  0.55624301  0.49990188  1  0.185796  0  0.007561  0.050553  0  4.031362  0
C  C139  1  0.26558258  0.50000416  0.50000048  1  0.14162  0  -0.018022  -0.113465  0  3.929608  0
C  C140  1  0.23293133  0.49642876  0.53504817  1  0.147429  0  0.012525  0.077388  0  4.023029  0
C  C141  1  0.16766031  0.49652917  0.53499765  1  0.062806  0  0.008246  0.045179  0  4.035831  0
C  C142  1  0.23293494  0.50358199  0.46495091  1  0.146947  0  0.012704  0.077623  0  4.022821  0
C  C143  1  0.16766346  0.50347576  0.46500054  1  0.063057  0  0.008231  0.045151  0  4.035792  0
C  C144  1  0.13468297  0.49999602  0.49999815  1  0.119574  0  -0.023455  -0.025277  0  4.03659  0
C  C145  1  0.06559160  0.49999428  0.49999685  1  0.070568  0  -0.023638  -0.024522  0  4.030527  0
C  C146  1  0.03262142  0.55624137  0.50008849  1  0.003908  0  0.007297  0.050191  0  4.031456  0
C  C147  1  0.03262115  0.44374778  0.49990361  1  0.004385  0  0.007665  0.050733  0  4.031348  0
Cl  Cl148  1  0.27249433  0.62474433  0.00753569  1  -0.16273  0  0.007969  -0.034542  0  1.526798  0
Cl  Cl149  1  0.12664722  0.62467584  0.00595160  1  -0.162962  0  0.003097  -0.043048  0  1.545785  0
Cl  Cl150  1  0.27249504  0.37525885  0.99246351  1  -0.162635  0  0.007992  -0.034512  0  1.526738  0
Cl  Cl151  1  0.12664604  0.37532598  0.99405864  1  -0.162742  0  0.003056  -0.043105  0  1.545888  0
Cl  Cl152  1  0.07298624  0.50092886  0.92204475  1  -0.167017  0  0.004196  -0.038328  0  1.541473  0
Cl  Cl153  1  0.92701412  0.49907085  0.92204267  1  -0.166861  0  0.00418  -0.038344  0  1.541335  0
Cl  Cl154  1  0.07298196  0.49907593  0.07796339  1  -0.166864  0  0.004127  -0.038418  0  1.541108  0
Cl  Cl155  1  0.92700983  0.50092312  0.07796334  1  -0.166608  0  0.004169  -0.038313  0  1.541178  0
Cl  Cl156  1  0.87335000  0.37532387  0.00595099  1  -0.162994  0  0.003067  -0.043123  0  1.545703  0
Cl  Cl157  1  0.72750843  0.37525587  0.00753541  1  -0.162716  0  0.008  -0.034532  0  1.526897  0
Cl  Cl158  1  0.87335307  0.62467446  0.99405323  1  -0.163  0  0.003031  -0.043123  0  1.54582  0
Cl  Cl159  1  0.72750874  0.62474111  0.99246131  1  -0.162599  0  0.008011  -0.034511  0  1.526819  0
Cl  Cl160  1  0.49008423  0.27289751  0.92209900  1  -0.161395  0  0.007559  -0.036437  0  1.528964  0
Cl  Cl161  1  0.49238264  0.12726431  0.92221565  1  -0.16703  0  0.002958  -0.043009  0  1.545585  0
Cl  Cl162  1  0.50992052  0.27290992  0.07789749  1  -0.161142  0  0.007519  -0.036519  0  1.529083  0
Cl  Cl163  1  0.50762633  0.12727672  0.07778664  1  -0.166992  0  0.002946  -0.042969  0  1.545643  0
Cl  Cl164  1  0.62504744  0.07290975  0.99953295  1  -0.161095  0  0.004511  -0.037867  0  1.541534  0
Cl  Cl165  1  0.62504485  0.92708711  0.00047375  1  -0.160917  0  0.004517  -0.037811  0  1.541595  0
Cl  Cl166  1  0.37496078  0.07291487  0.00047520  1  -0.161123  0  0.004527  -0.037796  0  1.541716  0
Cl  Cl167  1  0.37495579  0.92709261  0.99953370  1  -0.161433  0  0.004507  -0.037826  0  1.541709  0
Cl  Cl168  1  0.49237011  0.87272651  0.07778669  1  -0.167078  0  0.002958  -0.042934  0  1.545593  0
Cl  Cl169  1  0.49007546  0.72709099  0.07789900  1  -0.161434  0  0.007534  -0.036477  0  1.528925  0
Cl  Cl170  1  0.50761679  0.87272844  0.92221592  1  -0.167331  0  0.002909  -0.043024  0  1.545599  0
Cl  Cl171  1  0.50991241  0.72709942  0.92210044  1  -0.161252  0  0.007553  -0.036459  0  1.529003  0
Cl  Cl172  1  0.37525838  0.72750147  0.49247175  1  -0.162774  0  0.00798  -0.034478  0  1.526886  0
Cl  Cl173  1  0.37531849  0.87334829  0.49405615  1  -0.162721  0  0.003145  -0.043044  0  1.54575  0
Cl  Cl174  1  0.62474295  0.72750716  0.50753666  1  -0.162662  0  0.008013  -0.034493  0  1.526732  0
Cl  Cl175  1  0.62467305  0.87335581  0.50594531  1  -0.162724  0  0.003075  -0.043061  0  1.545864  0
Cl  Cl176  1  0.49907697  0.92701132  0.57795992  1  -0.166871  0  0.004216  -0.038292  0  1.541323  0
Cl  Cl177  1  0.50092894  0.07298631  0.57795940  1  -0.166841  0  0.004208  -0.038326  0  1.541359  0
Cl  Cl178  1  0.50092135  0.92701377  0.42204059  1  -0.166804  0  0.004156  -0.03837  0  1.541284  0
Cl  Cl179  1  0.49907185  0.07298738  0.42204267  1  -0.166758  0  0.004174  -0.038331  0  1.541346  0
Cl  Cl180  1  0.62467393  0.12664245  0.49405676  1  -0.162832  0  0.00307  -0.043087  0  1.545831  0
Cl  Cl181  1  0.62474381  0.27248925  0.49247264  1  -0.162932  0  0.007998  -0.03451  0  1.526656  0
Cl  Cl182  1  0.37532528  0.12664619  0.50594841  1  -0.163017  0  0.003112  -0.04301  0  1.545824  0
Cl  Cl183  1  0.37525676  0.27249393  0.50754295  1  -0.162666  0  0.007998  -0.034514  0  1.526802  0
Cl  Cl184  1  0.72709881  0.50991569  0.57789784  1  -0.161193  0  0.007549  -0.036428  0  1.529044  0
Cl  Cl185  1  0.87273326  0.50761357  0.57778060  1  -0.167255  0  0.002908  -0.043002  0  1.545449  0
Cl  Cl186  1  0.72708807  0.49009661  0.42209483  1  -0.161373  0  0.007552  -0.036526  0  1.528826  0
Cl  Cl187  1  0.87272716  0.49238198  0.42220828  1  -0.167367  0  0.002871  -0.043069  0  1.545429  0
Cl  Cl188  1  0.92708997  0.37494829  0.50046630  1  -0.161011  0  0.004515  -0.037817  0  1.541569  0
Cl  Cl189  1  0.07291303  0.37495254  0.49953088  1  -0.160927  0  0.004461  -0.03793  0  1.541484  0
Cl  Cl190  1  0.92708397  0.62503454  0.49952611  1  -0.16096  0  0.004577  -0.037793  0  1.541758  0
Cl  Cl191  1  0.07290656  0.62503879  0.50046308  1  -0.161376  0  0.004577  -0.037755  0  1.541719  0
Cl  Cl192  1  0.12728275  0.50762010  0.42221131  1  -0.167056  0  0.002949  -0.042958  0  1.545639  0
Cl  Cl193  1  0.27291395  0.50991568  0.42210132  1  -0.16106  0  0.007536  -0.03652  0  1.528855  0
Cl  Cl194  1  0.12726755  0.49238126  0.57778415  1  -0.166926  0  0.002983  -0.042953  0  1.545689  0
Cl  Cl195  1  0.27289643  0.49009911  0.57790281  1  -0.161343  0  0.007516  -0.036462  0  1.528781  0
O  O196  1  0.49999887  0.50000076  0.00000110  1  -1.221841  0  -0.575472  -1.035468  0  2.524279  0
O  O197  1  0.54705662  0.63839771  0.01515615  1  -1.159247  0  -0.308138  -0.537355  0  2.329007  0
O  O198  1  0.36036436  0.52345603  0.97039861  1  -1.158435  0  -0.307491  -0.533154  0  2.322288  0
O  O199  1  0.47000637  0.45635578  0.08800436  1  -1.169807  0  -0.318923  -0.552044  0  2.336817  0
O  O200  1  0.45293945  0.63840000  0.98484439  1  -1.158711  0  -0.308097  -0.537306  0  2.329087  0
O  O201  1  0.52999181  0.54364755  0.08800528  1  -1.169914  0  -0.318885  -0.551984  0  2.336775  0
O  O202  1  0.36036997  0.47654500  0.02959588  1  -1.158397  0  -0.307376  -0.533049  0  2.32266  0
O  O203  1  0.45293725  0.36160071  0.01515782  1  -1.158797  0  -0.308168  -0.537413  0  2.328982  0
O  O204  1  0.63963315  0.47654696  0.97040285  1  -1.158413  0  -0.307393  -0.533034  0  2.322536  0
O  O205  1  0.54705095  0.36159711  0.98484133  1  -1.159106  0  -0.308115  -0.537297  0  2.329025  0
O  O206  1  0.63962513  0.52346007  0.02959800  1  -1.158141  0  -0.307334  -0.533051  0  2.322276  0
O  O207  1  0.47001340  0.54365508  0.91199228  1  -1.171061  0  -0.318901  -0.552187  0  2.336438  0
O  O208  1  0.52998289  0.45634964  0.91199082  1  -1.170817  0  -0.318946  -0.552184  0  2.336467  0
O  O209  1  0.50000082  0.49999772  0.49999942  1  -1.221891  0  -0.575447  -1.035424  0  2.52408  0
O  O210  1  0.36160417  0.45294395  0.48484531  1  -1.159165  0  -0.308102  -0.537368  0  2.328949  0
O  O211  1  0.47654662  0.63963333  0.52960267  1  -1.158372  0  -0.307406  -0.533103  0  2.321928  0
O  O212  1  0.54364017  0.52999351  0.41199204  1  -1.170682  0  -0.318953  -0.552043  0  2.336573  0
O  O213  1  0.36160013  0.54706079  0.51515988  1  -1.158905  0  -0.308121  -0.537337  0  2.329067  0
O  O214  1  0.45635499  0.46999686  0.41199153  1  -1.169954  0  -0.318896  -0.552114  0  2.336622  0
O  O215  1  0.52345455  0.63963109  0.47040192  1  -1.158125  0  -0.307405  -0.53313  0  2.3223  0
O  O216  1  0.63839671  0.54706480  0.48484029  1  -1.158996  0  -0.308026  -0.537179  0  2.328885  0
O  O217  1  0.52345610  0.36036844  0.52960290  1  -1.158389  0  -0.307391  -0.533138  0  2.321996  0
O  O218  1  0.63840275  0.45294595  0.51515623  1  -1.15902  0  -0.308123  -0.537359  0  2.328997  0
O  O219  1  0.47654092  0.36036822  0.47040407  1  -1.15814  0  -0.307332  -0.533013  0  2.32238  0
O  O220  1  0.45635487  0.52998805  0.58800980  1  -1.170649  0  -0.319046  -0.552148  0  2.336278  0
O  O221  1  0.54365698  0.47001153  0.58800921  1  -1.171126  0  -0.318949  -0.552184  0  2.336522  0
