# generated using pymatgen
data_NiH14C15N10O3
_symmetry_space_group_name_H-M   'P 1'
_cell_length_a   8.64880312
_cell_length_b   10.76250811
_cell_length_c   11.03582965
_cell_angle_alpha   82.88013625
_cell_angle_beta   69.76226258
_cell_angle_gamma   72.73925699
_symmetry_Int_Tables_number   1
_chemical_formula_structural   NiH14C15N10O3
_chemical_formula_sum   'Ni2 H28 C30 N20 O6'
_cell_volume   920.16250293
_cell_formula_units_Z   2
loop_
 _symmetry_equiv_pos_site_id
 _symmetry_equiv_pos_as_xyz
  1  'x, y, z'
loop_
 _atom_site_type_symbol
 _atom_site_label
 _atom_site_symmetry_multiplicity
 _atom_site_fract_x
 _atom_site_fract_y
 _atom_site_fract_z
 _atom_site_occupancy
 _atom_site_hle17_ddec_charge
 _atom_site_hle17_ddec_spin_density
 _atom_site_hle17_ddec_sum_bond_order
 _atom_site_hle17_magmom
 _atom_site_hse06_10hf_ddec_charge
 _atom_site_hse06_10hf_ddec_spin_density
 _atom_site_hse06_10hf_ddec_sum_bond_order
 _atom_site_hse06_10hf_magmom
 _atom_site_hse06_ddec_charge
 _atom_site_hse06_ddec_spin_density
 _atom_site_hse06_ddec_sum_bond_order
 _atom_site_hse06_magmom
 _atom_site_pbe_cm5_charge
 _atom_site_pbe_ddec_charge
 _atom_site_pbe_ddec_spin_density
 _atom_site_pbe_ddec_sum_bond_order
 _atom_site_pbe_magmom
Ni  Ni0  1  0.39272504  0.25712644  0.29496542  1  0.835331  -1.776281  2.176397  -1.522  0.825355  -1.815987  2.577791  -1.618  0.904574  -1.871083  2.51026  -1.702  0.690699  0.768682  -1.766627  2.626168  -1.544
Ni  Ni1  1  0.60727488  0.74287199  0.70503435  1  0.835215  -1.77627  2.176443  -1.522  0.82523  -1.815986  2.577856  -1.618  0.904506  -1.871081  2.51022  -1.702  0.690665  0.768556  -1.766596  2.626188  -1.544
H  H2  1  0.14575221  0.17662933  0.58002442  1  0.076499  7.8e-05  1.001392  -0.001  0.077771  3e-06  1.081911  0.0  0.079757  4.5e-05  1.079128  0.0  0.126578  0.076368  -4.2e-05  1.083929  0.0
H  H3  1  0.85424599  0.82337398  0.41997343  1  0.076514  7.7e-05  1.001351  -0.001  0.077795  3e-06  1.081851  0.0  0.079782  4.5e-05  1.079068  0.0  0.126602  0.076396  -4.2e-05  1.083865  0.0
H  H4  1  0.80315108  0.14454125  0.39667785  1  0.112009  -0.00027  0.970578  0.0  0.119947  -0.000282  1.034949  0.0  0.121503  -0.000182  1.035397  0.0  0.11988  0.118872  -0.000381  1.034673  -0.001
H  H5  1  0.19684364  0.85546498  0.60332242  1  0.112012  -0.00027  0.970459  0.0  0.119894  -0.000282  1.034912  0.0  0.121449  -0.000182  1.035361  0.0  0.119858  0.118817  -0.000381  1.034635  -0.001
H  H6  1  0.08813174  0.20171891  0.21251360  1  0.117059  -4.3e-05  0.975739  -0.001  0.122083  -0.00013  1.038662  -0.001  0.124532  -6.6e-05  1.037553  0.0  0.117468  0.120381  -0.000203  1.039551  -0.001
H  H7  1  0.91186501  0.79828149  0.78748500  1  0.117047  -4.3e-05  0.975737  -0.001  0.122054  -0.00013  1.03869  -0.001  0.124505  -6.6e-05  1.037575  0.0  0.117438  0.120352  -0.000203  1.039578  -0.001
H  H8  1  0.47929375  0.52458866  0.13447310  1  0.09211  5e-05  0.970898  -0.001  0.092585  -1.6e-05  1.0478  0.0  0.095346  2.3e-05  1.04404  0.0  0.12667  0.090552  -4.1e-05  1.050548  0.0
H  H9  1  0.52070898  0.47540879  0.86552602  1  0.092082  4.8e-05  0.97087  -0.001  0.092549  -1.6e-05  1.047795  0.0  0.09531  2.3e-05  1.044035  0.0  0.126636  0.090508  -4.1e-05  1.050544  0.0
H  H10  1  0.94541176  0.69999132  0.24873385  1  0.102263  -0.000465  0.981568  -0.001  0.107131  -0.000393  1.051885  0.0  0.10947  -0.000283  1.051568  0.0  0.11441  0.105545  -0.000512  1.052115  -0.001
H  H11  1  0.05459009  0.30000516  0.75126744  1  0.10227  -0.000466  0.981558  -0.001  0.107124  -0.000393  1.051882  0.0  0.109473  -0.000283  1.051557  0.0  0.114413  0.105538  -0.000512  1.052117  -0.001
H  H12  1  0.00758757  0.44512775  0.34752186  1  0.095125  -9.5e-05  0.996123  0.0  0.101049  -0.00022  1.063057  -0.001  0.102473  -0.000141  1.064259  0.0  0.110217  0.099976  -0.000297  1.062521  -0.001
H  H13  1  0.99241486  0.55487066  0.65248176  1  0.095154  -9.6e-05  0.996152  0.0  0.101087  -0.00022  1.063068  -0.001  0.102511  -0.000141  1.064271  0.0  0.110235  0.100017  -0.000297  1.062528  -0.001
H  H14  1  0.28175622  0.52370163  0.45019807  1  0.105056  -9.2e-05  0.960246  0.0  0.112822  -0.000239  1.019196  0.0  0.115072  -0.000153  1.018617  0.0  0.115757  0.111246  -0.000316  1.019744  -0.001
H  H15  1  0.71824583  0.47629777  0.54980100  1  0.105049  -9.3e-05  0.960231  0.0  0.112807  -0.000239  1.019193  0.0  0.115057  -0.000153  1.018614  0.0  0.115729  0.111231  -0.000316  1.019741  -0.001
H  H16  1  0.30579554  0.52527588  0.69427305  1  0.106137  -0.000209  0.984862  0.0  0.113984  -0.000255  1.048922  0.0  0.115316  -0.000154  1.049423  0.0  0.120074  0.113083  -0.000338  1.048568  -0.001
H  H17  1  0.69420809  0.47472253  0.30572571  1  0.106136  -0.000208  0.984871  0.0  0.113988  -0.000255  1.048924  0.0  0.11532  -0.000154  1.049427  0.0  0.12007  0.113089  -0.000338  1.048575  -0.001
H  H18  1  0.47467264  0.13691030  0.56709059  1  0.094044  -6.9e-05  0.980516  -0.001  0.099722  -0.000122  1.049374  0.0  0.101884  -1.9e-05  1.046541  0.0  0.127771  0.098168  -0.000241  1.051483  0.0
H  H19  1  0.52533132  0.86308715  0.43290728  1  0.094016  -7e-05  0.980573  -0.001  0.099701  -0.000122  1.04941  0.0  0.101861  -1.9e-05  1.04658  0.0  0.127781  0.098148  -0.000241  1.051517  0.0
H  H20  1  0.86640285  0.12760158  0.61015558  1  0.307894  -0.000499  0.848559  -0.001  0.299997  -0.000459  0.889961  -0.001  0.305983  -0.000325  0.886591  0.0  0.341631  0.295732  -0.000589  0.89255  -0.001
H  H21  1  0.13359434  0.87240465  0.38984400  1  0.307757  -0.0005  0.848728  -0.001  0.299933  -0.000459  0.89004  -0.001  0.305918  -0.000325  0.886672  0.0  0.341584  0.295671  -0.000589  0.892626  -0.001
H  H22  1  0.23793741  0.73264027  0.12628638  1  0.301365  -0.000368  0.942018  -0.001  0.280665  -0.000289  1.004153  -0.001  0.289282  -0.000217  0.997405  0.0  0.306  0.274665  -0.000358  1.008884  -0.001
H  H23  1  0.76206003  0.26735818  0.87371317  1  0.301451  -0.000367  0.942008  -0.001  0.280746  -0.000289  1.004135  -0.001  0.289363  -0.000217  0.997386  0.0  0.306036  0.274746  -0.000358  1.008865  -0.001
H  H24  1  0.40524205  0.28977814  0.75580437  1  0.311311  -0.000561  0.875956  -0.001  0.297503  -0.000512  0.925819  -0.001  0.304405  -0.000368  0.921017  -0.001  0.328798  0.292557  -0.000568  0.929452  -0.001
H  H25  1  0.59476315  0.71021930  0.24419407  1  0.311283  -0.000561  0.875969  -0.001  0.297477  -0.000512  0.925829  -0.001  0.304378  -0.000368  0.921029  -0.001  0.328794  0.292531  -0.000568  0.92946  -0.001
H  H26  1  0.36188797  0.25983457  0.05570877  1  0.411993  0.00024  0.884388  0.0  0.384291  -0.000336  0.946346  0.0  0.395132  -0.000161  0.930761  0.0  0.288278  0.376634  -0.000437  0.95725  -0.001
H  H27  1  0.63810826  0.74016388  0.94429383  1  0.412063  0.00024  0.884327  0.0  0.384365  -0.000335  0.946253  0.0  0.395205  -0.000161  0.930668  0.0  0.288332  0.376706  -0.000437  0.95716  -0.001
H  H28  1  0.53437822  0.15912613  0.06163207  1  0.413229  0.000498  0.885067  0.001  0.383508  -0.000103  0.948941  0.0  0.39409  5.8e-05  0.933773  0.0  0.288438  0.376057  -0.000254  0.959567  0.0
H  H29  1  0.46562116  0.84087036  0.93836900  1  0.41321  0.000498  0.885111  0.001  0.383494  -0.000103  0.948963  0.0  0.394075  5.8e-05  0.933796  0.0  0.288441  0.37604  -0.000254  0.95959  0.0
C  C30  1  0.67788757  0.01264240  0.26422842  1  0.473235  -0.014332  3.934686  -0.019  0.448596  -0.013962  4.22266  -0.019  0.475831  -0.011821  4.234123  -0.016  0.29916  0.429403  -0.016292  4.215507  -0.022
C  C31  1  0.32210853  0.98735994  0.73577284  1  0.473274  -0.014335  3.934312  -0.019  0.448648  -0.013964  4.222281  -0.019  0.475883  -0.011822  4.233748  -0.016  0.299172  0.429448  -0.016295  4.215129  -0.022
C  C32  1  0.92700851  0.98015200  0.09269103  1  0.094263  -0.000273  3.757147  -0.001  0.078688  -0.001843  4.033976  -0.003  0.088973  -0.00136  4.047928  -0.002  0.123722  0.07144  -0.002505  4.024718  -0.004
C  C33  1  0.07298655  0.01985327  0.90730835  1  0.094104  -0.000273  3.757019  -0.001  0.078559  -0.001845  4.033822  -0.003  0.088843  -0.001359  4.047773  -0.002  0.123673  0.071313  -0.002506  4.024558  -0.004
C  C34  1  0.11061151  0.94471898  0.01968974  1  0.266251  -0.000694  3.870561  -0.001  0.238025  -0.000225  4.157051  0.0  0.251721  -7.2e-05  4.167508  0.0  0.120075  0.228803  -0.000465  4.150226  0.0
C  C35  1  0.88937950  0.05528727  0.98031154  1  0.266316  -0.000693  3.870286  -0.001  0.23803  -0.000225  4.156875  0.0  0.251724  -7.2e-05  4.167329  0.0  0.120088  0.228802  -0.000465  4.150054  0.0
C  C36  1  0.75676858  0.31060039  0.14771293  1  0.465756  0.020406  3.954392  0.009  0.439977  0.005885  4.243989  -0.001  0.468735  0.007097  4.253782  0.001  0.29771  0.419771  0.005503  4.238084  -0.002
C  C37  1  0.24324244  0.68939799  0.85228288  1  0.465638  0.020417  3.954828  0.009  0.439868  0.005885  4.244397  -0.001  0.468623  0.007094  4.254191  0.001  0.297659  0.419651  0.005504  4.238481  -0.002
C  C38  1  0.95991628  0.41790456  0.03862963  1  0.071851  0.008069  3.798434  0.005  0.057529  0.003996  4.071872  0.002  0.06771  0.003378  4.086488  0.002  0.115036  0.049862  0.005111  4.062759  0.003
C  C39  1  0.04008739  0.58209385  0.96137365  1  0.071844  0.008074  3.798614  0.005  0.057547  0.003998  4.072027  0.002  0.06773  0.003378  4.086642  0.002  0.114997  0.049894  0.005111  4.062888  0.003
C  C40  1  0.12752008  0.44328395  0.97440049  1  0.2582  -0.000276  3.883668  -0.001  0.235872  0.000128  4.165806  0.0  0.249632  0.000104  4.17614  0.0  0.111427  0.226726  1.7e-05  4.15886  0.0
C  C41  1  0.87248517  0.55671348  0.02560337  1  0.258175  -0.000275  3.883807  -0.001  0.235863  0.000126  4.165922  0.0  0.249623  0.000105  4.176257  0.0  0.111473  0.226721  1.7e-05  4.158964  0.0
C  C42  1  0.09419905  0.17861055  0.50332701  1  0.205861  0.013543  3.682672  0.008  0.150095  0.004791  3.96294  0.002  0.1655  0.005518  3.975558  0.003  0.13649  0.139695  0.004484  3.95428  0.002
C  C43  1  0.90579950  0.82139178  0.49667176  1  0.205912  0.013521  3.682708  0.008  0.150138  0.004792  3.963004  0.002  0.165542  0.005516  3.975627  0.003  0.136452  0.139727  0.004484  3.954351  0.002
C  C44  1  0.91647804  0.16031389  0.40595186  1  -0.02793  -0.00385  3.70201  -0.005  -0.067892  -0.001603  3.970382  -0.002  -0.066612  -0.001454  3.989836  -0.002  -0.00737  -0.068444  -0.001871  3.956907  -0.002
C  C45  1  0.08351770  0.83968942  0.59404757  1  -0.027876  -0.003826  3.701797  -0.005  -0.067784  -0.001603  3.970196  -0.002  -0.066504  -0.001453  3.989652  -0.002  -0.007351  -0.068335  -0.001871  3.95672  -0.002
C  C46  1  0.05835983  0.18912542  0.31610021  1  -0.005397  0.003738  3.712668  0.002  -0.033188  0.000939  3.980752  0.0  -0.030894  0.001644  4.001569  0.001  -0.005132  -0.03478  0.000463  3.966437  0.0
C  C47  1  0.94163694  0.81087498  0.68390020  1  -0.005336  0.003695  3.712639  0.002  -0.033121  0.00094  3.98071  0.0  -0.030829  0.001642  4.00153  0.001  -0.005075  -0.034716  0.000464  3.966387  0.0
C  C48  1  0.34328052  0.53462576  0.18006251  1  0.204363  0.013002  3.643239  0.007  0.151442  0.004237  3.918997  0.002  0.166278  0.005096  3.931766  0.003  0.133151  0.141695  0.003913  3.909829  0.001
C  C49  1  0.65672310  0.46537265  0.81993624  1  0.204396  0.012997  3.643305  0.007  0.15148  0.004237  3.91907  0.002  0.166315  0.005095  3.931842  0.003  0.133216  0.141731  0.003913  3.909909  0.001
C  C50  1  0.06323022  0.62509232  0.24271012  1  -0.026946  -0.003786  3.729873  -0.005  -0.065889  -0.001609  3.998953  -0.002  -0.065944  -0.001442  4.020554  -0.002  -0.010158  -0.065665  -0.001912  3.984512  -0.002
C  C51  1  0.93677219  0.37490610  0.75729078  1  -0.026955  -0.00378  3.729843  -0.005  -0.065883  -0.001609  3.998929  -0.002  -0.065948  -0.001441  4.020522  -0.002  -0.010168  -0.065657  -0.001912  3.984496  -0.002
C  C52  1  0.09625760  0.49882115  0.28914148  1  -0.02731  0.004668  3.766028  0.002  -0.056945  0.001526  4.039169  0.001  -0.055059  0.002323  4.062182  0.001  -0.013173  -0.058576  0.00099  4.023991  0.0
C  C53  1  0.90374605  0.50117726  0.71085999  1  -0.027408  0.00466  3.76601  0.002  -0.057039  0.001525  4.039144  0.001  -0.055155  0.002322  4.062162  0.001  -0.013203  -0.058678  0.00099  4.023972  0.0
C  C54  1  0.32429990  0.44335880  0.51092336  1  -0.007433  0.005065  3.733286  0.003  -0.031706  0.001803  3.997747  0.001  -0.029019  0.002548  4.017663  0.002  -0.001459  -0.033928  0.00133  3.984463  0.0
C  C55  1  0.67570216  0.55664059  0.48907661  1  -0.007464  0.005076  3.73333  0.003  -0.031723  0.001804  3.997785  0.001  -0.029037  0.002548  4.017705  0.002  -0.001467  -0.033948  0.00133  3.9845  0.0
C  C56  1  0.33388932  0.44585828  0.63204244  1  -0.003757  -0.004065  3.698674  -0.005  -0.040078  -0.001667  3.960197  -0.002  -0.038351  -0.00155  3.9793  -0.002  0.002993  -0.041136  -0.001903  3.947196  -0.002
C  C57  1  0.66611150  0.55414112  0.36795788  1  -0.003809  -0.00407  3.69868  -0.005  -0.040136  -0.001667  3.960218  -0.002  -0.038408  -0.001549  3.979318  -0.002  0.002993  -0.041196  -0.001903  3.947229  -0.002
C  C58  1  0.42587054  0.24216160  0.56641263  1  0.184667  0.013054  3.665826  0.007  0.133063  0.00424  3.94135  0.002  0.146838  0.005134  3.95538  0.003  0.129311  0.123825  0.003888  3.931392  0.001
C  C59  1  0.57413116  0.75783877  0.43358552  1  0.184766  0.013062  3.66581  0.007  0.133166  0.00424  3.941335  0.002  0.146944  0.005133  3.955365  0.003  0.12932  0.123923  0.003887  3.931372  0.001
N  N60  1  0.53306608  0.06223788  0.32392043  1  -0.560263  -0.016926  2.793992  -0.028  -0.54455  -0.01296  3.07119  -0.02  -0.570627  -0.007194  3.074804  -0.014  -0.380003  -0.526948  -0.018393  3.069759  -0.025
N  N61  1  0.46693542  0.93775958  0.67607902  1  -0.560261  -0.016924  2.793771  -0.028  -0.544542  -0.012959  3.070969  -0.02  -0.570628  -0.007192  3.074578  -0.014  -0.379985  -0.526933  -0.018394  3.069519  -0.025
N  N62  1  0.83940046  0.95468545  0.21358299  1  -0.395567  -0.005856  3.217604  -0.008  -0.357355  -0.003472  3.490493  -0.004  -0.378906  -0.002235  3.498861  -0.003  -0.318476  -0.342473  -0.00498  3.484801  -0.006
N  N63  1  0.16059162  0.04532470  0.78641301  1  -0.395524  -0.005859  3.217368  -0.008  -0.357338  -0.003469  3.490265  -0.004  -0.378891  -0.002237  3.498635  -0.003  -0.31843  -0.342455  -0.00498  3.484569  -0.006
N  N64  1  0.62079750  0.29644699  0.20834344  1  -0.568526  -0.042777  2.982433  -0.066  -0.547313  -0.030366  3.280527  -0.046  -0.575951  -0.026064  3.284221  -0.041  -0.38072  -0.527984  -0.03424  3.278866  -0.05
N  N65  1  0.37919883  0.70354758  0.79165598  1  -0.568328  -0.042778  2.983012  -0.066  -0.547106  -0.030361  3.281077  -0.046  -0.575739  -0.026059  3.28474  -0.041  -0.380656  -0.527771  -0.034239  3.279386  -0.05
N  N66  1  0.91482649  0.31011038  0.08611285  1  -0.38771  0.000756  3.249156  -0.002  -0.349782  0.001473  3.521052  0.0  -0.372276  0.001643  3.530653  0.0  -0.317275  -0.334527  0.001208  3.51509  -0.001
N  N67  1  0.08517470  0.68988805  0.91388929  1  -0.387658  0.000755  3.249048  -0.002  -0.349747  0.00147  3.520939  0.0  -0.372239  0.001643  3.530541  0.0  -0.317227  -0.334496  0.001208  3.514968  -0.001
N  N68  1  0.16701227  0.20161051  0.37830490  1  -0.333345  -0.052255  3.271294  -0.083  -0.293864  -0.034164  3.568643  -0.055  -0.322084  -0.026612  3.588385  -0.046  -0.343823  -0.273541  -0.040969  3.554398  -0.063
N  N69  1  0.83298854  0.79838889  0.62169451  1  -0.333331  -0.052247  3.27135  -0.083  -0.293838  -0.034166  3.568691  -0.055  -0.322066  -0.026612  3.58843  -0.046  -0.3438  -0.27351  -0.040975  3.55444  -0.063
N  N70  1  0.94182340  0.15422245  0.52369664  1  -0.285974  -0.000172  3.48841  -0.001  -0.224299  -0.000277  3.729162  -0.001  -0.238758  -7.2e-05  3.742553  -0.001  -0.384666  -0.214648  -0.000477  3.72018  -0.001
N  N71  1  0.05817200  0.84578184  0.47630367  1  -0.285992  -0.000171  3.48862  -0.001  -0.224391  -0.000277  3.729383  -0.001  -0.238849  -7.2e-05  3.742774  -0.001  -0.38465  -0.214747  -0.000477  3.720411  -0.001
N  N72  1  0.27102024  0.44323261  0.24917041  1  -0.346547  -0.061073  3.308016  -0.097  -0.30907  -0.039424  3.609679  -0.064  -0.338682  -0.030367  3.630909  -0.052  -0.352014  -0.287667  -0.047353  3.594355  -0.073
N  N73  1  0.72898533  0.55676385  0.75083077  1  -0.34643  -0.061067  3.307926  -0.097  -0.30898  -0.039423  3.609619  -0.064  -0.338599  -0.030366  3.630844  -0.052  -0.352036  -0.287568  -0.047356  3.594278  -0.073
N  N74  1  0.22042807  0.64597705  0.17496045  1  -0.288252  -0.000522  3.47096  -0.002  -0.220307  -0.000471  3.705381  -0.001  -0.236513  -0.00019  3.720759  -0.001  -0.383152  -0.209267  -0.000737  3.69472  -0.002
N  N75  1  0.77957308  0.35402138  0.82503898  1  -0.288352  -0.000525  3.471114  -0.002  -0.22038  -0.000471  3.705514  -0.001  -0.236587  -0.00019  3.720889  -0.001  -0.383169  -0.209343  -0.000737  3.694859  -0.002
N  N76  1  0.38133762  0.31620867  0.47116058  1  -0.341738  -0.05636  3.29878  -0.09  -0.306234  -0.037086  3.602247  -0.061  -0.335327  -0.028745  3.624274  -0.05  -0.343446  -0.285168  -0.044706  3.586493  -0.07
N  N77  1  0.61866530  0.68379170  0.52883542  1  -0.341712  -0.056365  3.298827  -0.09  -0.306217  -0.037088  3.602294  -0.061  -0.335321  -0.028745  3.624317  -0.05  -0.343398  -0.285142  -0.044711  3.586522  -0.07
N  N78  1  0.39803485  0.31834163  0.66571243  1  -0.287202  4.2e-05  3.471968  -0.001  -0.223352  -0.000279  3.711402  -0.001  -0.238522  -1.8e-05  3.72611  -0.001  -0.381923  -0.213105  -0.00056  3.701343  -0.001
N  N79  1  0.60196686  0.68165875  0.33428662  1  -0.287167  4.3e-05  3.471866  -0.001  -0.223323  -0.000278  3.711314  -0.001  -0.238494  -1.9e-05  3.726021  -0.001  -0.381932  -0.213077  -0.00056  3.701255  -0.001
O  O80  1  0.24405423  0.87935936  0.04336251  1  -0.501866  -0.001124  2.066869  -0.002  -0.449174  -0.000572  2.274501  -0.001  -0.468464  -0.000283  2.269072  0.0  -0.290718  -0.436382  -0.000965  2.278502  -0.001
O  O81  1  0.75593777  0.12064398  0.95663433  1  -0.50192  -0.001126  2.066779  -0.002  -0.449206  -0.000572  2.274443  -0.001  -0.468491  -0.000283  2.269008  0.0  -0.29074  -0.436407  -0.000965  2.278443  -0.001
O  O82  1  0.28153804  0.37718116  0.94294091  1  -0.525642  -0.000523  2.013135  -0.001  -0.475936  -0.000385  2.224052  -0.001  -0.49432  -0.000192  2.218122  0.0  -0.30667  -0.463238  -0.000666  2.227932  -0.001
O  O83  1  0.71846753  0.62281530  0.05706117  1  -0.525602  -0.000523  2.013283  -0.001  -0.475898  -0.000385  2.224184  -0.001  -0.494282  -0.000192  2.218255  0.0  -0.306671  -0.463199  -0.000666  2.228058  -0.001
O  O84  1  0.41123797  0.19208306  0.11177717  1  -0.784475  -0.039391  1.93481  -0.065  -0.754789  -0.029319  2.117765  -0.049  -0.783757  -0.02179  2.086269  -0.038  -0.571594  -0.732276  -0.036716  2.139093  -0.058
O  O85  1  0.58875896  0.80791345  0.88822638  1  -0.784549  -0.039386  1.934843  -0.065  -0.754866  -0.029317  2.117752  -0.049  -0.783842  -0.021789  2.086252  -0.038  -0.571664  -0.73236  -0.036717  2.139082  -0.058
