# generated using pymatgen
data_Al2H7C22ClO10
_symmetry_space_group_name_H-M   'P 1'
_cell_length_a   6.69717729
_cell_length_b   20.51521505
_cell_length_c   22.87871113
_cell_angle_alpha   93.10442190
_cell_angle_beta   90.74275438
_cell_angle_gamma   90.21067491
_symmetry_Int_Tables_number   1
_chemical_formula_structural   Al2H7C22ClO10
_chemical_formula_sum   'Al4 H14 C44 Cl2 O20'
_cell_volume   3138.49149810
_cell_formula_units_Z   2
loop_
 _symmetry_equiv_pos_site_id
 _symmetry_equiv_pos_as_xyz
  1  'x, y, z'
loop_
 _atom_site_type_symbol
 _atom_site_label
 _atom_site_symmetry_multiplicity
 _atom_site_fract_x
 _atom_site_fract_y
 _atom_site_fract_z
 _atom_site_occupancy
 _atom_site_pbe_bader_charge
 _atom_site_pbe_bader_spin_density
 _atom_site_pbe_cm5_charge
 _atom_site_pbe_ddec_charge
 _atom_site_pbe_ddec_spin_density
 _atom_site_pbe_ddec_sum_bond_order
 _atom_site_pbe_magmom
Al  Al0  1  0.87327434  0.48870153  0.49249185  1  2.500739  0  0.406527  1.647608  0  2.574983  0
Al  Al1  1  0.37382858  0.48855464  0.49240874  1  2.502769  0  0.406471  1.646962  0  2.577307  0
Al  Al2  1  0.34677666  0.02019641  0.01757950  1  2.503489  0  0.406569  1.650607  0  2.574011  0
Al  Al3  1  0.84617388  0.02045564  0.01770149  1  2.505628  0  0.407032  1.650587  0  2.574241  0
H  H4  1  0.41874478  0.32032619  0.73762670  1  0.107687  0  0.115931  0.135348  0  0.979524  0
H  H5  1  0.81853341  0.26039745  0.68758156  1  0.090664  0  0.114357  0.121766  0  0.978143  0
H  H6  1  0.81010808  0.18842580  0.77186425  1  0.09707  0  0.107645  0.114386  0  0.999577  0
H  H7  1  0.30625975  0.76958301  0.19132393  1  0.101118  0  0.115704  0.13471  0  0.979028  0
H  H8  1  0.90490633  0.82631431  0.24611793  1  0.072144  0  0.114623  0.122263  0  0.978359  0
H  H9  1  0.90630469  0.73856024  0.31728634  1  0.083222  0  0.108061  0.114066  0  0.998286  0
H  H10  1  0.29537976  0.70826764  0.71003710  1  0.071767  0  0.110673  0.112086  0  0.996547  0
H  H11  1  0.28136649  0.79417750  0.79164901  1  0.059269  0  0.109123  0.110339  0  1.001846  0
H  H12  1  0.92413363  0.80050928  0.79952142  1  0.083308  0  0.110206  0.111688  0  0.997158  0
H  H13  1  0.93816314  0.71470921  0.71782222  1  0.075685  0  0.109626  0.110825  0  1.000363  0
H  H14  1  0.62228395  0.40367606  0.47787895  1  0.606163  0  0.361863  0.443931  0  0.833373  0
H  H15  1  0.12386894  0.57049160  0.47632801  1  0.626448  0  0.358849  0.43958  0  0.840587  0
H  H16  1  0.59671042  0.10580031  0.01371091  1  0.607611  0  0.363463  0.445957  0  0.829164  0
H  H17  1  0.09513489  0.93483023  0.01991030  1  0.604413  0  0.361925  0.443771  0  0.832758  0
C  C18  1  0.62038168  0.56695715  0.41647261  1  1.668944  0  0.276146  0.719405  0  4.154249  0
C  C19  1  0.62854635  0.56869960  0.57343944  1  1.657984  0  0.276531  0.715674  0  4.163445  0
C  C20  1  0.12668622  0.41379134  0.56990519  1  1.68717  0  0.278228  0.716941  0  4.160043  0
C  C21  1  0.11838757  0.40725177  0.41095230  1  1.686918  0  0.274719  0.701837  0  4.180782  0
C  C22  1  0.11613082  0.36067705  0.36149452  1  0.201207  0  -0.001107  -0.137438  0  3.826188  0
C  C23  1  0.11416089  0.31980553  0.32029795  1  -0.280892  0  -0.007154  0.029069  0  4.255481  0
C  C24  1  0.11196369  0.27483706  0.27547647  1  0.04456  0  0.001057  -0.002241  0  4.186561  0
C  C25  1  0.10979260  0.23319789  0.23446703  1  -0.078931  0  0.002537  0.000265  0  4.185799  0
C  C26  1  0.10733233  0.18821988  0.18965272  1  -0.15037  0  -0.007161  0.02697  0  4.252959  0
C  C27  1  0.10482284  0.14733174  0.14848017  1  0.077244  0  0.002976  -0.130957  0  3.819357  0
C  C28  1  0.28583380  0.29129863  0.74490910  1  0.046311  0  -0.081336  -0.189979  0  3.919711  0
C  C29  1  0.11947764  0.29478216  0.70679555  1  0.082204  0  0.009874  0.151398  0  4.102899  0
C  C30  1  0.94726005  0.25729348  0.71690218  1  0.025826  0  -0.077672  -0.126135  0  3.947215  0
C  C31  1  0.94266054  0.21724401  0.76369167  1  -0.005426  0  -0.07414  -0.097884  0  3.959055  0
C  C32  1  0.10752025  0.21328312  0.80246315  1  0.103041  0  0.00033  0.06867  0  4.082955  0
C  C33  1  0.27908849  0.25148492  0.79210000  1  0.049468  0  0.025486  0.114481  0  4.022122  0
C  C34  1  0.12484781  0.33595353  0.65914085  1  -0.356856  0  -0.019483  -0.032434  0  4.073939  0
C  C35  1  0.10019401  0.17246978  0.85013258  1  -0.508305  0  -0.025596  -0.024286  0  4.111178  0
C  C36  1  0.09399083  0.13714218  0.89119742  1  0.274963  0  -0.030065  -0.179292  0  3.928208  0
C  C37  1  0.12684593  0.37144531  0.61815670  1  0.080282  0  -0.029915  -0.18035  0  3.934704  0
C  C38  1  0.43743727  0.76292023  0.21894255  1  0.060647  0  -0.081287  -0.190057  0  3.92067  0
C  C39  1  0.60518304  0.80397375  0.21429585  1  0.059228  0  0.009149  0.151354  0  4.104354  0
C  C40  1  0.77507768  0.79479557  0.25005758  1  0.00425  0  -0.077784  -0.126154  0  3.948802  0
C  C41  1  0.77584762  0.74607424  0.28961969  1  0.000487  0  -0.074123  -0.097295  0  3.961076  0
C  C42  1  0.60942661  0.70439441  0.29482302  1  0.154449  0  0.000284  0.069056  0  4.086397  0
C  C43  1  0.44042353  0.71367903  0.25830748  1  0.047648  0  0.025448  0.114475  0  4.023898  0
C  C44  1  0.60275994  0.85337323  0.17347015  1  -0.397496  0  -0.019894  -0.032664  0  4.078728  0
C  C45  1  0.61305910  0.65543964  0.33581869  1  -0.513701  0  -0.026294  -0.025569  0  4.115811  0
C  C46  1  0.61845619  0.61401059  0.37198250  1  0.250508  0  -0.031168  -0.179672  0  3.931831  0
C  C47  1  0.60119885  0.89548165  0.13792663  1  0.140515  0  -0.031804  -0.182767  0  3.941348  0
C  C48  1  0.42424930  0.77642165  0.77520350  1  -0.018455  0  -0.073877  -0.113839  0  3.949232  0
C  C49  1  0.60187384  0.80274974  0.80083114  1  0.129372  0  0.007906  0.133742  0  4.099966  0
C  C50  1  0.78754153  0.78000007  0.77959318  1  -0.034314  0  -0.07341  -0.11332  0  3.945287  0
C  C51  1  0.79529078  0.73240796  0.73431922  1  -0.040991  0  -0.074021  -0.113118  0  3.946026  0
C  C52  1  0.61762952  0.70598765  0.70877001  1  0.141274  0  0.008869  0.13408  0  4.098028  0
C  C53  1  0.43197684  0.72879588  0.72994706  1  -0.004247  0  -0.073188  -0.112408  0  3.944176  0
C  C54  1  0.59487833  0.85090002  0.84741243  1  -0.509094  0  -0.021813  -0.036557  0  4.088786  0
C  C55  1  0.62470055  0.65757864  0.66239814  1  -0.362741  0  -0.021887  -0.037317  0  4.086473  0
C  C56  1  0.62860318  0.61614836  0.62222778  1  0.099573  0  -0.03247  -0.182743  0  3.943738  0
C  C57  1  0.59123338  0.89201382  0.88784787  1  0.197275  0  -0.035078  -0.185577  0  3.948365  0
C  C58  1  0.59110429  0.93919577  0.93683103  1  1.691523  0  0.274307  0.715621  0  4.163745  0
C  C59  1  0.60028939  0.94281547  0.09363925  1  1.697745  0  0.276398  0.716898  0  4.161453  0
C  C60  1  0.10247736  0.10072487  0.09900823  1  1.691352  0  0.276821  0.70019  0  4.180764  0
C  C61  1  0.09278773  0.09556289  0.93995580  1  1.652393  0  0.278052  0.720784  0  4.151091  0
Cl  Cl62  1  0.48190871  0.24920499  0.83910259  1  -0.190512  0  0.013438  -0.060943  0  1.493303  0
Cl  Cl63  1  0.23601786  0.66292580  0.26236782  1  -0.189979  0  0.014681  -0.059218  0  1.493206  0
O  O64  1  0.45778737  0.55088996  0.55311821  1  -1.229063  0  -0.226476  -0.579004  0  2.287989  0
O  O65  1  0.79150521  0.54969234  0.43507141  1  -1.237487  0  -0.230176  -0.59045  0  2.278991  0
O  O66  1  0.94856206  0.42571737  0.42992027  1  -1.23338  0  -0.226819  -0.581315  0  2.279689  0
O  O67  1  0.79810409  0.54990369  0.55464123  1  -1.232713  0  -0.227041  -0.57877  0  2.281832  0
O  O68  1  0.95625717  0.42957353  0.54996026  1  -1.234831  0  -0.225722  -0.578768  0  2.285729  0
O  O69  1  0.45034666  0.54807936  0.43360495  1  -1.232342  0  -0.228914  -0.587101  0  2.279042  0
O  O70  1  0.62312917  0.44958077  0.49028227  1  -1.404839  0  -0.446213  -0.99892  0  2.19547  0
O  O71  1  0.29630082  0.43093418  0.55140216  1  -1.233584  0  -0.225126  -0.576421  0  2.283979  0
O  O72  1  0.29001273  0.42446995  0.43109866  1  -1.225068  0  -0.226804  -0.582386  0  2.280871  0
O  O73  1  0.12404051  0.52743351  0.49183086  1  -1.425819  0  -0.445866  -0.995636  0  2.190931  0
O  O74  1  0.77019732  0.96231154  0.07712108  1  -1.230323  0  -0.227262  -0.58155  0  2.280491  0
O  O75  1  0.42111462  0.95829019  0.95519251  1  -1.236178  0  -0.230282  -0.585371  0  2.280539  0
O  O76  1  0.26309877  0.08042282  0.96060330  1  -1.226909  0  -0.227717  -0.586028  0  2.280061  0
O  O77  1  0.42965600  0.95962378  0.07448938  1  -1.236204  0  -0.227633  -0.583966  0  2.283535  0
O  O78  1  0.27208253  0.08170885  0.08052958  1  -1.227842  0  -0.223433  -0.572579  0  2.283512  0
O  O79  1  0.76194438  0.95644016  0.95761437  1  -1.242938  0  -0.230402  -0.587754  0  2.285685  0
O  O80  1  0.59678190  0.05920471  0.01860336  1  -1.405257  0  -0.445515  -1.000785  0  2.197803  0
O  O81  1  0.93113065  0.08412817  0.07841731  1  -1.227633  0  -0.224622  -0.574825  0  2.28173  0
O  O82  1  0.92263521  0.07834370  0.95819827  1  -1.234761  0  -0.228055  -0.584068  0  2.277648  0
O  O83  1  0.09586247  0.98172978  0.01692545  1  -1.404078  0  -0.446079  -1.001477  0  2.203555  0
