# generated using pymatgen
data_CdH16C12(NO)6
_symmetry_space_group_name_H-M   'P 1'
_cell_length_a   8.31710731
_cell_length_b   9.26955975
_cell_length_c   11.39225621
_cell_angle_alpha   89.99984230
_cell_angle_beta   90.00005086
_cell_angle_gamma   114.46512722
_symmetry_Int_Tables_number   1
_chemical_formula_structural   CdH16C12(NO)6
_chemical_formula_sum   'Cd2 H32 C24 N12 O12'
_cell_volume   799.43734231
_cell_formula_units_Z   2
loop_
 _symmetry_equiv_pos_site_id
 _symmetry_equiv_pos_as_xyz
  1  'x, y, z'
loop_
 _atom_site_type_symbol
 _atom_site_label
 _atom_site_symmetry_multiplicity
 _atom_site_fract_x
 _atom_site_fract_y
 _atom_site_fract_z
 _atom_site_occupancy
 _atom_site_hle17_bader_spin_density
 _atom_site_hle17_ddec_charge
 _atom_site_hle17_ddec_spin_density
 _atom_site_hle17_ddec_sum_bond_order
 _atom_site_hle17_magmom
 _atom_site_hse06_10hf_bader_spin_density
 _atom_site_hse06_10hf_ddec_charge
 _atom_site_hse06_10hf_ddec_spin_density
 _atom_site_hse06_10hf_ddec_sum_bond_order
 _atom_site_hse06_10hf_magmom
 _atom_site_hse06_bader_spin_density
 _atom_site_hse06_ddec_charge
 _atom_site_hse06_ddec_spin_density
 _atom_site_hse06_ddec_sum_bond_order
 _atom_site_hse06_magmom
 _atom_site_pbe_bader_spin_density
 _atom_site_pbe_cm5_charge
 _atom_site_pbe_ddec_charge
 _atom_site_pbe_ddec_spin_density
 _atom_site_pbe_ddec_sum_bond_order
 _atom_site_pbe_magmom
Cd  Cd0  1  0.50000070  0.50000072  0.00000136  1  0  1.149968  0  1.708395  0  0  0.965068  0  2.16411  0  0  1.016321  0  2.111894  0  0  0.777777  0.9284  0  2.200264  0
Cd  Cd1  1  0.00000022  0.50000145  0.49999873  1  0  1.149986  0  1.708352  0  0  0.965096  0  2.164067  0  0  1.016348  0  2.111852  0  0  0.777807  0.928429  0  2.200224  0
H  H2  1  0.59903233  0.65844576  0.28109830  1  0  0.107902  0  0.946485  0  0  0.117034  0  1.010925  0  0  0.118554  0  1.009395  0  0  0.142502  0.115775  0  1.012213  0
H  H3  1  0.90097137  0.34155694  0.78109453  1  0  0.107877  0  0.946332  0  0  0.116963  0  1.010855  0  0  0.118481  0  1.00933  0  0  0.142466  0.115705  0  1.012145  0
H  H4  1  0.40097114  0.34155630  0.71890475  1  0  0.107861  0  0.946345  0  0  0.116944  0  1.010869  0  0  0.118462  0  1.009343  0  0  0.142465  0.115687  0  1.01216  0
H  H5  1  0.09903330  0.65844513  0.21889974  1  0  0.10792  0  0.946493  0  0  0.117059  0  1.010924  0  0  0.118578  0  1.009396  0  0  0.142518  0.1158  0  1.012213  0
H  H6  1  0.54700208  0.06731461  0.15732013  1  0  0.119381  0  0.915563  0  0  0.128997  0  0.975226  0  0  0.132143  0  0.97145  0  0  0.146904  0.12616  0  0.978938  0
H  H7  1  0.95299054  0.93268255  0.65731858  1  0  0.119444  0  0.91554  0  0  0.129014  0  0.975239  0  0  0.132163  0  0.971461  0  0  0.146933  0.126176  0  0.978956  0
H  H8  1  0.45299682  0.93268270  0.84268029  1  0  0.119365  0  0.915605  0  0  0.129047  0  0.975191  0  0  0.132191  0  0.971416  0  0  0.146942  0.12621  0  0.978904  0
H  H9  1  0.04700408  0.06731590  0.34267745  1  0  0.119387  0  0.915572  0  0  0.129004  0  0.975239  0  0  0.132151  0  0.971455  0  0  0.146908  0.126167  0  0.978952  0
H  H10  1  0.77080100  0.65575011  0.83529235  1  0  0.411701  0  0.897876  0  0  0.37538  0  0.970532  0  0  0.387049  0  0.953697  0  0  0.282063  0.367118  0  0.982424  0
H  H11  1  0.72919918  0.34425002  0.33529165  1  0  0.411691  0  0.897894  0  0  0.375394  0  0.970513  0  0  0.387059  0  0.953683  0  0  0.282087  0.367133  0  0.982403  0
H  H12  1  0.22919910  0.34424720  0.16470982  1  0  0.411678  0  0.897907  0  0  0.37536  0  0.970561  0  0  0.387027  0  0.953727  0  0  0.282044  0.367096  0  0.982454  0
H  H13  1  0.27079825  0.65575200  0.66470877  1  0  0.411697  0  0.897889  0  0  0.375364  0  0.970566  0  0  0.387031  0  0.953733  0  0  0.282055  0.367102  0  0.982457  0
H  H14  1  0.36880328  0.84163028  0.44795434  1  0  0.078208  0  0.946414  0  0  0.093818  0  1.009812  0  0  0.094303  0  1.011302  0  0  0.092877  0.093366  0  1.008819  0
H  H15  1  0.13119732  0.15837267  0.94795168  1  0  0.078229  0  0.946362  0  0  0.093816  0  1.009802  0  0  0.094301  0  1.011291  0  0  0.092875  0.093365  0  1.008805  0
H  H16  1  0.63119924  0.15836705  0.55204783  1  0  0.078189  0  0.946352  0  0  0.0938  0  1.009763  0  0  0.094285  0  1.011252  0  0  0.092862  0.093351  0  1.008768  0
H  H17  1  0.86880294  0.84163291  0.05204434  1  0  0.078162  0  0.94633  0  0  0.093779  0  1.009752  0  0  0.094263  0  1.011243  0  0  0.092837  0.093326  0  1.008763  0
H  H18  1  0.42139325  0.03172639  0.38631076  1  0  0.070369  0  0.937765  0  0  0.086613  0  1.000825  0  0  0.087323  0  1.001763  0  0  0.090683  0.085967  0  1.000371  0
H  H19  1  0.07860978  0.96827680  0.88630713  1  0  0.070366  0  0.937771  0  0  0.086598  0  1.000863  0  0  0.087309  0  1.0018  0  0  0.090658  0.08595  0  1.000409  0
H  H20  1  0.57860457  0.96826854  0.61369229  1  0  0.070358  0  0.937824  0  0  0.086618  0  1.000878  0  0  0.08733  0  1.001815  0  0  0.090675  0.085974  0  1.000425  0
H  H21  1  0.92139343  0.03172999  0.11369065  1  0  0.070354  0  0.937836  0  0  0.086597  0  1.0009  0  0  0.087309  0  1.001837  0  0  0.090673  0.085951  0  1.000448  0
H  H22  1  0.73827438  0.07572871  0.36824855  1  0  0.093076  0  0.963654  0  0  0.105851  0  1.027842  0  0  0.107529  0  1.026346  0  0  0.109132  0.104352  0  1.029377  0
H  H23  1  0.76172458  0.92427129  0.86824777  1  0  0.093069  0  0.963642  0  0  0.105848  0  1.027836  0  0  0.107526  0  1.026339  0  0  0.109127  0.104354  0  1.029374  0
H  H24  1  0.26172306  0.92427331  0.63175187  1  0  0.093087  0  0.963609  0  0  0.105871  0  1.027793  0  0  0.107548  0  1.026298  0  0  0.109132  0.104379  0  1.029331  0
H  H25  1  0.23827714  0.07572957  0.13174914  1  0  0.09311  0  0.963667  0  0  0.10587  0  1.02786  0  0  0.107549  0  1.02636  0  0  0.109121  0.104364  0  1.029388  0
H  H26  1  0.68715983  0.88343852  0.42580339  1  0  0.076376  0  0.9349  0  0  0.088037  0  1.004794  0  0  0.088098  0  1.006227  0  0  0.109165  0.087733  0  1.004024  0
H  H27  1  0.81284313  0.11656485  0.92580095  1  0  0.076363  0  0.934721  0  0  0.08802  0  1.004637  0  0  0.088084  0  1.006062  0  0  0.109146  0.087722  0  1.00387  0
H  H28  1  0.31284645  0.11656710  0.57419791  1  0  0.076379  0  0.934811  0  0  0.088033  0  1.004741  0  0  0.088106  0  1.006145  0  0  0.109161  0.087736  0  1.003976  0
H  H29  1  0.18715605  0.88343836  0.07419420  1  0  0.076383  0  0.934887  0  0  0.088025  0  1.004783  0  0  0.08809  0  1.006204  0  0  0.109167  0.087718  0  1.004008  0
H  H30  1  0.59226289  0.65459552  0.77543058  1  0  0.414867  0  0.893638  0  0  0.378242  0  0.966297  0  0  0.390084  0  0.949258  0  0  0.281915  0.36972  0  0.978628  0
H  H31  1  0.90773557  0.34540362  0.27542736  1  0  0.414879  0  0.893604  0  0  0.378274  0  0.966232  0  0  0.390118  0  0.94919  0  0  0.281944  0.369751  0  0.978564  0
H  H32  1  0.40773575  0.34540650  0.22457510  1  0  0.414847  0  0.893648  0  0  0.378249  0  0.966257  0  0  0.390092  0  0.949218  0  0  0.281925  0.369726  0  0.978589  0
H  H33  1  0.09226146  0.65459485  0.72457218  1  0  0.414847  0  0.893659  0  0  0.378225  0  0.966313  0  0  0.39007  0  0.94927  0  0  0.281913  0.369701  0  0.978646  0
C  C34  1  0.57123986  0.74005010  0.22534015  1  0  0.163185  0  3.656005  0  0  0.097274  0  3.925686  0  0  0.111102  0  3.939147  0  0  0.15799  0.088303  0  3.916482  0
C  C35  1  0.92875983  0.25994923  0.72533570  1  0  0.163159  0  3.655872  0  0  0.097276  0  3.925581  0  0  0.111104  0  3.939044  0  0  0.158  0.088303  0  3.916375  0
C  C36  1  0.42876078  0.25994840  0.77466290  1  0  0.163224  0  3.655747  0  0  0.097362  0  3.925437  0  0  0.111188  0  3.938901  0  0  0.15802  0.088386  0  3.916235  0
C  C37  1  0.07124015  0.74005044  0.27465769  1  0  0.163145  0  3.655961  0  0  0.09724  0  3.925642  0  0  0.111069  0  3.939104  0  0  0.157986  0.088268  0  3.916441  0
C  C38  1  0.54438329  0.94934855  0.16170194  1  0  0.131929  0  3.642976  0  0  0.073402  0  3.924024  0  0  0.084522  0  3.935018  0  0  0.151907  0.066346  0  3.916721  0
C  C39  1  0.95561402  0.05065099  0.66169974  1  0  0.131791  0  3.643266  0  0  0.073309  0  3.924305  0  0  0.084425  0  3.935308  0  0  0.151849  0.066252  0  3.916999  0
C  C40  1  0.45561682  0.05064876  0.83829848  1  0  0.131822  0  3.643052  0  0  0.073247  0  3.924109  0  0  0.084368  0  3.9351  0  0  0.151825  0.066192  0  3.916802  0
C  C41  1  0.04438288  0.94934984  0.33829541  1  0  0.131948  0  3.642926  0  0  0.073429  0  3.923963  0  0  0.084554  0  3.934955  0  0  0.151901  0.066373  0  3.916662  0
C  C42  1  0.88775685  0.50274429  0.04040963  1  0  0.178168  0  3.925099  0  0  0.155587  0  4.213167  0  0  0.168484  0  4.225899  0  0  0.084226  0.146929  0  4.204098  0
C  C43  1  0.61225419  0.49725931  0.54041410  1  0  0.178336  0  3.925065  0  0  0.155776  0  4.213109  0  0  0.168667  0  4.225849  0  0  0.084301  0.147118  0  4.20404  0
C  C44  1  0.11224243  0.49724593  0.95959078  1  0  0.178099  0  3.92533  0  0  0.155524  0  4.21338  0  0  0.168421  0  4.226113  0  0  0.084208  0.146865  0  4.20431  0
C  C45  1  0.38774702  0.50275100  0.45959158  1  0  0.178162  0  3.92533  0  0  0.155587  0  4.213393  0  0  0.168479  0  4.226137  0  0  0.084231  0.146931  0  4.204321  0
C  C46  1  0.98286032  0.56244503  0.92850058  1  0  0.169769  0  3.88176  0  0  0.146451  0  4.159643  0  0  0.158138  0  4.172855  0  0  0.088199  0.138469  0  4.150398  0
C  C47  1  0.51713780  0.43754766  0.42849864  1  0  0.16958  0  3.881951  0  0  0.146293  0  4.159842  0  0  0.157976  0  4.173064  0  0  0.088208  0.138315  0  4.15059  0
C  C48  1  0.01713668  0.43754281  0.07150159  1  0  0.169782  0  3.881643  0  0  0.146458  0  4.159563  0  0  0.158145  0  4.172773  0  0  0.088202  0.138477  0  4.150316  0
C  C49  1  0.48286233  0.56246028  0.57150704  1  0  0.16976  0  3.881722  0  0  0.146421  0  4.159639  0  0  0.1581  0  4.172866  0  0  0.088191  0.13844  0  4.15039  0
C  C50  1  0.47404444  0.96185004  0.43949850  1  0  -0.119156  0  3.657229  0  0  -0.155721  0  3.911802  0  0  -0.157733  0  3.926429  0  0  -0.165071  -0.154177  0  3.901595  0
C  C51  1  0.02595508  0.03815057  0.93949429  1  0  -0.11917  0  3.657195  0  0  -0.155755  0  3.911848  0  0  -0.157765  0  3.926472  0  0  -0.165031  -0.154201  0  3.901642  0
C  C52  1  0.52595633  0.03814609  0.56050455  1  0  -0.119079  0  3.657202  0  0  -0.155701  0  3.911853  0  0  -0.157714  0  3.92648  0  0  -0.165041  -0.154159  0  3.901664  0
C  C53  1  0.97404452  0.96185619  0.06050174  1  0  -0.11903  0  3.657226  0  0  -0.155627  0  3.911841  0  0  -0.15764  0  3.92647  0  0  -0.165024  -0.154097  0  3.901628  0
C  C54  1  0.63333600  0.95550378  0.37691920  1  0  -0.011833  0  3.618523  0  0  -0.076073  0  3.879103  0  0  -0.072215  0  3.890915  0  0  -0.058133  -0.078399  0  3.870788  0
C  C55  1  0.86666416  0.04449620  0.87691608  1  0  -0.011797  0  3.618356  0  0  -0.076022  0  3.87894  0  0  -0.072166  0  3.890758  0  0  -0.058143  -0.078383  0  3.870668  0
C  C56  1  0.36666505  0.04449827  0.62308121  1  0  -0.011859  0  3.618362  0  0  -0.076105  0  3.878965  0  0  -0.072245  0  3.890778  0  0  -0.058155  -0.078469  0  3.870705  0
C  C57  1  0.13333569  0.95550584  0.12307907  1  0  -0.011895  0  3.618652  0  0  -0.076079  0  3.879195  0  0  -0.072221  0  3.891015  0  0  -0.058114  -0.078379  0  3.870848  0
N  N58  1  0.58771788  0.88597390  0.25921475  1  0  -0.088228  0  3.536163  0  0  0.006718  0  3.762348  0  0  -0.00956  0  3.786477  0  0  -0.232203  0.017483  0  3.745593  0
N  N59  1  0.91228233  0.11402650  0.75921238  1  0  -0.088175  0  3.536221  0  0  0.006793  0  3.762359  0  0  -0.009485  0  3.78649  0  0  -0.232151  0.017567  0  3.745608  0
N  N60  1  0.41228451  0.11402579  0.74078567  1  0  -0.088118  0  3.536047  0  0  0.006829  0  3.762231  0  0  -0.009449  0  3.786359  0  0  -0.232158  0.017605  0  3.745481  0
N  N61  1  0.08771818  0.88597436  0.24078189  1  0  -0.088259  0  3.53624  0  0  0.006658  0  3.762452  0  0  -0.009622  0  3.786581  0  0  -0.232239  0.017417  0  3.745691  0
N  N62  1  0.52013360  0.71551922  0.11442007  1  0  -0.292313  0  3.202551  0  0  -0.226277  0  3.499155  0  0  -0.244057  0  3.515769  0  0  -0.245779  -0.214029  0  3.487731  0
N  N63  1  0.97986440  0.28447931  0.61441561  1  0  -0.292237  0  3.202527  0  0  -0.226199  0  3.499102  0  0  -0.243979  0  3.515723  0  0  -0.245727  -0.213951  0  3.48768  0
N  N64  1  0.47986771  0.28447810  0.88558298  1  0  -0.292325  0  3.2025  0  0  -0.226294  0  3.499083  0  0  -0.244077  0  3.515702  0  0  -0.245762  -0.214046  0  3.487659  0
N  N65  1  0.02013491  0.71552154  0.38557954  1  0  -0.292286  0  3.202487  0  0  -0.226252  0  3.499081  0  0  -0.244033  0  3.515698  0  0  -0.245785  -0.214004  0  3.48766  0
N  N66  1  0.50262400  0.84799611  0.07322703  1  0  -0.228021  0  2.940249  0  0  -0.212666  0  3.231718  0  0  -0.219856  0  3.24726  0  0  -0.227202  -0.207715  0  3.221077  0
N  N67  1  0.99736998  0.15199899  0.57322375  1  0  -0.228031  0  2.94045  0  0  -0.212668  0  3.2319  0  0  -0.219859  0  3.247443  0  0  -0.227227  -0.207716  0  3.22126  0
N  N68  1  0.49737448  0.15199764  0.92677427  1  0  -0.227976  0  2.940288  0  0  -0.212613  0  3.231765  0  0  -0.219802  0  3.247305  0  0  -0.227179  -0.20766  0  3.221121  0
N  N69  1  0.00262463  0.84799947  0.42677052  1  0  -0.228014  0  2.940222  0  0  -0.212655  0  3.231685  0  0  -0.219846  0  3.247227  0  0  -0.227169  -0.207703  0  3.221046  0
O  O70  1  0.66035699  0.67106454  0.85051580  1  0  -0.842888  0  1.899386  0  0  -0.775085  0  2.102361  0  0  -0.798086  0  2.066965  0  0  -0.588654  -0.758287  0  2.127257  0
O  O71  1  0.83964252  0.32893670  0.35051432  1  0  -0.842918  0  1.899408  0  0  -0.775137  0  2.102362  0  0  -0.798139  0  2.066969  0  0  -0.588712  -0.758343  0  2.127264  0
O  O72  1  0.33964540  0.32893514  0.14948813  1  0  -0.842864  0  1.899443  0  0  -0.775057  0  2.10241  0  0  -0.79806  0  2.067016  0  0  -0.588639  -0.758273  0  2.12734  0
O  O73  1  0.16035384  0.67106294  0.64948522  1  0  -0.842873  0  1.899407  0  0  -0.775077  0  2.102406  0  0  -0.79808  0  2.06701  0  0  -0.588652  -0.758283  0  2.127317  0
O  O74  1  0.75585772  0.50592874  0.09242123  1  0  -0.511774  0  2.096152  0  0  -0.459233  0  2.347224  0  0  -0.481549  0  2.342167  0  0  -0.320249  -0.443446  0  2.350238  0
O  O75  1  0.74414057  0.49407577  0.59242141  1  0  -0.511808  0  2.096509  0  0  -0.459303  0  2.347618  0  0  -0.481612  0  2.342559  0  0  -0.320299  -0.44352  0  2.350639  0
O  O76  1  0.24414144  0.49406383  0.90757918  1  0  -0.511693  0  2.096259  0  0  -0.459174  0  2.347341  0  0  -0.48149  0  2.342283  0  0  -0.320218  -0.443389  0  2.350354  0
O  O77  1  0.25586130  0.50593337  0.40758427  1  0  -0.511716  0  2.096646  0  0  -0.459197  0  2.347729  0  0  -0.481509  0  2.342679  0  0  -0.32025  -0.443409  0  2.350742  0
O  O78  1  0.96379691  0.63749777  0.84071015  1  0  -0.495747  0  2.108197  0  0  -0.43089  0  2.317674  0  0  -0.452443  0  2.312828  0  0  -0.289173  -0.415862  0  2.3211  0
O  O79  1  0.53620139  0.36250350  0.34071454  1  0  -0.495693  0  2.108604  0  0  -0.430908  0  2.318106  0  0  -0.452454  0  2.313264  0  0  -0.289227  -0.415882  0  2.32153  0
O  O80  1  0.03620157  0.36249598  0.15929202  1  0  -0.495694  0  2.108159  0  0  -0.430878  0  2.317668  0  0  -0.452427  0  2.312819  0  0  -0.289155  -0.41585  0  2.321097  0
O  O81  1  0.46379874  0.63750444  0.65929114  1  0  -0.49577  0  2.108629  0  0  -0.430898  0  2.318129  0  0  -0.452442  0  2.313279  0  0  -0.289179  -0.415871  0  2.321554  0
