# generated using pymatgen
data_ZnH10C14(N3O2)2
_symmetry_space_group_name_H-M   'P 1'
_cell_length_a   9.24466515
_cell_length_b   9.50391104
_cell_length_c   9.50390999
_cell_angle_alpha   81.77012816
_cell_angle_beta   75.89191751
_cell_angle_gamma   75.89201278
_symmetry_Int_Tables_number   1
_chemical_formula_structural   ZnH10C14(N3O2)2
_chemical_formula_sum   'Zn2 H20 C28 N12 O8'
_cell_volume   782.28767057
_cell_formula_units_Z   2
loop_
 _symmetry_equiv_pos_site_id
 _symmetry_equiv_pos_as_xyz
  1  'x, y, z'
loop_
 _atom_site_type_symbol
 _atom_site_label
 _atom_site_symmetry_multiplicity
 _atom_site_fract_x
 _atom_site_fract_y
 _atom_site_fract_z
 _atom_site_occupancy
 _atom_site_hle17_bader_spin_density
 _atom_site_hle17_ddec_charge
 _atom_site_hle17_ddec_spin_density
 _atom_site_hle17_ddec_sum_bond_order
 _atom_site_hle17_magmom
 _atom_site_hse06_10hf_bader_spin_density
 _atom_site_hse06_10hf_ddec_charge
 _atom_site_hse06_10hf_ddec_spin_density
 _atom_site_hse06_10hf_ddec_sum_bond_order
 _atom_site_hse06_10hf_magmom
 _atom_site_hse06_bader_spin_density
 _atom_site_hse06_ddec_charge
 _atom_site_hse06_ddec_spin_density
 _atom_site_hse06_ddec_sum_bond_order
 _atom_site_hse06_magmom
 _atom_site_pbe_bader_spin_density
 _atom_site_pbe_cm5_charge
 _atom_site_pbe_ddec_charge
 _atom_site_pbe_ddec_spin_density
 _atom_site_pbe_ddec_sum_bond_order
 _atom_site_pbe_magmom
Zn  Zn0  1  0.74058652  0.95984802  0.70371887  1  0  0.995719  0  1.867107  0  0  0.81113  0  2.324127  0  0  0.855405  0  2.276091  0  0  0.686481  0.778816  0  2.356773  0
Zn  Zn1  1  0.24058555  0.70371920  0.95984790  1  0  0.995715  0  1.867012  0  0  0.811117  0  2.324012  0  0  0.855397  0  2.275975  0  0  0.686504  0.778807  0  2.356662  0
H  H2  1  0.38338700  0.01667104  0.61154367  1  0  0.113233  0  0.957653  0  0  0.124  0  1.014026  0  0  0.12666  0  1.013045  0  0  0.106957  0.122203  0  1.014654  0
H  H3  1  0.88338759  0.61154299  0.01667303  1  0  0.113249  0  0.957606  0  0  0.124014  0  1.01398  0  0  0.126674  0  1.013  0  0  0.106951  0.122216  0  1.014597  0
H  H4  1  0.59727060  0.48888393  0.78489394  1  0  0.310137  0  0.919398  0  0  0.281291  0  0.99589  0  0  0.290987  0  0.987459  0  0  0.321175  0.274298  0  1.002061  0
H  H5  1  0.09727326  0.78489199  0.48888322  1  0  0.310172  0  0.919441  0  0  0.281275  0  0.995993  0  0  0.290972  0  0.98756  0  0  0.321147  0.274283  0  1.002156  0
H  H6  1  0.87798807  0.87835250  0.17453025  1  0  0.311958  0  0.914393  0  0  0.283679  0  0.989402  0  0  0.29346  0  0.980891  0  0  0.321438  0.276644  0  0.995562  0
H  H7  1  0.37798680  0.17453195  0.87835316  1  0  0.312127  0  0.914308  0  0  0.283834  0  0.989329  0  0  0.293618  0  0.980812  0  0  0.321492  0.276792  0  0.995498  0
H  H8  1  0.07354093  0.30941487  0.24634501  1  0  0.088233  0  0.961249  0  0  0.099262  0  1.019651  0  0  0.101167  0  1.020612  0  0  0.09805  0.097676  0  1.019463  0
H  H9  1  0.57353801  0.24634604  0.30941387  1  0  0.088168  0  0.961236  0  0  0.099189  0  1.019658  0  0  0.101095  0  1.020619  0  0  0.098009  0.0976  0  1.01947  0
H  H10  1  0.58265344  0.93769184  0.07754693  1  0  0.124104  0  0.977811  0  0  0.130223  0  1.04195  0  0  0.133577  0  1.039987  0  0  0.10405  0.128125  0  1.042671  0
H  H11  1  0.08265370  0.07754761  0.93769305  1  0  0.1241  0  0.977793  0  0  0.130215  0  1.041935  0  0  0.133573  0  1.039967  0  0  0.104048  0.128116  0  1.042659  0
H  H12  1  0.96869502  0.10989212  0.40995126  1  0  0.110439  0  0.964788  0  0  0.115453  0  1.033171  0  0  0.11846  0  1.030991  0  0  0.10612  0.112731  0  1.035867  0
H  H13  1  0.46869416  0.40995145  0.10989141  1  0  0.110433  0  0.964791  0  0  0.115441  0  1.033181  0  0  0.118449  0  1.031  0  0  0.106119  0.112718  0  1.035884  0
H  H14  1  0.79024196  0.63483717  0.53184164  1  0  0.122708  0  0.962441  0  0  0.128017  0  1.026818  0  0  0.131067  0  1.025523  0  0  0.105119  0.125554  0  1.028359  0
H  H15  1  0.29024236  0.53184165  0.63483730  1  0  0.122696  0  0.962434  0  0  0.127982  0  1.026836  0  0  0.131031  0  1.025543  0  0  0.105112  0.12552  0  1.028375  0
H  H16  1  0.20586106  0.03605901  0.44849093  1  0  0.090378  0  0.963748  0  0  0.101827  0  1.023837  0  0  0.104258  0  1.023344  0  0  0.099972  0.099647  0  1.025111  0
H  H17  1  0.70586098  0.44848976  0.03606173  1  0  0.090386  0  0.963731  0  0  0.101838  0  1.023819  0  0  0.104265  0  1.023326  0  0  0.099977  0.099661  0  1.025093  0
H  H18  1  0.30141926  0.99701018  0.18672946  1  0  0.100212  0  0.952669  0  0  0.107613  0  1.017402  0  0  0.1105  0  1.016024  0  0  0.101773  0.105306  0  1.018922  0
H  H19  1  0.80141949  0.18672790  0.99701106  1  0  0.100196  0  0.952664  0  0  0.107585  0  1.017418  0  0  0.110469  0  1.016044  0  0  0.10175  0.105278  0  1.018942  0
H  H20  1  0.98318187  0.56541306  0.30375186  1  0  0.091188  0  0.961273  0  0  0.097567  0  1.028896  0  0  0.099525  0  1.029174  0  0  0.09857  0.096119  0  1.028673  0
H  H21  1  0.48318011  0.30375137  0.56541300  1  0  0.091251  0  0.96121  0  0  0.09763  0  1.02882  0  0  0.099591  0  1.029096  0  0  0.098565  0.096183  0  1.028598  0
C  C22  1  0.42629103  0.99750136  0.49731625  1  0  -0.123985  0  3.725032  0  0  -0.142519  0  3.975478  0  0  -0.144497  0  3.995305  0  0  -0.087682  -0.140859  0  3.961646  0
C  C23  1  0.92628985  0.49731411  0.99750283  1  0  -0.124049  0  3.724989  0  0  -0.142572  0  3.975433  0  0  -0.144553  0  3.995264  0  0  -0.087672  -0.140907  0  3.961585  0
C  C24  1  0.44398757  0.90213982  0.86469014  1  0  0.532401  0  3.903137  0  0  0.485566  0  4.198206  0  0  0.514851  0  4.191142  0  0  0.211271  0.466037  0  4.201396  0
C  C25  1  0.94400119  0.86468416  0.90214517  1  0  0.532312  0  3.903098  0  0  0.485417  0  4.198223  0  0  0.514701  0  4.19117  0  0  0.211217  0.465887  0  4.201417  0
C  C26  1  0.54785065  0.75060039  0.83001882  1  0  0.535404  0  3.894771  0  0  0.49228  0  4.183176  0  0  0.521494  0  4.176406  0  0  0.208149  0.472414  0  4.186478  0
C  C27  1  0.04786583  0.83001346  0.75060494  1  0  0.535551  0  3.895056  0  0  0.492482  0  4.183393  0  0  0.521691  0  4.176629  0  0  0.208244  0.472608  0  4.186708  0
C  C28  1  0.98824650  0.33466930  0.34607134  1  0  -0.062244  0  3.767509  0  0  -0.077793  0  4.020195  0  0  -0.08042  0  4.043879  0  0  -0.091259  -0.076142  0  4.004071  0
C  C29  1  0.48824510  0.34607156  0.33467024  1  0  -0.06213  0  3.767463  0  0  -0.077674  0  4.020139  0  0  -0.0803  0  4.043824  0  0  -0.091209  -0.076016  0  4.004008  0
C  C30  1  0.53827664  0.95163120  0.19277705  1  0  -0.144446  0  3.720261  0  0  -0.159641  0  3.968157  0  0  -0.163449  0  3.987992  0  0  -0.091894  -0.157148  0  3.954419  0
C  C31  1  0.03827632  0.19277653  0.95163214  1  0  -0.144459  0  3.720336  0  0  -0.159639  0  3.96822  0  0  -0.163452  0  3.988054  0  0  -0.091918  -0.157146  0  3.954488  0
C  C32  1  0.82315544  0.26231459  0.56317302  1  0  0.114598  0  3.825913  0  0  0.112876  0  4.068327  0  0  0.113651  0  4.092705  0  0  0.093402  0.112227  0  4.052062  0
C  C33  1  0.32315329  0.56317397  0.26231548  1  0  0.114662  0  3.825985  0  0  0.11297  0  4.068344  0  0  0.113744  0  4.092722  0  0  0.093417  0.112316  0  4.052087  0
C  C34  1  0.93248319  0.22280619  0.43607977  1  0  -0.132604  0  3.738478  0  0  -0.150701  0  3.986611  0  0  -0.153131  0  4.007213  0  0  -0.089885  -0.148742  0  3.973082  0
C  C35  1  0.43248321  0.43607991  0.22280481  1  0  -0.132629  0  3.738475  0  0  -0.150728  0  3.986587  0  0  -0.153159  0  4.007188  0  0  -0.089888  -0.148764  0  3.973059  0
C  C36  1  0.82868580  0.52245192  0.50456141  1  0  -0.137137  0  3.715128  0  0  -0.153815  0  3.961392  0  0  -0.156436  0  3.979932  0  0  -0.090423  -0.152274  0  3.949727  0
C  C37  1  0.32868635  0.50456041  0.52245130  1  0  -0.13713  0  3.715196  0  0  -0.153791  0  3.961491  0  0  -0.156408  0  3.980029  0  0  -0.090434  -0.152241  0  3.949817  0
C  C38  1  0.77250364  0.40920354  0.59623177  1  0  0.14857  0  3.784717  0  0  0.139747  0  4.022205  0  0  0.143949  0  4.043937  0  0  0.109895  0.136386  0  4.007493  0
C  C39  1  0.27250300  0.59623038  0.40920498  1  0  0.148489  0  3.784798  0  0  0.139636  0  4.022295  0  0  0.143836  0  4.044026  0  0  0.109859  0.136271  0  4.007587  0
C  C40  1  0.63769082  0.93843787  0.28673349  1  0  0.13834  0  3.793094  0  0  0.126379  0  4.036895  0  0  0.130876  0  4.058294  0  0  0.104054  0.123237  0  4.022596  0
C  C41  1  0.13768991  0.28673282  0.93843929  1  0  0.138277  0  3.793029  0  0  0.126314  0  4.036831  0  0  0.130813  0  4.058229  0  0  0.104026  0.12317  0  4.022533  0
C  C42  1  0.32853333  0.00877580  0.40466475  1  0  -0.054902  0  3.75047  0  0  -0.074874  0  4.010393  0  0  -0.076845  0  4.032214  0  0  -0.08895  -0.073453  0  3.995326  0
C  C43  1  0.82853277  0.40466338  0.00877815  1  0  -0.054956  0  3.750545  0  0  -0.074936  0  4.010467  0  0  -0.076904  0  4.032285  0  0  -0.088981  -0.073522  0  3.995405  0
C  C44  1  0.38328420  0.98706219  0.25493010  1  0  -0.051853  0  3.743269  0  0  -0.073953  0  4.005915  0  0  -0.075057  0  4.028126  0  0  -0.090873  -0.07306  0  3.990999  0
C  C45  1  0.88328570  0.25493033  0.98706337  1  0  -0.051747  0  3.743372  0  0  -0.073835  0  4.006  0  0  -0.074937  0  4.028215  0  0  -0.09079  -0.072943  0  3.991079  0
C  C46  1  0.93678295  0.48172372  0.37951831  1  0  -0.056301  0  3.758607  0  0  -0.07668  0  4.02008  0  0  -0.077988  0  4.042596  0  0  -0.091693  -0.075562  0  4.00493  0
C  C47  1  0.43678231  0.37951736  0.48172307  1  0  -0.056345  0  3.7586  0  0  -0.076718  0  4.020053  0  0  -0.078027  0  4.042568  0  0  -0.091654  -0.0756  0  4.004898  0
C  C48  1  0.58367135  0.96194694  0.43611262  1  0  0.109613  0  3.82191  0  0  0.107516  0  4.070069  0  0  0.108497  0  4.093549  0  0  0.091701  0.106435  0  4.05456  0
C  C49  1  0.08367343  0.43611303  0.96194816  1  0  0.109789  0  3.821771  0  0  0.107674  0  4.069945  0  0  0.108657  0  4.093426  0  0  0.091733  0.106604  0  4.054422  0
N  N50  1  0.83492784  0.91128038  0.39195991  1  0  0.000843  0  2.924116  0  0  -0.007701  0  3.217642  0  0  0.000263  0  3.226885  0  0  -0.069655  -0.01232  0  3.210863  0
N  N51  1  0.33492829  0.39196091  0.91128068  1  0  0.001021  0  2.92436  0  0  -0.007528  0  3.217877  0  0  0.000436  0  3.22712  0  0  -0.069574  -0.012151  0  3.211101  0
N  N52  1  0.65098776  0.26752222  0.76910944  1  0  0.000582  0  2.912178  0  0  -0.012465  0  3.210695  0  0  -0.004559  0  3.220053  0  0  -0.073704  -0.0172  0  3.203846  0
N  N53  1  0.15098700  0.76911062  0.26752248  1  0  0.000697  0  2.911979  0  0  -0.012349  0  3.21045  0  0  -0.004447  0  3.219812  0  0  -0.073654  -0.017081  0  3.203595  0
N  N54  1  0.71062023  0.94427432  0.49412351  1  0  -0.283978  0  3.195685  0  0  -0.227314  0  3.49722  0  0  -0.24058  0  3.508876  0  0  -0.211437  -0.218477  0  3.489004  0
N  N55  1  0.21062181  0.49412223  0.94427396  1  0  -0.284173  0  3.196008  0  0  -0.227489  0  3.49753  0  0  -0.240758  0  3.509191  0  0  -0.211526  -0.21865  0  3.489311  0
N  N56  1  0.66647997  0.40377323  0.72425315  1  0  -0.208046  0  3.424144  0  0  -0.151888  0  3.673968  0  0  -0.165783  0  3.6883  0  0  -0.244113  -0.14248  0  3.663591  0
N  N57  1  0.16647831  0.72425528  0.40377538  1  0  -0.208056  0  3.42415  0  0  -0.151845  0  3.673969  0  0  -0.16574  0  3.688306  0  0  -0.24405  -0.142435  0  3.663589  0
N  N58  1  0.74444248  0.18104414  0.67355035  1  0  -0.289739  0  3.213523  0  0  -0.232365  0  3.517615  0  0  -0.246165  0  3.529877  0  0  -0.216093  -0.222751  0  3.508527  0
N  N59  1  0.24444289  0.67355058  0.18104489  1  0  -0.289853  0  3.213524  0  0  -0.232464  0  3.517579  0  0  -0.246266  0  3.529843  0  0  -0.216132  -0.222846  0  3.508489  0
N  N60  1  0.79351649  0.90726813  0.26769791  1  0  -0.20449  0  3.398836  0  0  -0.146738  0  3.644815  0  0  -0.160212  0  3.657486  0  0  -0.244209  -0.137709  0  3.636236  0
N  N61  1  0.29351864  0.26769625  0.90726768  1  0  -0.2047  0  3.398798  0  0  -0.146937  0  3.644789  0  0  -0.160411  0  3.657449  0  0  -0.244225  -0.137893  0  3.636214  0
O  O62  1  0.48433863  0.64181076  0.86856490  1  0  -0.583901  0  2.088367  0  0  -0.520047  0  2.333494  0  0  -0.545287  0  2.323112  0  0  -0.295844  -0.501676  0  2.339867  0
O  O63  1  0.98433568  0.86856862  0.64180575  1  0  -0.584107  0  2.087927  0  0  -0.520284  0  2.333065  0  0  -0.545523  0  2.322683  0  0  -0.295993  -0.501904  0  2.339436  0
O  O64  1  0.50380041  0.01256397  0.82020529  1  0  -0.591011  0  2.110748  0  0  -0.528105  0  2.36365  0  0  -0.55297  0  2.352648  0  0  -0.29687  -0.509853  0  2.369201  0
O  O65  1  0.00379905  0.82020808  0.01255766  1  0  -0.590839  0  2.111256  0  0  -0.52795  0  2.364204  0  0  -0.552783  0  2.353162  0  0  -0.296849  -0.509705  0  2.369757  0
O  O66  1  0.30818491  0.90759879  0.93342011  1  0  -0.557186  0  2.088374  0  0  -0.501694  0  2.343324  0  0  -0.525669  0  2.334436  0  0  -0.294177  -0.484628  0  2.348468  0
O  O67  1  0.80817635  0.93342547  0.90759855  1  0  -0.557263  0  2.087815  0  0  -0.501682  0  2.342672  0  0  -0.525662  0  2.333792  0  0  -0.294166  -0.484611  0  2.347814  0
O  O68  1  0.68529922  0.74493233  0.76676473  1  0  -0.556866  0  2.046845  0  0  -0.506183  0  2.292469  0  0  -0.529661  0  2.284609  0  0  -0.299468  -0.489589  0  2.297225  0
O  O69  1  0.18529197  0.76677097  0.74493232  1  0  -0.556826  0  2.047637  0  0  -0.506136  0  2.293218  0  0  -0.529619  0  2.285379  0  0  -0.299404  -0.489545  0  2.297981  0
