# generated using pymatgen
data_AgH6C6NO4
_symmetry_space_group_name_H-M   'P 1'
_cell_length_a   5.57489967
_cell_length_b   9.81126886
_cell_length_c   13.09495329
_cell_angle_alpha   89.99891377
_cell_angle_beta   89.99964393
_cell_angle_gamma   96.38400465
_symmetry_Int_Tables_number   1
_chemical_formula_structural   AgH6C6NO4
_chemical_formula_sum   'Ag4 H24 C24 N4 O16'
_cell_volume   711.81107635
_cell_formula_units_Z   4
loop_
 _symmetry_equiv_pos_site_id
 _symmetry_equiv_pos_as_xyz
  1  'x, y, z'
loop_
 _atom_site_type_symbol
 _atom_site_label
 _atom_site_symmetry_multiplicity
 _atom_site_fract_x
 _atom_site_fract_y
 _atom_site_fract_z
 _atom_site_occupancy
 _atom_site_hle17_bader_spin_density
 _atom_site_hle17_ddec_charge
 _atom_site_hle17_ddec_spin_density
 _atom_site_hle17_ddec_sum_bond_order
 _atom_site_hle17_magmom
 _atom_site_hse06_10hf_bader_spin_density
 _atom_site_hse06_10hf_ddec_charge
 _atom_site_hse06_10hf_ddec_spin_density
 _atom_site_hse06_10hf_ddec_sum_bond_order
 _atom_site_hse06_10hf_magmom
 _atom_site_hse06_bader_spin_density
 _atom_site_hse06_ddec_charge
 _atom_site_hse06_ddec_spin_density
 _atom_site_hse06_ddec_sum_bond_order
 _atom_site_hse06_magmom
 _atom_site_pbe_bader_spin_density
 _atom_site_pbe_cm5_charge
 _atom_site_pbe_ddec_charge
 _atom_site_pbe_ddec_spin_density
 _atom_site_pbe_ddec_sum_bond_order
 _atom_site_pbe_magmom
Ag  Ag0  1  0.60938640  0.24414409  0.37786900  1  0  0.63132  0  1.227955  0  0  0.52857  0  1.623224  0  0  0.556061  0  1.577546  0  0  0.433646  0.507681  0  1.656617  0
Ag  Ag1  1  0.89061811  0.75585083  0.87786564  1  0  0.631321  0  1.227898  0  0  0.528598  0  1.623124  0  0  0.55609  0  1.577445  0  0  0.433659  0.507715  0  1.65652  0
Ag  Ag2  1  0.39059403  0.75585574  0.62213128  1  0  0.631176  0  1.22812  0  0  0.528485  0  1.623393  0  0  0.555985  0  1.577716  0  0  0.433657  0.507598  0  1.656789  0
Ag  Ag3  1  0.10941941  0.24414678  0.12213617  1  0  0.631212  0  1.228057  0  0  0.528493  0  1.623295  0  0  0.555992  0  1.577612  0  0  0.433642  0.507602  0  1.656688  0
H  H4  1  0.67022955  0.99188610  0.31559319  1  0  0.10769  0  0.959303  0  0  0.117921  0  1.022876  0  0  0.12234  0  1.020538  0  0  0.099022  0.115345  0  1.024062  0
H  H5  1  0.82976061  0.00812054  0.81560569  1  0  0.107681  0  0.959314  0  0  0.117923  0  1.022873  0  0  0.122339  0  1.020536  0  0  0.099056  0.11535  0  1.024058  0
H  H6  1  0.32973855  0.00810333  0.68441549  1  0  0.107685  0  0.958978  0  0  0.11781  0  1.022699  0  0  0.122227  0  1.020361  0  0  0.098993  0.11524  0  1.02388  0
H  H7  1  0.17028656  0.99189358  0.18439994  1  0  0.107721  0  0.958931  0  0  0.117882  0  1.022606  0  0  0.122299  0  1.020268  0  0  0.099038  0.115309  0  1.023786  0
H  H8  1  0.75097006  0.74831756  0.30261661  1  0  0.103583  0  0.982572  0  0  0.109433  0  1.050609  0  0  0.110957  0  1.051207  0  0  0.104211  0.108405  0  1.050115  0
H  H9  1  0.74903596  0.25168455  0.80264097  1  0  0.103595  0  0.982692  0  0  0.109414  0  1.050724  0  0  0.110937  0  1.051319  0  0  0.104249  0.108389  0  1.050233  0
H  H10  1  0.24902112  0.25167016  0.69737451  1  0  0.10373  0  0.982729  0  0  0.109527  0  1.050753  0  0  0.111029  0  1.051423  0  0  0.10424  0.1085  0  1.050267  0
H  H11  1  0.25098599  0.74831692  0.19736695  1  0  0.103779  0  0.982632  0  0  0.109494  0  1.05074  0  0  0.111004  0  1.051378  0  0  0.104278  0.108466  0  1.050253  0
H  H12  1  0.07854447  0.62007562  0.45742912  1  0  0.124215  0  0.944673  0  0  0.127021  0  1.013922  0  0  0.130946  0  1.009564  0  0  0.110979  0.124636  0  1.016246  0
H  H13  1  0.42147406  0.37993115  0.95743256  1  0  0.12412  0  0.94454  0  0  0.126943  0  1.013798  0  0  0.130864  0  1.009442  0  0  0.110899  0.124556  0  1.01612  0
H  H14  1  0.92146705  0.37994002  0.54257117  1  0  0.124236  0  0.944511  0  0  0.12704  0  1.013781  0  0  0.130964  0  1.009423  0  0  0.110945  0.124655  0  1.016103  0
H  H15  1  0.57853248  0.62007521  0.04256162  1  0  0.124183  0  0.944592  0  0  0.126983  0  1.013887  0  0  0.130909  0  1.009523  0  0  0.110946  0.124598  0  1.01621  0
H  H16  1  0.99872108  0.86511596  0.47254001  1  0  0.129232  0  0.961663  0  0  0.13679  0  1.022547  0  0  0.141469  0  1.020709  0  0  0.105216  0.133339  0  1.024037  0
H  H17  1  0.50129015  0.13488262  0.97254315  1  0  0.129206  0  0.961623  0  0  0.136748  0  1.02253  0  0  0.141415  0  1.020707  0  0  0.105203  0.133299  0  1.024013  0
H  H18  1  0.00128017  0.13487907  0.52745416  1  0  0.129237  0  0.96165  0  0  0.136797  0  1.022545  0  0  0.141468  0  1.020715  0  0  0.105209  0.133345  0  1.024033  0
H  H19  1  0.49873770  0.86513428  0.02744416  1  0  0.129228  0  0.961686  0  0  0.1367  0  1.022669  0  0  0.141365  0  1.020849  0  0  0.105158  0.133251  0  1.024152  0
H  H20  1  0.10469385  0.32582349  0.33842961  1  0  0.41614  0  0.877886  0  0  0.387124  0  0.944415  0  0  0.396018  0  0.931303  0  0  0.29398  0.380085  0  0.954839  0
H  H21  1  0.39531893  0.67418132  0.83842663  1  0  0.416145  0  0.877865  0  0  0.387143  0  0.944378  0  0  0.396034  0  0.931272  0  0  0.293919  0.380107  0  0.954802  0
H  H22  1  0.89529136  0.67417233  0.66158366  1  0  0.416116  0  0.877853  0  0  0.387146  0  0.944346  0  0  0.396037  0  0.93124  0  0  0.293979  0.38011  0  0.954769  0
H  H23  1  0.60471638  0.32582546  0.16158510  1  0  0.41622  0  0.877757  0  0  0.387245  0  0.944212  0  0  0.396135  0  0.931109  0  0  0.294027  0.380208  0  0.954637  0
H  H24  1  0.09358454  0.16738094  0.34835592  1  0  0.417631  0  0.892115  0  0  0.388612  0  0.954476  0  0  0.398904  0  0.939665  0  0  0.287411  0.380544  0  0.966093  0
H  H25  1  0.40642971  0.83262362  0.84834919  1  0  0.417571  0  0.892198  0  0  0.388513  0  0.954649  0  0  0.398809  0  0.939834  0  0  0.287366  0.380445  0  0.966267  0
H  H26  1  0.90640098  0.83261693  0.65164971  1  0  0.41768  0  0.892033  0  0  0.388702  0  0.954328  0  0  0.398994  0  0.939519  0  0  0.287491  0.380636  0  0.965942  0
H  H27  1  0.59361608  0.16738127  0.15164575  1  0  0.41759  0  0.892135  0  0  0.388605  0  0.954438  0  0  0.398897  0  0.93963  0  0  0.287422  0.380539  0  0.966052  0
C  C28  1  0.32966468  0.94699081  0.39582521  1  0  0.40842  0  3.851962  0  0  0.394248  0  4.107027  0  0  0.416927  0  4.117693  0  0  0.100606  0.377363  0  4.099765  0
C  C29  1  0.17032725  0.05300599  0.89582641  1  0  0.408361  0  3.851818  0  0  0.394192  0  4.1069  0  0  0.416824  0  4.117641  0  0  0.100689  0.377328  0  4.099602  0
C  C30  1  0.67030152  0.05300984  0.60417584  1  0  0.408244  0  3.852403  0  0  0.394052  0  4.107517  0  0  0.416693  0  4.11825  0  0  0.100655  0.377192  0  4.100217  0
C  C31  1  0.82968791  0.94698618  0.10417770  1  0  0.408317  0  3.852312  0  0  0.394112  0  4.107392  0  0  0.416735  0  4.118155  0  0  0.100672  0.377255  0  4.100086  0
C  C32  1  0.54260263  0.90977617  0.34681955  1  0  -0.194077  0  3.687508  0  0  -0.212433  0  3.941201  0  0  -0.225162  0  3.960784  0  0  -0.10476  -0.203471  0  3.92733  0
C  C33  1  0.95739306  0.09022561  0.84683011  1  0  -0.193924  0  3.687511  0  0  -0.212283  0  3.941206  0  0  -0.225006  0  3.960823  0  0  -0.104811  -0.203329  0  3.927328  0
C  C34  1  0.45736984  0.09021844  0.65317463  1  0  -0.193742  0  3.687886  0  0  -0.211976  0  3.941574  0  0  -0.224684  0  3.961162  0  0  -0.104664  -0.203026  0  3.927697  0
C  C35  1  0.04263161  0.90978204  0.15317629  1  0  -0.193831  0  3.68766  0  0  -0.212109  0  3.941351  0  0  -0.224818  0  3.960958  0  0  -0.104719  -0.203158  0  3.927468  0
C  C36  1  0.58795847  0.77539419  0.33930614  1  0  -0.059427  0  3.740583  0  0  -0.081704  0  3.995338  0  0  -0.07489  0  4.014702  0  0  -0.079379  -0.08623  0  3.982246  0
C  C37  1  0.91202950  0.22460257  0.83931711  1  0  -0.059634  0  3.740799  0  0  -0.081877  0  3.995616  0  0  -0.075057  0  4.014968  0  0  -0.079489  -0.086409  0  3.982533  0
C  C38  1  0.41199956  0.22458793  0.66068880  1  0  -0.059869  0  3.741554  0  0  -0.082148  0  3.996259  0  0  -0.075335  0  4.015595  0  0  -0.079522  -0.086684  0  3.983185  0
C  C39  1  0.08800118  0.77540927  0.16068088  1  0  -0.059923  0  3.741036  0  0  -0.082058  0  3.995855  0  0  -0.075245  0  4.015203  0  0  -0.079566  -0.086593  0  3.982778  0
C  C40  1  0.42219470  0.67049352  0.38043266  1  0  0.035607  0  3.750863  0  0  0.018067  0  4.023465  0  0  0.008125  0  4.046653  0  0  0.065497  0.025051  0  4.007567  0
C  C41  1  0.07778172  0.32950449  0.88043534  1  0  0.035906  0  3.750693  0  0  0.018327  0  4.023334  0  0  0.008389  0  4.046516  0  0  0.065651  0.025308  0  4.007439  0
C  C42  1  0.57774586  0.32950368  0.61955846  1  0  0.035637  0  3.751005  0  0  0.018229  0  4.023388  0  0  0.008292  0  4.046561  0  0  0.065557  0.025212  0  4.007494  0
C  C43  1  0.92223334  0.67049893  0.11955196  1  0  0.035823  0  3.750451  0  0  0.018191  0  4.023167  0  0  0.008252  0  4.04635  0  0  0.065582  0.025174  0  4.00727  0
C  C44  1  0.20890523  0.70261062  0.42950174  1  0  -0.099843  0  3.785032  0  0  -0.122622  0  4.055417  0  0  -0.116194  0  4.069415  0  0  -0.092574  -0.126675  0  4.044849  0
C  C45  1  0.29107900  0.29738925  0.92950636  1  0  -0.099966  0  3.784653  0  0  -0.122752  0  4.055059  0  0  -0.116324  0  4.069049  0  0  -0.092569  -0.126805  0  4.044497  0
C  C46  1  0.79106298  0.29740336  0.57050084  1  0  -0.10004  0  3.784698  0  0  -0.122852  0  4.055069  0  0  -0.116436  0  4.069088  0  0  -0.092584  -0.126897  0  4.044486  0
C  C47  1  0.70892913  0.70260384  0.07049316  1  0  -0.09991  0  3.784626  0  0  -0.122687  0  4.055028  0  0  -0.11626  0  4.069027  0  0  -0.092564  -0.126735  0  4.044446  0
C  C48  1  0.16345682  0.83813184  0.43652869  1  0  -0.206663  0  3.687773  0  0  -0.219936  0  3.939188  0  0  -0.23138  0  3.956495  0  0  -0.108225  -0.211661  0  3.927195  0
C  C49  1  0.33654289  0.16186499  0.93653520  1  0  -0.206561  0  3.687411  0  0  -0.219804  0  3.938817  0  0  -0.231221  0  3.956145  0  0  -0.108216  -0.211533  0  3.926804  0
C  C50  1  0.83655090  0.16187044  0.56346549  1  0  -0.206454  0  3.687171  0  0  -0.219713  0  3.938575  0  0  -0.231133  0  3.955897  0  0  -0.108141  -0.211445  0  3.92657  0
C  C51  1  0.66345372  0.83813509  0.06346050  1  0  -0.206595  0  3.687207  0  0  -0.219742  0  3.938574  0  0  -0.231158  0  3.955912  0  0  -0.108166  -0.211471  0  3.926564  0
N  N52  1  0.47205950  0.53385306  0.37384558  1  0  0.495978  0  3.895905  0  0  0.521536  0  4.189877  0  0  0.543766  0  4.202966  0  0  0.0225  0.505989  0  4.180926  0
N  N53  1  0.02793723  0.46614748  0.87384864  1  0  0.496095  0  3.895984  0  0  0.52166  0  4.189956  0  0  0.543893  0  4.203045  0  0  0.022528  0.506114  0  4.181008  0
N  N54  1  0.52788584  0.46614012  0.62615318  1  0  0.495846  0  3.895867  0  0  0.521407  0  4.189797  0  0  0.543641  0  4.202882  0  0  0.022334  0.505863  0  4.180841  0
N  N55  1  0.97209628  0.53385928  0.12614783  1  0  0.495745  0  3.895982  0  0  0.521323  0  4.190008  0  0  0.543554  0  4.2031  0  0  0.022252  0.505779  0  4.181048  0
O  O56  1  0.28791971  0.07381234  0.40447436  1  0  -0.60896  0  2.080931  0  0  -0.535554  0  2.323058  0  0  -0.565695  0  2.31737  0  0  -0.323642  -0.511729  0  2.326558  0
O  O57  1  0.21209367  0.92618557  0.90447170  1  0  -0.608927  0  2.080777  0  0  -0.535551  0  2.322934  0  0  -0.565667  0  2.317254  0  0  -0.323683  -0.511756  0  2.32648  0
O  O58  1  0.71204845  0.92618936  0.59552592  1  0  -0.608892  0  2.081175  0  0  -0.535579  0  2.323351  0  0  -0.565713  0  2.317704  0  0  -0.323719  -0.511761  0  2.326839  0
O  O59  1  0.78794832  0.07380597  0.09552706  1  0  -0.608891  0  2.081185  0  0  -0.535521  0  2.323331  0  0  -0.565635  0  2.317658  0  0  -0.323647  -0.511703  0  2.326814  0
O  O60  1  0.66441897  0.50489697  0.33265815  1  0  -0.406269  0  1.774766  0  0  -0.368411  0  1.996113  0  0  -0.383427  0  1.99216  0  0  -0.156196  -0.358879  0  1.999572  0
O  O61  1  0.83557376  0.49510617  0.83266380  1  0  -0.406387  0  1.774788  0  0  -0.368483  0  1.99609  0  0  -0.383499  0  1.992136  0  0  -0.156224  -0.35895  0  1.999553  0
O  O62  1  0.33553696  0.49511887  0.66734596  1  0  -0.406064  0  1.774853  0  0  -0.368228  0  1.996242  0  0  -0.383279  0  1.992342  0  0  -0.156099  -0.358688  0  1.999692  0
O  O63  1  0.16444681  0.50488608  0.16734259  1  0  -0.40624  0  1.774858  0  0  -0.368374  0  1.996208  0  0  -0.383423  0  1.992297  0  0  -0.156178  -0.358835  0  1.999659  0
O  O64  1  0.32356485  0.43942549  0.41230535  1  0  -0.467948  0  1.832527  0  0  -0.424122  0  2.061543  0  0  -0.441038  0  2.055856  0  0  -0.173257  -0.412146  0  2.065912  0
O  O65  1  0.17643326  0.56056789  0.91230706  1  0  -0.467974  0  1.832618  0  0  -0.424187  0  2.061662  0  0  -0.441106  0  2.055978  0  0  -0.173264  -0.412211  0  2.066031  0
O  O66  1  0.67640742  0.56055582  0.58770181  1  0  -0.467869  0  1.832108  0  0  -0.424174  0  2.061269  0  0  -0.441086  0  2.05558  0  0  -0.173243  -0.412202  0  2.06564  0
O  O67  1  0.82357974  0.43944573  0.08769475  1  0  -0.467744  0  1.832451  0  0  -0.423969  0  2.061505  0  0  -0.44088  0  2.055821  0  0  -0.173088  -0.411996  0  2.065872  0
O  O68  1  0.00800233  0.24085882  0.31613155  1  0  -0.826646  0  1.974199  0  0  -0.764526  0  2.201164  0  0  -0.787694  0  2.165796  0  0  -0.585045  -0.747636  0  2.227925  0
O  O69  1  0.49200730  0.75914451  0.81612584  1  0  -0.826638  0  1.974145  0  0  -0.764499  0  2.201065  0  0  -0.787667  0  2.165697  0  0  -0.58496  -0.747609  0  2.22782  0
O  O70  1  0.99198740  0.75914320  0.68387026  1  0  -0.826631  0  1.974192  0  0  -0.76454  0  2.201151  0  0  -0.787706  0  2.165781  0  0  -0.585076  -0.747652  0  2.227908  0
O  O71  1  0.50802303  0.24085300  0.18386910  1  0  -0.826682  0  1.9742  0  0  -0.764592  0  2.201171  0  0  -0.78776  0  2.165802  0  0  -0.585096  -0.747704  0  2.227927  0
