# generated using pymatgen
data_CoH9C12N3O4
_symmetry_space_group_name_H-M   'P 1'
_cell_length_a   9.39620796
_cell_length_b   8.67705049
_cell_length_c   10.02709597
_cell_angle_alpha   63.08719332
_cell_angle_beta   73.85921453
_cell_angle_gamma   82.53218769
_symmetry_Int_Tables_number   1
_chemical_formula_structural   CoH9C12N3O4
_chemical_formula_sum   'Co2 H18 C24 N6 O8'
_cell_volume   700.23864347
_cell_formula_units_Z   2
loop_
 _symmetry_equiv_pos_site_id
 _symmetry_equiv_pos_as_xyz
  1  'x, y, z'
loop_
 _atom_site_type_symbol
 _atom_site_label
 _atom_site_symmetry_multiplicity
 _atom_site_fract_x
 _atom_site_fract_y
 _atom_site_fract_z
 _atom_site_occupancy
 _atom_site_hle17_ddec_charge
 _atom_site_hle17_ddec_spin_density
 _atom_site_hle17_ddec_sum_bond_order
 _atom_site_hle17_magmom
 _atom_site_hse06_10hf_ddec_charge
 _atom_site_hse06_10hf_ddec_spin_density
 _atom_site_hse06_10hf_ddec_sum_bond_order
 _atom_site_hse06_10hf_magmom
 _atom_site_hse06_ddec_charge
 _atom_site_hse06_ddec_spin_density
 _atom_site_hse06_ddec_sum_bond_order
 _atom_site_hse06_magmom
 _atom_site_pbe_cm5_charge
 _atom_site_pbe_ddec_charge
 _atom_site_pbe_ddec_spin_density
 _atom_site_pbe_ddec_sum_bond_order
 _atom_site_pbe_magmom
Co  Co0  1  0.35185053  0.08178140  0.13198668  1  0.999761  2.832201  1.942434  2.566  0.963791  2.838803  2.359737  2.635  1.047243  2.882237  2.284551  2.717  0.653803  0.886565  2.79613  2.432127  2.556
Co  Co1  1  0.64814892  0.91821783  0.86801376  1  1.000073  2.832449  1.942431  2.566  0.96373  2.838804  2.359811  2.635  1.047187  2.882236  2.284616  2.717  0.653773  0.88651  2.796131  2.432194  2.556
H  H2  1  0.15163492  0.32533116  0.15083870  1  0.2644  -0.001651  0.900117  -0.001  0.258992  -0.000832  0.950567  0.0  0.2641  -0.000792  0.947788  0.0  0.309089  0.255232  -0.000814  0.952286  0.0
H  H3  1  0.84836789  0.67466802  0.84915792  1  0.264365  -0.001651  0.90014  -0.001  0.258961  -0.000832  0.950581  0.0  0.264068  -0.000792  0.947803  0.0  0.309061  0.255202  -0.000814  0.952307  0.0
H  H4  1  0.60835785  0.65761597  0.71645885  1  0.316734  0.000337  0.91643  0.001  0.3006  0.000328  0.973284  0.001  0.310149  0.000187  0.964943  0.0  0.313573  0.293537  0.000473  0.979465  0.001
H  H5  1  0.39163714  0.34238459  0.28354417  1  0.316758  0.000337  0.916408  0.001  0.30063  0.000328  0.97325  0.001  0.31018  0.000187  0.964903  0.0  0.313591  0.293568  0.000473  0.979431  0.001
H  H6  1  0.94040837  0.16560873  0.97706066  1  0.115963  -0.000217  0.954255  0.0  0.125039  4.1e-05  1.016428  0.0  0.129279  -2e-05  1.013175  0.0  0.107448  0.121833  0.00015  1.019201  0.0
H  H7  1  0.05959776  0.83438788  0.02293716  1  0.115932  -0.00022  0.954305  0.0  0.125037  4.1e-05  1.016442  0.0  0.129277  -2e-05  1.013191  0.0  0.107442  0.121828  0.00015  1.019211  0.0
H  H8  1  0.62088507  0.91643103  0.40855291  1  0.116859  -0.000324  0.936405  0.0  0.126233  -2e-06  0.997035  0.0  0.130535  -7e-05  0.993869  0.0  0.107105  0.12292  8.1e-05  0.999655  0.0
H  H9  1  0.37911546  0.08357596  0.59144415  1  0.116874  -0.000326  0.936373  0.0  0.12622  -2e-06  0.997042  0.0  0.130523  -7e-05  0.993873  0.0  0.107094  0.122904  8.1e-05  0.999667  0.0
H  H10  1  0.98826993  0.18364964  0.38737848  1  0.114926  -0.000405  0.942555  0.0  0.125051  -5.5e-05  1.003112  0.0  0.129083  -7.6e-05  1.000242  0.0  0.109036  0.121991  -6e-06  1.005474  0.0
H  H11  1  0.01173172  0.81635604  0.61261782  1  0.114925  -0.000407  0.942623  0.0  0.125062  -5.4e-05  1.003165  0.0  0.129093  -7.7e-05  1.000295  0.0  0.109047  0.122005  -6e-06  1.005525  0.0
H  H12  1  0.08956822  0.47740808  0.88475108  1  0.065611  0.000774  0.933047  0.001  0.082746  0.000428  0.994793  0.001  0.082624  0.00022  0.995467  0.0  0.10053  0.082698  0.000686  0.994562  0.001
H  H13  1  0.91042905  0.52259111  0.11524693  1  0.0656  0.000774  0.933031  0.001  0.082747  0.000427  0.99478  0.001  0.082635  0.00022  0.995442  0.0  0.100527  0.082699  0.000686  0.994545  0.001
H  H14  1  0.15217555  0.27933035  0.87606276  1  0.084148  -0.000102  0.922058  0.0  0.103585  -9.6e-05  0.976053  0.0  0.103185  -0.000124  0.976741  0.0  0.115555  0.103729  -7.5e-05  0.975743  0.0
H  H15  1  0.84782283  0.72066884  0.12393497  1  0.084143  -0.000102  0.922003  0.0  0.103586  -9.6e-05  0.97601  0.0  0.103184  -0.000125  0.976697  0.0  0.115555  0.103729  -7.5e-05  0.975696  0.0
H  H16  1  0.34403311  0.69284619  0.68832546  1  0.113116  0.000157  0.989187  0.0  0.122372  0.000183  1.051656  0.0  0.124441  0.000119  1.051832  0.0  0.117546  0.120739  0.000253  1.051756  0.0
H  H17  1  0.65596411  0.30715178  0.31167803  1  0.113072  0.000157  0.989158  0.0  0.122365  0.000183  1.051601  0.0  0.124433  0.000119  1.051779  0.0  0.117539  0.120733  0.000253  1.051702  0.0
H  H18  1  0.65539400  0.35017729  0.91630001  1  0.08765  -0.000137  0.935808  0.001  0.098921  -4.5e-05  0.996385  0.0  0.100999  -6.5e-05  0.993802  0.0  0.135329  0.097098  -5e-06  0.998622  0.0
H  H19  1  0.34460099  0.64982069  0.08370404  1  0.087682  -0.000138  0.935726  0.001  0.098906  -4.5e-05  0.996345  0.0  0.10098  -6.5e-05  0.993768  0.0  0.135313  0.097082  -5e-06  0.998578  0.0
C  C20  1  0.98650908  0.18096856  0.17231769  1  0.250452  -0.008862  3.800078  -0.007  0.241271  -0.004118  4.070794  -0.003  0.249383  -0.00468  4.091176  -0.003  0.094914  0.235124  -0.003001  4.056741  -0.002
C  C21  1  0.01349484  0.81902933  0.82767918  1  0.250526  -0.008897  3.7999  -0.007  0.24132  -0.004118  4.070655  -0.003  0.249433  -0.00468  4.091035  -0.003  0.094934  0.235171  -0.003001  4.056608  -0.002
C  C22  1  0.90448950  0.13283714  0.09968702  1  -0.166384  0.005468  3.671157  0.007  -0.199695  0.004392  3.92927  0.006  -0.200937  0.003599  3.946572  0.005  -0.09234  -0.198772  0.004578  3.918472  0.006
C  C23  1  0.09551440  0.86715949  0.90031234  1  -0.166367  0.00549  3.670995  0.007  -0.199676  0.004392  3.929109  0.006  -0.200916  0.003599  3.946404  0.005  -0.092323  -0.198748  0.004577  3.918302  0.006
C  C24  1  0.77179287  0.04147148  0.18501584  1  -0.057483  0.001685  3.80488  0.004  -0.032738  0.001483  4.043095  0.003  -0.040807  -4.1e-05  4.065865  0.001  -0.021202  -0.02766  0.002961  4.029325  0.005
C  C25  1  0.22820992  0.95852644  0.81498329  1  -0.057547  0.001653  3.804773  0.004  -0.032818  0.001482  4.043046  0.003  -0.040887  -4.1e-05  4.065817  0.001  -0.021253  -0.027738  0.002961  4.029277  0.005
C  C26  1  0.72343239  0.98903818  0.34437420  1  -0.100422  0.006443  3.706679  0.008  -0.141619  0.004884  3.958456  0.006  -0.140486  0.003802  3.975663  0.005  -0.091441  -0.142953  0.006488  3.948279  0.008
C  C27  1  0.27656927  0.01096620  0.65562262  1  -0.100322  0.006464  3.706766  0.008  -0.141486  0.004885  3.95849  0.006  -0.140354  0.003802  3.975701  0.005  -0.091369  -0.142817  0.006488  3.948311  0.008
C  C28  1  0.80386800  0.03971613  0.41613698  1  -0.04467  -0.004576  3.804771  -0.003  -0.017556  -0.002564  4.039023  -0.002  -0.022185  -0.003532  4.058129  -0.002  -0.018509  -0.014891  -0.001372  4.026975  -0.001
C  C29  1  0.19613365  0.96028697  0.58386135  1  -0.044677  -0.004613  3.804856  -0.003  -0.017517  -0.002564  4.039038  -0.002  -0.022148  -0.003532  4.058147  -0.002  -0.018451  -0.01485  -0.001372  4.026987  -0.001
C  C30  1  0.93131879  0.13962707  0.32986631  1  -0.164845  0.005762  3.673417  0.008  -0.19797  0.004461  3.929876  0.006  -0.19949  0.003698  3.946365  0.005  -0.087363  -0.196962  0.004591  3.919268  0.006
C  C31  1  0.06868289  0.86037342  0.67013106  1  -0.16499  0.005782  3.67348  0.008  -0.198131  0.004461  3.929954  0.006  -0.199651  0.003697  3.94644  0.005  -0.087457  -0.197126  0.004591  3.919357  0.006
C  C32  1  0.16290069  0.36503042  0.92656012  1  -0.00012  -0.002307  3.711551  -0.002  -0.063702  -0.000815  3.970844  0.0  -0.05879  -0.00082  3.982587  0.0  -0.054368  -0.066992  -0.000772  3.96222  -0.001
C  C33  1  0.83709656  0.63496751  0.07344040  1  -3e-06  -0.002309  3.71139  -0.002  -0.063631  -0.000814  3.970734  0.0  -0.058724  -0.000818  3.982472  0.0  -0.054329  -0.066922  -0.000772  3.96211  -0.001
C  C34  1  0.31910688  0.42300880  0.87862783  1  0.120011  -0.006816  3.79324  -0.004  0.129178  -0.002104  4.051505  -0.001  0.131436  -0.002068  4.076139  -0.001  0.069645  0.127003  -0.002207  4.034899  -0.001
C  C35  1  0.68088926  0.57698913  0.12137296  1  0.119896  -0.00682  3.793377  -0.004  0.129053  -0.002104  4.051677  -0.001  0.131314  -0.002069  4.076308  -0.001  0.069584  0.126878  -0.002207  4.035076  -0.001
C  C36  1  0.38672408  0.57579228  0.76817886  1  -0.049387  0.003412  3.668928  0.004  -0.094113  0.001394  3.922316  0.002  -0.092838  0.001039  3.941366  0.001  0.002435  -0.095104  0.001757  3.910146  0.002
C  C37  1  0.61327313  0.42421214  0.23182106  1  -0.049296  0.003418  3.668991  0.004  -0.09404  0.001394  3.922359  0.002  -0.092768  0.001038  3.941411  0.001  0.002471  -0.095028  0.001757  3.910193  0.002
C  C38  1  0.55098339  0.39879682  0.88608959  1  0.245955  -0.0115  3.650384  -0.007  0.187914  -0.001118  3.929676  0.0  0.204702  -0.000284  3.940012  0.001  0.148302  0.176212  -0.002519  3.922363  -0.001
C  C39  1  0.44901382  0.60120245  0.11391339  1  0.245881  -0.011476  3.650328  -0.007  0.1879  -0.001118  3.929575  0.0  0.204688  -0.000285  3.939911  0.001  0.14829  0.176197  -0.00252  3.922262  -0.001
C  C40  1  0.67644604  0.00726849  0.10410417  1  0.642216  -0.009723  3.882791  -0.006  0.599815  0.003999  4.18434  0.006  0.640354  0.004185  4.175035  0.006  0.21378  0.568964  0.002386  4.188578  0.004
C  C41  1  0.32355338  0.99273206  0.89589773  1  0.642265  -0.009711  3.882699  -0.006  0.599812  0.004  4.184341  0.006  0.640349  0.004185  4.175041  0.006  0.213764  0.568953  0.002387  4.188584  0.004
C  C42  1  0.75188190  0.99709545  0.58344913  1  0.626579  -0.009888  3.907124  -0.008  0.580474  -0.00269  4.208571  -0.002  0.614897  -0.002084  4.204521  -0.002  0.19746  0.556136  -0.003475  4.208865  -0.003
C  C43  1  0.24811752  0.00290768  0.41655075  1  0.626712  -0.009887  3.907019  -0.008  0.580588  -0.00269  4.208487  -0.002  0.615011  -0.002082  4.204435  -0.002  0.197528  0.556249  -0.003476  4.208785  -0.003
N  N44  1  0.12278156  0.26595782  0.09470806  1  -0.417863  0.023428  3.341483  0.043  -0.370783  0.01677  3.60178  0.028  -0.394251  0.012224  3.614544  0.022  -0.43827  -0.351329  0.021902  3.590747  0.035
N  N45  1  0.87722012  0.73404138  0.90528984  1  -0.417863  0.023423  3.341285  0.043  -0.370749  0.01677  3.601594  0.028  -0.394216  0.012224  3.614354  0.022  -0.438231  -0.351299  0.0219  3.590576  0.035
N  N46  1  0.42302200  0.31317910  0.95199645  1  -0.44123  0.034139  3.316811  0.061  -0.405811  0.024896  3.626824  0.036  -0.433139  0.020595  3.639183  0.03  -0.362092  -0.384352  0.028239  3.618524  0.041
N  N47  1  0.57697636  0.68681883  0.04800379  1  -0.441211  0.034134  3.316899  0.061  -0.405742  0.024895  3.626829  0.036  -0.433074  0.020596  3.639189  0.03  -0.362028  -0.384282  0.028237  3.618532  0.041
N  N48  1  0.53286180  0.55736965  0.77393119  1  -0.273956  -0.000134  3.446615  0.001  -0.208052  0.00078  3.681293  0.002  -0.22314  0.000593  3.69269  0.001  -0.376093  -0.198305  0.000783  3.67436  0.002
N  N49  1  0.46713540  0.44262964  0.22607278  1  -0.273996  -0.000144  3.446561  0.001  -0.208101  0.00078  3.681226  0.002  -0.223184  0.000593  3.692614  0.001  -0.376143  -0.19836  0.000783  3.674305  0.002
O  O50  1  0.54185520  0.96640766  0.17656646  1  -0.619265  0.035138  2.124772  0.062  -0.590679  0.026782  2.407643  0.041  -0.627998  0.018886  2.393231  0.028  -0.31619  -0.556857  0.036962  2.415355  0.057
O  O51  1  0.45814529  0.03359423  0.82343764  1  -0.619341  0.035133  2.124823  0.062  -0.590696  0.026783  2.407708  0.041  -0.628014  0.018886  2.393291  0.028  -0.316213  -0.556871  0.036964  2.415418  0.057
O  O52  1  0.73570807  0.02313769  0.96734909  1  -0.603489  0.045123  2.108961  0.078  -0.5706  0.035961  2.389105  0.057  -0.60782  0.02721  2.375581  0.042  -0.308289  -0.539157  0.0445  2.397469  0.07
O  O53  1  0.26428805  0.97686154  0.03265218  1  -0.60347  0.04512  2.108906  0.078  -0.570599  0.03596  2.389106  0.057  -0.607815  0.02721  2.375579  0.042  -0.308272  -0.539153  0.044502  2.397467  0.07
O  O54  1  0.69590431  0.84597672  0.68073170  1  -0.660708  0.036509  2.024267  0.062  -0.622905  0.02856  2.280778  0.045  -0.659972  0.021208  2.27233  0.034  -0.325019  -0.591551  0.036898  2.283996  0.058
O  O55  1  0.30409292  0.15402896  0.31926571  1  -0.660741  0.036512  2.024213  0.062  -0.622964  0.028561  2.280738  0.045  -0.660033  0.021209  2.272289  0.034  -0.325046  -0.591608  0.0369  2.283955  0.058
O  O56  1  0.76339954  0.10566058  0.63096833  1  -0.564702  0.025961  1.912982  0.049  -0.529732  0.020293  2.135621  0.037  -0.560536  0.014855  2.126827  0.028  -0.304366  -0.504872  0.024429  2.141197  0.042
O  O57  1  0.23660321  0.89434384  0.36903020  1  -0.564735  0.025961  1.912939  0.049  -0.529794  0.020293  2.135609  0.037  -0.560595  0.014854  2.126813  0.028  -0.304407  -0.504933  0.02443  2.141187  0.042
