# generated using pymatgen
data_ZnH26C36S2(N3O)4
_symmetry_space_group_name_H-M   'P 1'
_cell_length_a   8.80783695
_cell_length_b   8.85058600
_cell_length_c   11.66512286
_cell_angle_alpha   76.35843474
_cell_angle_beta   78.00278344
_cell_angle_gamma   87.49264518
_symmetry_Int_Tables_number   1
_chemical_formula_structural   ZnH26C36S2(N3O)4
_chemical_formula_sum   'Zn1 H26 C36 S2 N12 O4'
_cell_volume   864.38116419
_cell_formula_units_Z   1
loop_
 _symmetry_equiv_pos_site_id
 _symmetry_equiv_pos_as_xyz
  1  'x, y, z'
loop_
 _atom_site_type_symbol
 _atom_site_label
 _atom_site_symmetry_multiplicity
 _atom_site_fract_x
 _atom_site_fract_y
 _atom_site_fract_z
 _atom_site_occupancy
 _atom_site_hle17_bader_spin_density
 _atom_site_hle17_ddec_charge
 _atom_site_hle17_ddec_spin_density
 _atom_site_hle17_ddec_sum_bond_order
 _atom_site_hle17_magmom
 _atom_site_hse06_10hf_bader_spin_density
 _atom_site_hse06_10hf_ddec_charge
 _atom_site_hse06_10hf_ddec_spin_density
 _atom_site_hse06_10hf_ddec_sum_bond_order
 _atom_site_hse06_10hf_magmom
 _atom_site_hse06_bader_spin_density
 _atom_site_hse06_ddec_charge
 _atom_site_hse06_ddec_spin_density
 _atom_site_hse06_ddec_sum_bond_order
 _atom_site_hse06_magmom
 _atom_site_pbe_bader_spin_density
 _atom_site_pbe_cm5_charge
 _atom_site_pbe_ddec_charge
 _atom_site_pbe_ddec_spin_density
 _atom_site_pbe_ddec_sum_bond_order
 _atom_site_pbe_magmom
Zn  Zn0  1  0.99999768  0.00000029  0.00000304  1  0  0.922569  0  2.049952  0  0  0.721474  0  2.513462  0  0  0.765885  0  2.469616  0  0  0.703488  0.691029  0  2.542893  0
H  H1  1  0.19235043  0.44301978  0.58947548  1  0  0.289473  0  0.902143  0  0  0.270226  0  0.969296  0  0  0.278383  0  0.962616  0  0  0.316027  0.26437  0  0.974177  0
H  H2  1  0.80765406  0.55697909  0.41052159  1  0  0.289493  0  0.902122  0  0  0.270244  0  0.969263  0  0  0.278402  0  0.962582  0  0  0.316018  0.264391  0  0.974143  0
H  H3  1  0.28058761  0.69973668  0.63561079  1  0  0.298205  0  0.886445  0  0  0.282255  0  0.946624  0  0  0.290121  0  0.939942  0  0  0.320838  0.27664  0  0.951478  0
H  H4  1  0.71940078  0.30027271  0.36438968  1  0  0.298217  0  0.886449  0  0  0.282267  0  0.946645  0  0  0.290132  0  0.939955  0  0  0.320852  0.276658  0  0.9515  0
H  H5  1  0.81196160  0.90828658  0.81978384  1  0  0.079677  0  0.97829  0  0  0.08848  0  1.042623  0  0  0.090148  0  1.042011  0  0  0.112241  0.087212  0  1.043186  0
H  H6  1  0.18803718  0.09171463  0.18021720  1  0  0.079688  0  0.978273  0  0  0.088482  0  1.042618  0  0  0.090151  0  1.042003  0  0  0.112243  0.087207  0  1.043189  0
H  H7  1  0.79845647  0.97737927  0.60096131  1  0  0.12172  0  0.957746  0  0  0.129101  0  1.019727  0  0  0.132746  0  1.01801  0  0  0.108531  0.126499  0  1.021049  0
H  H8  1  0.20154226  0.02261846  0.39903950  1  0  0.121754  0  0.957728  0  0  0.12912  0  1.019736  0  0  0.132763  0  1.018023  0  0  0.108547  0.126526  0  1.021027  0
H  H9  1  0.96072372  0.20313518  0.46394603  1  0  0.11425  0  0.964084  0  0  0.12233  0  1.026585  0  0  0.12648  0  1.022889  0  0  0.10827  0.119304  0  1.029331  0
H  H10  1  0.03927607  0.79685906  0.53605179  1  0  0.114214  0  0.964186  0  0  0.122304  0  1.02667  0  0  0.12645  0  1.022978  0  0  0.108246  0.11928  0  1.029414  0
H  H11  1  0.09730006  0.28266170  0.78003310  1  0  0.096819  0  0.947792  0  0  0.106414  0  1.007079  0  0  0.108876  0  1.005677  0  0  0.118471  0.104588  0  1.008199  0
H  H12  1  0.90269982  0.71733835  0.21996538  1  0  0.096872  0  0.947782  0  0  0.106483  0  1.007046  0  0  0.108944  0  1.005644  0  0  0.1185  0.10466  0  1.008164  0
H  H13  1  0.35463677  0.54651676  0.19650590  1  0  0.120728  0  0.9533  0  0  0.125147  0  1.023232  0  0  0.129495  0  1.02014  0  0  0.10825  0.121993  0  1.025564  0
H  H14  1  0.64537585  0.45349023  0.80348492  1  0  0.120729  0  0.953312  0  0  0.125067  0  1.023297  0  0  0.129415  0  1.020203  0  0  0.108238  0.121914  0  1.025625  0
H  H15  1  0.57222727  0.74333525  0.14325875  1  0  0.096621  0  0.97759  0  0  0.105379  0  1.040058  0  0  0.107488  0  1.039544  0  0  0.104597  0.103836  0  1.040509  0
H  H16  1  0.42777508  0.25667293  0.85674130  1  0  0.096625  0  0.977579  0  0  0.10541  0  1.040026  0  0  0.107519  0  1.039513  0  0  0.104605  0.103868  0  1.040477  0
H  H17  1  0.63365038  0.85673951  0.30745263  1  0  0.111993  0  0.96001  0  0  0.116644  0  1.029226  0  0  0.119711  0  1.028818  0  0  0.108104  0.114345  0  1.029767  0
H  H18  1  0.36635414  0.14326053  0.69254508  1  0  0.111996  0  0.960032  0  0  0.116657  0  1.029233  0  0  0.11973  0  1.028806  0  0  0.108133  0.114355  0  1.029778  0
H  H19  1  0.61478066  0.75713065  0.75695513  1  0  0.124825  0  0.940369  0  0  0.133201  0  1.001894  0  0  0.136426  0  0.999671  0  0  0.115247  0.130867  0  1.00354  0
H  H20  1  0.38521468  0.24287174  0.24304799  1  0  0.124774  0  0.940367  0  0  0.133195  0  1.001848  0  0  0.13642  0  0.999624  0  0  0.11523  0.130862  0  1.003494  0
H  H21  1  0.58664106  0.83430656  0.95298957  1  0  0.094123  0  0.997454  0  0  0.10153  0  1.065281  0  0  0.103877  0  1.064664  0  0  0.101262  0.099818  0  1.065898  0
H  H22  1  0.41335546  0.16570513  0.04700826  1  0  0.094122  0  0.997485  0  0  0.101539  0  1.065283  0  0  0.103886  0  1.064665  0  0  0.101293  0.099826  0  1.0659  0
H  H23  1  0.32726249  0.92392274  0.04907576  1  0  0.068431  0  0.97262  0  0  0.074007  0  1.045755  0  0  0.075999  0  1.044933  0  0  0.10917  0.072569  0  1.046371  0
H  H24  1  0.67273402  0.07607965  0.95092717  1  0  0.068357  0  0.972617  0  0  0.073921  0  1.045774  0  0  0.075913  0  1.044949  0  0  0.109109  0.072481  0  1.046394  0
H  H25  1  0.12594994  0.85235198  0.77582481  1  0  0.090681  0  0.939248  0  0  0.100129  0  1.000186  0  0  0.102381  0  0.999144  0  0  0.119189  0.098477  0  1.001016  0
H  H26  1  0.87404194  0.14764577  0.22418229  1  0  0.090641  0  0.939227  0  0  0.100075  0  1.000192  0  0  0.102326  0  0.99915  0  0  0.119149  0.098422  0  1.00102  0
C  C27  1  0.87178839  0.01014642  0.75844832  1  0  0.087233  0  3.721831  0  0  0.05581  0  3.977429  0  0  0.060431  0  3.99605  0  0  0.031156  0.052895  0  3.964727  0
C  C28  1  0.12820573  0.98985481  0.24155264  1  0  0.087282  0  3.721915  0  0  0.055862  0  3.977488  0  0  0.060484  0  3.996111  0  0  0.031185  0.052946  0  3.964799  0
C  C29  1  0.86819234  0.04731614  0.63627232  1  0  -0.104749  0  3.743773  0  0  -0.115583  0  3.996613  0  0  -0.120935  0  4.018787  0  0  -0.085622  -0.112079  0  3.981574  0
C  C30  1  0.13180755  0.95268391  0.36372702  1  0  -0.104808  0  3.743739  0  0  -0.115644  0  3.996589  0  0  -0.120994  0  4.018759  0  0  -0.085636  -0.112137  0  3.981558  0
C  C31  1  0.95593604  0.17248627  0.56038403  1  0  -0.101101  0  3.677095  0  0  -0.127687  0  3.929608  0  0  -0.128099  0  3.947413  0  0  -0.076469  -0.127116  0  3.917526  0
C  C32  1  0.04406496  0.82751029  0.43961489  1  0  -0.101074  0  3.677055  0  0  -0.12768  0  3.92957  0  0  -0.128089  0  3.94737  0  0  -0.076444  -0.127112  0  3.917489  0
C  C33  1  0.04252678  0.25926889  0.61082394  1  0  0.217082  0  3.78678  0  0  0.21269  0  4.037417  0  0  0.217622  0  4.059018  0  0  0.104571  0.209052  0  4.022867  0
C  C34  1  0.95747655  0.74072999  0.38917332  1  0  0.217265  0  3.78661  0  0  0.212896  0  4.037206  0  0  0.217833  0  4.058798  0  0  0.104631  0.20926  0  4.022656  0
C  C35  1  0.03432313  0.21723651  0.73596815  1  0  0.027553  0  3.656897  0  0  -0.005656  0  3.909268  0  0  -0.002414  0  3.926275  0  0  0.044964  -0.007659  0  3.897753  0
C  C36  1  0.96567790  0.78276238  0.26403035  1  0  0.027474  0  3.65687  0  0  -0.005765  0  3.909236  0  0  -0.002524  0  3.92624  0  0  0.044961  -0.007769  0  3.897722  0
C  C37  1  0.18650800  0.42819262  0.42155017  1  0  0.504803  0  3.842509  0  0  0.457969  0  4.13229  0  0  0.485984  0  4.132669  0  0  0.238768  0.439149  0  4.131519  0
C  C38  1  0.81349984  0.57180159  0.57844288  1  0  0.504939  0  3.842247  0  0  0.45819  0  4.131894  0  0  0.486202  0  4.132279  0  0  0.238869  0.439376  0  4.13113  0
C  C39  1  0.31048247  0.55236782  0.38460171  1  0  0.104161  0  3.76698  0  0  0.110292  0  4.013543  0  0  0.109985  0  4.033986  0  0  0.113749  0.110179  0  3.999941  0
C  C40  1  0.68952423  0.44763104  0.61538984  1  0  0.104172  0  3.766814  0  0  0.110239  0  4.013417  0  0  0.109934  0  4.03386  0  0  0.113735  0.110097  0  3.999858  0
C  C41  1  0.38758619  0.59779094  0.26425662  1  0  -0.085771  0  3.639151  0  0  -0.109933  0  3.882663  0  0  -0.112025  0  3.900984  0  0  -0.064993  -0.10851  0  3.870512  0
C  C42  1  0.61242061  0.40221258  0.73573665  1  0  -0.085631  0  3.639011  0  0  -0.109678  0  3.882532  0  0  -0.111768  0  3.900848  0  0  -0.064946  -0.108247  0  3.870389  0
C  C43  1  0.50650879  0.70790709  0.23521127  1  0  -0.007342  0  3.695755  0  0  -0.021134  0  3.943314  0  0  -0.020667  0  3.962411  0  0  -0.064509  -0.021389  0  3.930386  0
C  C44  1  0.49349810  0.29209642  0.76478627  1  0  -0.007512  0  3.696  0  0  -0.021352  0  3.943573  0  0  -0.020896  0  3.962694  0  0  -0.06456  -0.0216  0  3.930624  0
C  C45  1  0.54242099  0.77018579  0.32548631  1  0  -0.096703  0  3.66797  0  0  -0.121849  0  3.917718  0  0  -0.124294  0  3.936843  0  0  -0.071169  -0.120187  0  3.905019  0
C  C46  1  0.45757898  0.22981891  0.67451390  1  0  -0.096591  0  3.668029  0  0  -0.12175  0  3.917784  0  0  -0.124193  0  3.936912  0  0  -0.071192  -0.120085  0  3.905084  0
C  C47  1  0.45671946  0.71990363  0.44285094  1  0  0.111886  0  3.768967  0  0  0.116448  0  4.019607  0  0  0.11714  0  4.037572  0  0  0.115919  0.115763  0  4.007497  0
C  C48  1  0.54328156  0.28009293  0.55714883  1  0  0.11181  0  3.76901  0  0  0.116349  0  4.019612  0  0  0.117037  0  4.037583  0  0  0.115934  0.115666  0  4.007495  0
C  C49  1  0.49016645  0.78683294  0.54225058  1  0  0.51685  0  3.836235  0  0  0.469181  0  4.126929  0  0  0.497845  0  4.125467  0  0  0.242525  0.449936  0  4.127303  0
C  C50  1  0.50983459  0.21315780  0.45775366  1  0  0.516684  0  3.83611  0  0  0.469178  0  4.126586  0  0  0.497835  0  4.125125  0  0  0.24248  0.449943  0  4.126971  0
C  C51  1  0.37242820  0.80302275  0.75023493  1  0  0.20533  0  3.801612  0  0  0.202287  0  4.053237  0  0  0.20626  0  4.07367  0  0  0.101066  0.199225  0  4.039606  0
C  C52  1  0.62756592  0.19697383  0.24976857  1  0  0.205312  0  3.801587  0  0  0.20218  0  4.053397  0  0  0.206146  0  4.073833  0  0  0.101033  0.199131  0  4.03977  0
C  C53  1  0.50422868  0.79821930  0.80016708  1  0  -0.083767  0  3.66304  0  0  -0.110466  0  3.91309  0  0  -0.109314  0  3.93001  0  0  -0.063691  -0.110986  0  3.901769  0
C  C54  1  0.49576545  0.20178077  0.19983494  1  0  -0.083776  0  3.66304  0  0  -0.110451  0  3.913068  0  0  -0.1093  0  3.92999  0  0  -0.063661  -0.110972  0  3.901744  0
C  C55  1  0.48780911  0.84113483  0.90943229  1  0  -0.116182  0  3.763822  0  0  -0.126535  0  4.014571  0  0  -0.132754  0  4.037605  0  0  -0.08748  -0.122593  0  3.999186  0
C  C56  1  0.51218854  0.15886988  0.09056831  1  0  -0.116204  0  3.763897  0  0  -0.126562  0  4.014655  0  0  -0.132784  0  4.037691  0  0  -0.087483  -0.122618  0  3.999265  0
C  C57  1  0.34395945  0.88945547  0.96369630  1  0  0.114754  0  3.698258  0  0  0.084027  0  3.94721  0  0  0.089033  0  3.966408  0  0  0.039166  0.080824  0  3.934218  0
C  C58  1  0.65603820  0.11054575  0.03630664  1  0  0.114874  0  3.698279  0  0  0.084163  0  3.947211  0  0  0.089167  0  3.966421  0  0  0.03918  0.08096  0  3.934221  0
C  C59  1  0.23117541  0.85051643  0.81166605  1  0  0.040978  0  3.666543  0  0  0.004486  0  3.919997  0  0  0.009536  0  3.935025  0  0  0.047542  0.001238  0  3.909942  0
C  C60  1  0.76881757  0.14948131  0.18833829  1  0  0.041077  0  3.666515  0  0  0.004589  0  3.920035  0  0  0.00964  0  3.935068  0  0  0.047578  0.001344  0  3.909972  0
C  C61  1  0.17117936  0.31804701  0.98965345  1  0  0.285952  0  4.099713  0  0  0.268487  0  4.40333  0  0  0.293151  0  4.414046  0  0  0.132855  0.251837  0  4.395391  0
C  C62  1  0.82881488  0.68196004  0.01034988  1  0  0.28607  0  4.099819  0  0  0.268608  0  4.403405  0  0  0.293269  0  4.414122  0  0  0.132918  0.251959  0  4.395471  0
S  S63  1  0.24361500  0.48082786  0.99134021  1  0  -0.350048  0  2.024795  0  0  -0.336075  0  2.304229  0  0  -0.352619  0  2.302867  0  0  -0.182668  -0.324183  0  2.304729  0
S  S64  1  0.75637802  0.51917337  0.00866351  1  0  -0.350121  0  2.024617  0  0  -0.336143  0  2.304024  0  0  -0.35269  0  2.302663  0  0  -0.182709  -0.324248  0  2.304526  0
N  N65  1  0.95313098  0.09426866  0.80764932  1  0  -0.299139  0  3.280804  0  0  -0.227786  0  3.544608  0  0  -0.243315  0  3.563892  0  0  -0.314936  -0.217239  0  3.531371  0
N  N66  1  0.04686779  0.90573488  0.19234959  1  0  -0.299152  0  3.280891  0  0  -0.227774  0  3.544669  0  0  -0.243303  0  3.563953  0  0  -0.31496  -0.217227  0  3.531429  0
N  N67  1  0.13773569  0.38393687  0.54402541  1  0  -0.430059  0  3.409293  0  0  -0.379734  0  3.65361  0  0  -0.401968  0  3.663963  0  0  -0.396778  -0.364388  0  3.646182  0
N  N68  1  0.86227107  0.61606083  0.45596976  1  0  -0.43033  0  3.4094  0  0  -0.38002  0  3.653682  0  0  -0.402257  0  3.664031  0  0  -0.396867  -0.364677  0  3.646262  0
N  N69  1  0.34400828  0.61253122  0.47203407  1  0  -0.365026  0  3.170813  0  0  -0.336043  0  3.429933  0  0  -0.345528  0  3.446957  0  0  -0.310772  -0.329232  0  3.418437  0
N  N70  1  0.65599381  0.38746301  0.52796251  1  0  -0.364984  0  3.170755  0  0  -0.335997  0  3.429897  0  0  -0.345482  0  3.446922  0  0  -0.310718  -0.329176  0  3.418408  0
N  N71  1  0.37487429  0.75668803  0.64309679  1  0  -0.437155  0  3.3788  0  0  -0.385739  0  3.620856  0  0  -0.407486  0  3.630099  0  0  -0.396026  -0.370799  0  3.614305  0
N  N72  1  0.62512097  0.24330855  0.35690567  1  0  -0.43703  0  3.378664  0  0  -0.38566  0  3.620715  0  0  -0.407389  0  3.629946  0  0  -0.396003  -0.370754  0  3.614191  0
N  N73  1  0.21760713  0.89484584  0.91518572  1  0  -0.285052  0  3.292503  0  0  -0.209897  0  3.554215  0  0  -0.226146  0  3.572704  0  0  -0.312546  -0.198957  0  3.541618  0
N  N74  1  0.78238938  0.10515306  0.08481954  1  0  -0.285104  0  3.292613  0  0  -0.209915  0  3.554309  0  0  -0.226163  0  3.572789  0  0  -0.312521  -0.198976  0  3.541713  0
N  N75  1  0.12455213  0.19478160  0.98656439  1  0  -0.594467  0  3.012256  0  0  -0.532907  0  3.31227  0  0  -0.555397  0  3.313996  0  0  -0.417627  -0.517414  0  3.310662  0
N  N76  1  0.87543851  0.80521848  0.01343822  1  0  -0.594531  0  3.01255  0  0  -0.532998  0  3.312607  0  0  -0.555485  0  3.31433  0  0  -0.417655  -0.517509  0  3.311006  0
O  O77  1  0.13880040  0.37434503  0.34685291  1  0  -0.510079  0  1.906275  0  0  -0.471349  0  2.117877  0  0  -0.490284  0  2.112685  0  0  -0.284477  -0.45834  0  2.121138  0
O  O78  1  0.86120748  0.62564686  0.65314312  1  0  -0.510191  0  1.905965  0  0  -0.471472  0  2.117507  0  0  -0.490402  0  2.112311  0  0  -0.284587  -0.458462  0  2.120769  0
O  O79  1  0.61017033  0.86128659  0.53065718  1  0  -0.518748  0  1.932425  0  0  -0.478887  0  2.154311  0  0  -0.498822  0  2.150379  0  0  -0.284452  -0.46507  0  2.156596  0
O  O80  1  0.38983999  0.13868900  0.46935421  1  0  -0.518714  0  1.932288  0  0  -0.478888  0  2.154043  0  0  -0.498815  0  2.150096  0  0  -0.284477  -0.465071  0  2.156325  0
