# generated using pymatgen
data_Zn3Si2H34(C7O2)8
_symmetry_space_group_name_H-M   'P 1'
_cell_length_a   13.77911149
_cell_length_b   14.64411542
_cell_length_c   24.14921063
_cell_angle_alpha   79.92260868
_cell_angle_beta   73.45063441
_cell_angle_gamma   61.96245343
_symmetry_Int_Tables_number   1
_chemical_formula_structural   Zn3Si2H34(C7O2)8
_chemical_formula_sum   'Zn6 Si4 H68 C112 O32'
_cell_volume   4117.97779075
_cell_formula_units_Z   2
loop_
 _symmetry_equiv_pos_site_id
 _symmetry_equiv_pos_as_xyz
  1  'x, y, z'
loop_
 _atom_site_type_symbol
 _atom_site_label
 _atom_site_symmetry_multiplicity
 _atom_site_fract_x
 _atom_site_fract_y
 _atom_site_fract_z
 _atom_site_occupancy
 _atom_site_pbe_bader_charge
 _atom_site_pbe_bader_spin_density
 _atom_site_pbe_cm5_charge
 _atom_site_pbe_ddec_charge
 _atom_site_pbe_ddec_spin_density
 _atom_site_pbe_ddec_sum_bond_order
 _atom_site_pbe_magmom
Zn  Zn0  1  0.27387329  0.07424868  0.96207813  1  1.307301  0  0.677482  0.900311  0  2.348874  0
Zn  Zn1  1  0.31001203  0.42581664  0.53796646  1  1.30693  0  0.677446  0.900097  0  2.348272  0
Zn  Zn2  1  0.72612578  0.92575181  0.03792268  1  1.307328  0  0.677475  0.90028  0  2.348974  0
Zn  Zn3  1  0.68998931  0.57418383  0.46203191  1  1.30693  0  0.677381  0.90003  0  2.348428  0
Zn  Zn4  1  0.50000103  0.99999821  0.00000091  1  1.401399  0  0.69515  1.018274  0  2.200721  0
Zn  Zn5  1  0.49999896  0.49999985  0.49999910  1  1.400694  0  0.694939  1.018416  0  2.200021  0
Si  Si6  1  0.64616837  0.44575339  0.83604312  1  2.688985  0  0.13956  0.666342  0  3.853678  0
Si  Si7  1  0.92763614  0.05416791  0.66405279  1  2.681134  0  0.139641  0.667846  0  3.850211  0
Si  Si8  1  0.35382957  0.55424787  0.16395656  1  2.688924  0  0.139525  0.666331  0  3.853614  0
Si  Si9  1  0.07236595  0.94583103  0.33594728  1  2.681176  0  0.139642  0.667968  0  3.850196  0
H  H10  1  0.27417662  0.19099098  0.86176029  1  0.629373  0  0.346225  0.387443  0  0.863035  0
H  H11  1  0.46458688  0.83622725  0.82491097  1  0.07812  0  0.103834  0.105868  0  0.995057  0
H  H12  1  0.55245585  0.66297620  0.78381691  1  0.082276  0  0.098077  0.093067  0  1.017547  0
H  H13  1  0.60678237  0.51788186  0.95155824  1  0.056201  0  0.100089  0.090416  0  1.004468  0
H  H14  1  0.52576698  0.69143380  0.99034605  1  0.125538  0  0.097881  0.100774  0  1.053954  0
H  H15  1  0.55380921  0.14446157  0.88061843  1  0.108038  0  0.09968  0.104139  0  1.049827  0
H  H16  1  0.41143362  0.51649330  0.91275883  1  0.048422  0  0.099957  0.093257  0  1.01269  0
H  H17  1  0.28614461  0.42902098  0.95239403  1  0.103839  0  0.110296  0.116331  0  0.982821  0
H  H18  1  0.82050426  0.43914112  0.72136240  1  0.048927  0  0.095613  0.083795  0  1.037489  0
H  H19  1  0.80028809  0.48461543  0.62003970  1  0.087518  0  0.105264  0.108773  0  1.002855  0
H  H20  1  0.45654977  0.53006057  0.67377660  1  0.099429  0  0.109023  0.115677  0  0.98911  0
H  H21  1  0.47279069  0.48922080  0.77619574  1  0.072286  0  0.102685  0.096059  0  1.005679  0
H  H22  1  0.76059254  0.24941686  0.90651147  1  0.064474  0  0.103918  0.09709  0  1.020008  0
H  H23  1  0.95257897  0.15699551  0.92554194  1  0.101783  0  0.114166  0.117869  0  0.982559  0
H  H24  1  0.04834535  0.37728418  0.81136432  1  0.106321  0  0.11266  0.11499  0  0.986433  0
H  H25  1  0.85409565  0.47547538  0.79641634  1  0.055284  0  0.108572  0.099813  0  0.994152  0
H  H26  1  0.67706839  0.23072602  0.83707269  1  0.048292  0  0.098515  0.090282  0  1.024853  0
H  H27  1  0.32669301  0.30897059  0.63835813  1  0.638098  0  0.346877  0.389309  0  0.861118  0
H  H28  1  0.12619219  0.66368329  0.67499026  1  0.079214  0  0.103707  0.106007  0  0.994146  0
H  H29  1  0.99925173  0.83684146  0.71612829  1  0.053357  0  0.098147  0.093056  0  1.017205  0
H  H30  1  0.07567913  0.98238073  0.54851936  1  0.05067  0  0.099962  0.090493  0  1.004556  0
H  H31  1  0.20730637  0.80894922  0.50963508  1  0.115411  0  0.098246  0.101273  0  1.053126  0
H  H32  1  0.57891903  0.35547359  0.61944226  1  0.109644  0  0.099863  0.103621  0  1.049876  0
H  H33  1  0.84031743  0.98353894  0.58720213  1  0.085884  0  0.100004  0.093625  0  1.011569  0
H  H34  1  0.66724323  0.07110243  0.54750977  1  0.100368  0  0.110047  0.115534  0  0.983179  0
H  H35  1  0.98072032  0.06066129  0.77886745  1  0.061451  0  0.095941  0.084141  0  1.03652  0
H  H36  1  0.90444651  0.01522248  0.88014838  1  0.090665  0  0.105238  0.108518  0  1.002961  0
H  H37  1  0.65994942  0.96992306  0.82609204  1  0.104427  0  0.109119  0.114954  0  0.989059  0
H  H38  1  0.73803451  0.01073776  0.72371283  1  0.071279  0  0.102135  0.095546  0  1.005403  0
H  H39  1  0.91633441  0.25055616  0.59350293  1  0.076264  0  0.104348  0.097924  0  1.019752  0
H  H40  1  0.03515014  0.34279348  0.57434945  1  0.099114  0  0.114436  0.118058  0  0.981628  0
H  H41  1  0.23683528  0.12256689  0.68863015  1  0.108326  0  0.112902  0.115403  0  0.987348  0
H  H42  1  0.12576783  0.02438417  0.70359897  1  0.09119  0  0.108367  0.100225  0  0.994  0
H  H43  1  0.74473342  0.26913472  0.66307399  1  0.044144  0  0.098393  0.089783  0  1.025871  0
H  H44  1  0.72581791  0.80900952  0.13824168  1  0.629345  0  0.346194  0.387397  0  0.863042  0
H  H45  1  0.53541635  0.16377244  0.17508676  1  0.078173  0  0.10384  0.105868  0  0.995058  0
H  H46  1  0.44754284  0.33702350  0.21618239  1  0.082306  0  0.098091  0.093116  0  1.017487  0
H  H47  1  0.39321480  0.48211784  0.04844132  1  0.056181  0  0.100106  0.090463  0  1.004525  0
H  H48  1  0.47423398  0.30856591  0.00965288  1  0.125553  0  0.097877  0.100781  0  1.053961  0
H  H49  1  0.44618834  0.85553737  0.11938239  1  0.108074  0  0.099684  0.104145  0  1.049823  0
H  H50  1  0.58856621  0.48350874  0.08724168  1  0.048441  0  0.099943  0.093233  0  1.012622  0
H  H51  1  0.71385408  0.57098028  0.04760635  1  0.103857  0  0.110313  0.116348  0  0.982825  0
H  H52  1  0.17949330  0.56085936  0.27863784  1  0.048893  0  0.095653  0.083875  0  1.037373  0
H  H53  1  0.19971289  0.51538738  0.37996013  1  0.087508  0  0.105256  0.108762  0  1.002839  0
H  H54  1  0.54345006  0.46994146  0.32622267  1  0.099444  0  0.109023  0.115703  0  0.989085  0
H  H55  1  0.52720611  0.51077970  0.22380544  1  0.072676  0  0.102724  0.09623  0  1.005671  0
H  H56  1  0.23940389  0.75058749  0.09348729  1  0.064505  0  0.103912  0.097071  0  1.020024  0
H  H57  1  0.04741217  0.84301042  0.07445958  1  0.102103  0  0.114192  0.117916  0  0.982538  0
H  H58  1  0.95165146  0.62271943  0.18863859  1  0.106299  0  0.112706  0.115071  0  0.986376  0
H  H59  1  0.14590116  0.52452668  0.20358633  1  0.055165  0  0.108567  0.099833  0  0.994127  0
H  H60  1  0.32293255  0.76926904  0.16292717  1  0.048324  0  0.098514  0.090277  0  1.024878  0
H  H61  1  0.67331059  0.69102985  0.36163656  1  0.638218  0  0.346893  0.389309  0  0.861073  0
H  H62  1  0.87380914  0.33631410  0.32501011  1  0.078955  0  0.103717  0.10602  0  0.994113  0
H  H63  1  0.00075150  0.16315824  0.28387068  1  0.053527  0  0.098169  0.093083  0  1.017181  0
H  H64  1  0.92432260  0.01762053  0.45148010  1  0.050693  0  0.099953  0.090479  0  1.004578  0
H  H65  1  0.79269345  0.19105127  0.49036479  1  0.115406  0  0.098253  0.101271  0  1.053122  0
H  H66  1  0.42107965  0.64452611  0.38055704  1  0.109569  0  0.099865  0.103625  0  1.049884  0
H  H67  1  0.15968239  0.01646156  0.41279856  1  0.085882  0  0.100001  0.093615  0  1.01159  0
H  H68  1  0.33276037  0.92889495  0.45248981  1  0.10012  0  0.110036  0.115511  0  0.983201  0
H  H69  1  0.01928631  0.93933456  0.22113346  1  0.061577  0  0.095965  0.084161  0  1.036579  0
H  H70  1  0.09555897  0.98477259  0.11985238  1  0.090765  0  0.105246  0.108523  0  1.002935  0
H  H71  1  0.34005383  0.03008130  0.17390807  1  0.104416  0  0.109115  0.114969  0  0.989168  0
H  H72  1  0.26197025  0.98926506  0.27628803  1  0.071176  0  0.102143  0.095593  0  1.00526  0
H  H73  1  0.08366692  0.74944124  0.40649785  1  0.076123  0  0.104341  0.097934  0  1.01972  0
H  H74  1  0.96484816  0.65720547  0.42565166  1  0.099155  0  0.114424  0.118049  0  0.981573  0
H  H75  1  0.76316871  0.87743281  0.31136828  1  0.10823  0  0.112929  0.11542  0  0.987373  0
H  H76  1  0.87423465  0.97561861  0.29639855  1  0.09133  0  0.108405  0.100261  0  0.993992  0
H  H77  1  0.25526262  0.73086578  0.33692774  1  0.044158  0  0.098372  0.089773  0  1.025891  0
C  C78  1  0.43795938  0.87721967  0.93512584  1  1.548798  0  0.219857  0.604767  0  4.155484  0
C  C79  1  0.49055697  0.77374201  0.90999062  1  -0.013379  0  -0.013315  -0.016563  0  3.957223  0
C  C80  1  0.49734986  0.76575151  0.85193817  1  -0.034775  0  -0.084634  -0.095981  0  3.970024  0
C  C81  1  0.54599291  0.66837959  0.82936059  1  -0.088032  0  -0.086014  -0.069559  0  4.026365  0
C  C82  1  0.58552682  0.57753146  0.86457710  1  -0.644401  0  -0.059051  -0.216211  0  4.001898  0
C  C83  1  0.57714198  0.58699792  0.92298305  1  -0.122082  0  -0.083233  -0.06569  0  4.016723  0
C  C84  1  0.53143843  0.68390207  0.94534617  1  -0.023196  0  -0.08451  -0.091852  0  3.949973  0
C  C85  1  0.41330133  0.28139249  0.91930832  1  -0.083041  0  -0.016575  -0.017768  0  3.956747  0
C  C86  1  0.52356503  0.22598689  0.88701245  1  -0.022153  0  -0.086328  -0.089135  0  3.943917  0
C  C87  1  0.55419232  0.38010515  0.87264027  1  -0.667071  0  -0.057196  -0.211393  0  3.984653  0
C  C88  1  0.44319691  0.43487669  0.90518135  1  -0.009145  0  -0.083784  -0.073686  0  4.017003  0
C  C89  1  0.37263454  0.38667990  0.92768219  1  -0.041576  0  -0.078413  -0.092063  0  3.951207  0
C  C90  1  0.33844969  0.22915633  0.94316947  1  1.533052  0  0.199131  0.561897  0  4.203338  0
C  C91  1  0.73940647  0.46050744  0.71197562  1  -0.020611  0  -0.086761  -0.072955  0  4.026492  0
C  C92  1  0.72937008  0.48518837  0.65480233  1  -0.080928  0  -0.081914  -0.092333  0  3.964694  0
C  C93  1  0.62721004  0.51063363  0.64106053  1  -0.01612  0  -0.01461  -0.030827  0  3.963973  0
C  C94  1  0.53519585  0.51126151  0.68514284  1  -0.069433  0  -0.07906  -0.088586  0  3.957439  0
C  C95  1  0.54531152  0.48798927  0.74222746  1  -0.005931  0  -0.080804  -0.067024  0  4.00533  0
C  C96  1  0.64735912  0.46257598  0.75682282  1  -0.674731  0  -0.054465  -0.203863  0  3.975319  0
C  C97  1  0.79332809  0.36822424  0.84882192  1  -0.640362  0  -0.041969  -0.178577  0  3.923149  0
C  C98  1  0.01249077  0.26017884  0.86876316  1  0.001327  0  -0.015675  -0.055999  0  4.009009  0
C  C99  1  0.12362169  0.20518405  0.88314519  1  1.500655  0  0.257639  0.604665  0  4.063636  0
C  C100  1  0.82288833  0.27815837  0.88541524  1  -0.046029  0  -0.076266  -0.063306  0  3.997145  0
C  C101  1  0.93059633  0.22528799  0.89603799  1  -0.05039  0  -0.070657  -0.075008  0  3.938414  0
C  C102  1  0.98516446  0.34940041  0.83168011  1  -0.060097  0  -0.073737  -0.079689  0  3.947249  0
C  C103  1  0.87598237  0.40340839  0.82301130  1  0.008986  0  -0.075854  -0.063786  0  3.996422  0
C  C104  1  0.61703853  0.53277294  0.57965835  1  1.545549  0  0.223494  0.598768  0  4.162942  0
C  C105  1  0.59248663  0.27512783  0.86334679  1  -0.06857  0  -0.084473  -0.07038  0  4.00917  0
C  C106  1  0.25055628  0.62296557  0.56481176  1  1.560999  0  0.218988  0.604201  0  4.151765  0
C  C107  1  0.17443556  0.72641743  0.58994299  1  0.027622  0  -0.013054  -0.016733  0  3.957734  0
C  C108  1  0.11528702  0.73421020  0.64798879  1  -0.070253  0  -0.084533  -0.095274  0  3.967804  0
C  C109  1  0.04381916  0.83151121  0.67060888  1  -0.05046  0  -0.085769  -0.070081  0  4.024625  0
C  C110  1  0.02734699  0.92247922  0.63544336  1  -0.666902  0  -0.059671  -0.215976  0  3.999368  0
C  C111  1  0.08678638  0.91317684  0.57704172  1  -0.04462  0  -0.082726  -0.065364  0  4.015663  0
C  C112  1  0.16059020  0.81635656  0.55464382  1  -0.077665  0  -0.085091  -0.093433  0  3.95045  0
C  C113  1  0.61374765  0.21863798  0.58071163  1  -0.029922  0  -0.016994  -0.019833  0  3.959266  0
C  C114  1  0.63645261  0.27394934  0.61304676  1  -0.073887  0  -0.085472  -0.086375  0  3.942444  0
C  C115  1  0.80667429  0.11983171  0.62742117  1  -0.643508  0  -0.056695  -0.210779  0  3.98325  0
C  C116  1  0.78291675  0.06512130  0.59482566  1  -0.151898  0  -0.08469  -0.075418  0  4.0169  0
C  C117  1  0.68665630  0.11334577  0.57232887  1  0.032542  0  -0.077868  -0.089981  0  3.95079  0
C  C118  1  0.51052685  0.27098029  0.55683129  1  1.497402  0  0.198886  0.561444  0  4.203104  0
C  C119  1  0.91156022  0.03932830  0.78819039  1  -0.038489  0  -0.087185  -0.074208  0  4.027472  0
C  C120  1  0.86891565  0.01467791  0.84533210  1  -0.035448  0  -0.081446  -0.090984  0  3.964459  0
C  C121  1  0.77841326  0.98927227  0.85895240  1  -0.047069  0  -0.014677  -0.030526  0  3.965193  0
C  C122  1  0.73116916  0.98871136  0.81480908  1  -0.104584  0  -0.079281  -0.087283  0  3.956099  0
C  C123  1  0.77526423  0.01190388  0.75775001  1  -0.014475  0  -0.080131  -0.067205  0  4.004274  0
C  C124  1  0.86654775  0.03720701  0.74326663  1  -0.656632  0  -0.054088  -0.203606  0  3.975193  0
C  C125  1  0.01004301  0.13173569  0.65126207  1  -0.639363  0  -0.042393  -0.179574  0  3.921899  0
C  C126  1  0.14134498  0.23966782  0.63120756  1  0.06064  0  -0.01566  -0.053511  0  4.007162  0
C  C127  1  0.21179957  0.29473602  0.61689827  1  1.448602  0  0.257761  0.604655  0  4.058989  0
C  C128  1  0.98632505  0.22172286  0.61458774  1  -0.036956  0  -0.077282  -0.064512  0  3.994645  0
C  C129  1  0.05191335  0.27453569  0.60388506  1  -0.069418  0  -0.070715  -0.075567  0  3.936446  0
C  C130  1  0.16606859  0.15046028  0.66831427  1  -0.045704  0  -0.073722  -0.081283  0  3.94862  0
C  C131  1  0.10217658  0.09644766  0.67700433  1  -0.044956  0  -0.07509  -0.063507  0  3.995419  0
C  C132  1  0.72902699  0.96701206  0.92029604  1  1.553931  0  0.224621  0.599332  0  4.161814  0
C  C133  1  0.73079899  0.22477488  0.63675484  1  -0.02571  0  -0.084397  -0.070569  0  4.008801  0
C  C134  1  0.56203779  0.12278005  0.06487537  1  1.548789  0  0.219824  0.604747  0  4.155462  0
C  C135  1  0.50944285  0.22625847  0.09000924  1  -0.013201  0  -0.013241  -0.016397  0  3.957311  0
C  C136  1  0.50264770  0.23425052  0.14806148  1  -0.034769  0  -0.084712  -0.096046  0  3.970062  0
C  C137  1  0.45400237  0.33162244  0.17063861  1  -0.088207  0  -0.085992  -0.069616  0  4.026296  0
C  C138  1  0.41447111  0.42246978  0.13542133  1  -0.644124  0  -0.059051  -0.216172  0  4.001665  0
C  C139  1  0.42286049  0.41300177  0.07701480  1  -0.121964  0  -0.083294  -0.065797  0  4.01677  0
C  C140  1  0.46856896  0.31609530  0.05465155  1  -0.023481  0  -0.084492  -0.091866  0  3.950087  0
C  C141  1  0.58670002  0.71860801  0.08069294  1  -0.083057  0  -0.01649  -0.01768  0  3.957007  0
C  C142  1  0.47643554  0.77401202  0.11298498  1  -0.022123  0  -0.08636  -0.089212  0  3.944006  0
C  C143  1  0.44580788  0.61989455  0.12735837  1  -0.667067  0  -0.057191  -0.211395  0  3.984703  0
C  C144  1  0.55679761  0.56512687  0.09481615  1  -0.009483  0  -0.083769  -0.073626  0  4.016968  0
C  C145  1  0.62736604  0.61332059  0.07231837  1  -0.041266  0  -0.078467  -0.092142  0  3.951251  0
C  C146  1  0.66154710  0.77084416  0.05683130  1  1.533052  0  0.199154  0.561901  0  4.203213  0
C  C147  1  0.26059333  0.53948839  0.28802352  1  -0.020665  0  -0.086773  -0.072984  0  4.026232  0
C  C148  1  0.27063086  0.51480824  0.34519694  1  -0.080863  0  -0.081876  -0.09226  0  3.964635  0
C  C149  1  0.37278790  0.48936762  0.35893914  1  -0.01646  0  -0.014622  -0.030914  0  3.964046  0
C  C150  1  0.46480209  0.48874131  0.31485749  1  -0.069416  0  -0.079065  -0.088561  0  3.957473  0
C  C151  1  0.45468604  0.51201122  0.25777319  1  -0.006042  0  -0.080835  -0.067281  0  4.005474  0
C  C152  1  0.35264070  0.53742295  0.24317638  1  -0.674815  0  -0.054495  -0.203918  0  3.975194  0
C  C153  1  0.20666947  0.63177627  0.15118039  1  -0.640718  0  -0.041955  -0.178621  0  3.923142  0
C  C154  1  0.98750302  0.73982478  0.13124149  1  0.001437  0  -0.015672  -0.056188  0  4.009149  0
C  C155  1  0.87637020  0.79481881  0.11686027  1  1.500395  0  0.257605  0.604772  0  4.063536  0
C  C156  1  0.17710810  0.72184597  0.11458310  1  -0.046021  0  -0.076276  -0.063259  0  3.996899  0
C  C157  1  0.06939973  0.77471560  0.10396298  1  -0.050812  0  -0.070638  -0.074966  0  3.938245  0
C  C158  1  0.01483235  0.65060165  0.16832214  1  -0.060224  0  -0.073777  -0.07973  0  3.947241  0
C  C159  1  0.12401973  0.59659210  0.17698901  1  0.009471  0  -0.075878  -0.063824  0  3.996483  0
C  C160  1  0.38295901  0.46722600  0.42034123  1  1.545748  0  0.223558  0.598935  0  4.162607  0
C  C161  1  0.40751243  0.72486956  0.13665354  1  -0.068642  0  -0.08447  -0.070344  0  4.00901  0
C  C162  1  0.74944544  0.37703414  0.43518788  1  1.560994  0  0.219017  0.604217  0  4.151758  0
C  C163  1  0.82556540  0.27358228  0.41005718  1  0.027534  0  -0.013041  -0.016748  0  3.957661  0
C  C164  1  0.88471241  0.26578796  0.35201056  1  -0.069867  0  -0.084589  -0.095271  0  3.967681  0
C  C165  1  0.95618444  0.16848618  0.32939112  1  -0.050891  0  -0.085765  -0.07018  0  4.024613  0
C  C166  1  0.97265737  0.07751816  0.36455609  1  -0.66659  0  -0.0597  -0.215967  0  3.999293  0
C  C167  1  0.91321496  0.08682364  0.42295789  1  -0.044741  0  -0.082721  -0.065346  0  4.015615  0
C  C168  1  0.83940886  0.18364238  0.44535675  1  -0.077646  0  -0.085078  -0.093404  0  3.950362  0
C  C169  1  0.38625405  0.78135863  0.41928793  1  -0.029313  0  -0.016933  -0.019752  0  3.959201  0
C  C170  1  0.36354796  0.72604958  0.38695190  1  -0.074573  0  -0.0855  -0.086452  0  3.942567  0
C  C171  1  0.19332402  0.88016879  0.37258060  1  -0.643617  0  -0.056653  -0.210787  0  3.983257  0
C  C172  1  0.21708384  0.93487766  0.40517590  1  -0.15161  0  -0.084709  -0.07543  0  4.016993  0
C  C173  1  0.31334465  0.88665240  0.42767230  1  0.032522  0  -0.077846  -0.089939  0  3.950908  0
C  C174  1  0.48947599  0.72901554  0.44316734  1  1.497538  0  0.19893  0.561586  0  4.202851  0
C  C175  1  0.08844830  0.96066522  0.21181005  1  -0.038401  0  -0.087193  -0.074147  0  4.027496  0
C  C176  1  0.13109135  0.98531716  0.15466883  1  -0.035518  0  -0.081471  -0.091  0  3.964476  0
C  C177  1  0.22158923  0.01073056  0.14104925  1  -0.046881  0  -0.014687  -0.030589  0  3.965129  0
C  C178  1  0.26883372  0.01129224  0.18519325  1  -0.104031  0  -0.079203  -0.087244  0  3.956108  0
C  C179  1  0.22473751  0.98809895  0.24225218  1  -0.015283  0  -0.080181  -0.067226  0  4.004201  0
C  C180  1  0.13345587  0.96279504  0.25673409  1  -0.656772  0  -0.054144  -0.203781  0  3.975277  0
C  C181  1  0.98996021  0.86826090  0.34873601  1  -0.639383  0  -0.042368  -0.179575  0  3.921853  0
C  C182  1  0.85866088  0.76032799  0.36878893  1  0.060412  0  -0.015674  -0.053774  0  4.007222  0
C  C183  1  0.78820440  0.70526057  0.38309885  1  1.448643  0  0.257902  0.605001  0  4.058632  0
C  C184  1  0.01367213  0.77827687  0.38541471  1  -0.036795  0  -0.07729  -0.064582  0  3.994611  0
C  C185  1  0.94808608  0.72546248  0.39611512  1  -0.069324  0  -0.070695  -0.075449  0  3.936466  0
C  C186  1  0.83393276  0.84954174  0.33168435  1  -0.046046  0  -0.073717  -0.081195  0  3.948581  0
C  C187  1  0.89782627  0.90355280  0.32299297  1  -0.044704  0  -0.07515  -0.063561  0  3.995441  0
C  C188  1  0.27097361  0.03299153  0.07970501  1  1.554043  0  0.224584  0.599338  0  4.161782  0
C  C189  1  0.26920160  0.77522561  0.36324531  1  -0.025538  0  -0.084447  -0.070626  0  4.008863  0
O  O190  1  0.35770188  0.95048741  0.91405006  1  -1.157841  0  -0.331712  -0.560122  0  2.274733  0
O  O191  1  0.47299997  0.88559824  0.97642379  1  -1.176672  0  -0.311011  -0.562454  0  2.335521  0
O  O192  1  0.69845012  0.54450839  0.54233359  1  -1.152848  0  -0.317893  -0.533731  0  2.312818  0
O  O193  1  0.52985818  0.53757060  0.56890666  1  -1.171872  0  -0.307218  -0.556451  0  2.3659  0
O  O194  1  0.23506121  0.27811592  0.96253853  1  -1.157218  0  -0.319568  -0.525349  0  2.065477  0
O  O195  1  0.38886104  0.12702724  0.93868536  1  -1.178167  0  -0.340917  -0.626253  0  2.41336  0
O  O196  1  0.13868555  0.14418574  0.92628796  1  -1.15634  0  -0.26658  -0.469414  0  2.341757  0
O  O197  1  0.20516277  0.22605723  0.84693733  1  -1.118307  0  -0.30746  -0.446156  0  2.242591  0
O  O198  1  0.22254720  0.54964248  0.58587698  1  -1.166561  0  -0.331821  -0.560453  0  2.273407  0
O  O199  1  0.33532505  0.61465759  0.52361783  1  -1.183257  0  -0.310213  -0.561235  0  2.332604  0
O  O200  1  0.78496078  0.95518128  0.95759785  1  -1.154612  0  -0.318975  -0.535028  0  2.314837  0
O  O201  1  0.63589717  0.96221487  0.93105336  1  -1.172244  0  -0.307236  -0.555843  0  2.36434  0
O  O202  1  0.47521580  0.22201983  0.53759038  1  -1.14319  0  -0.320088  -0.525786  0  2.065066  0
O  O203  1  0.45458987  0.37315866  0.56117434  1  -1.179985  0  -0.340161  -0.625393  0  2.413744  0
O  O204  1  0.20895284  0.35589051  0.57382181  1  -1.157165  0  -0.266757  -0.469796  0  2.340199  0
O  O205  1  0.27801656  0.27380212  0.65312168  1  -1.12485  0  -0.308197  -0.448492  0  2.240782  0
O  O206  1  0.64229680  0.04951075  0.08594983  1  -1.157803  0  -0.331671  -0.560111  0  2.274749  0
O  O207  1  0.52699909  0.11440224  0.02357620  1  -1.17668  0  -0.311012  -0.562493  0  2.335607  0
O  O208  1  0.30154289  0.45549364  0.45766515  1  -1.152948  0  -0.317894  -0.533758  0  2.312578  0
O  O209  1  0.47014275  0.46242136  0.43109313  1  -1.171951  0  -0.307312  -0.556584  0  2.365822  0
O  O210  1  0.76493674  0.72188845  0.03746204  1  -1.157279  0  -0.319541  -0.5253  0  2.065347  0
O  O211  1  0.61113462  0.87297555  0.06131245  1  -1.178173  0  -0.340973  -0.626291  0  2.413356  0
O  O212  1  0.86130331  0.85581404  0.07371917  1  -1.156097  0  -0.266536  -0.469341  0  2.341874  0
O  O213  1  0.79482985  0.77393941  0.15306663  1  -1.11821  0  -0.30744  -0.446188  0  2.242418  0
O  O214  1  0.77745451  0.45035723  0.41412224  1  -1.166547  0  -0.331825  -0.560457  0  2.273455  0
O  O215  1  0.66467553  0.38534288  0.47638108  1  -1.183252  0  -0.310209  -0.561202  0  2.332541  0
O  O216  1  0.21503867  0.04481844  0.04240340  1  -1.154883  0  -0.318949  -0.534996  0  2.314727  0
O  O217  1  0.36410041  0.03779181  0.06894619  1  -1.172091  0  -0.307212  -0.555846  0  2.364368  0
O  O218  1  0.52479083  0.77797904  0.46240316  1  -1.143112  0  -0.320092  -0.525849  0  2.065014  0
O  O219  1  0.54541146  0.62683875  0.43882768  1  -1.180119  0  -0.340181  -0.625418  0  2.41371  0
O  O220  1  0.79104584  0.64410918  0.42617584  1  -1.157068  0  -0.266806  -0.469898  0  2.340124  0
O  O221  1  0.72198667  0.72619757  0.34687606  1  -1.125  0  -0.308266  -0.448598  0  2.240747  0
