# generated using pymatgen
data_CuH8C13SN7
_symmetry_space_group_name_H-M   'P 1'
_cell_length_a   5.70433056
_cell_length_b   5.67992685
_cell_length_c   20.49372493
_cell_angle_alpha   89.99881479
_cell_angle_beta   89.99606378
_cell_angle_gamma   101.46806170
_symmetry_Int_Tables_number   1
_chemical_formula_structural   CuH8C13SN7
_chemical_formula_sum   'Cu2 H16 C26 S2 N14'
_cell_volume   650.74406780
_cell_formula_units_Z   2
loop_
 _symmetry_equiv_pos_site_id
 _symmetry_equiv_pos_as_xyz
  1  'x, y, z'
loop_
 _atom_site_type_symbol
 _atom_site_label
 _atom_site_symmetry_multiplicity
 _atom_site_fract_x
 _atom_site_fract_y
 _atom_site_fract_z
 _atom_site_occupancy
 _atom_site_hle17_bader_spin_density
 _atom_site_hle17_ddec_charge
 _atom_site_hle17_ddec_spin_density
 _atom_site_hle17_ddec_sum_bond_order
 _atom_site_hle17_magmom
 _atom_site_hse06_10hf_bader_spin_density
 _atom_site_hse06_10hf_ddec_charge
 _atom_site_hse06_10hf_ddec_spin_density
 _atom_site_hse06_10hf_ddec_sum_bond_order
 _atom_site_hse06_10hf_magmom
 _atom_site_hse06_bader_spin_density
 _atom_site_hse06_ddec_charge
 _atom_site_hse06_ddec_spin_density
 _atom_site_hse06_ddec_sum_bond_order
 _atom_site_hse06_magmom
 _atom_site_pbe_bader_spin_density
 _atom_site_pbe_cm5_charge
 _atom_site_pbe_ddec_charge
 _atom_site_pbe_ddec_spin_density
 _atom_site_pbe_ddec_sum_bond_order
 _atom_site_pbe_magmom
Cu  Cu0  1  0.44210841  0.45942707  0.75002530  1  0  0.456572  0  2.211577  0  0  0.358587  0  2.724075  0  0  0.332523  0  2.699404  0  0  0.564494  0.383846  0  2.733132  0
Cu  Cu1  1  0.55789814  0.54055179  0.25002985  1  0  0.456572  0  2.211429  0  0  0.358582  0  2.723956  0  0  0.332621  0  2.699269  0  0  0.564466  0.383855  0  2.732944  0
H  H2  1  0.81929444  0.39228070  0.85385925  1  0  0.080184  0  0.950511  0  0  0.089254  0  1.015055  0  0  0.091626  0  1.013368  0  0  0.112087  0.087374  0  1.01653  0
H  H3  1  0.18066364  0.60780751  0.35386387  1  0  0.080266  0  0.950578  0  0  0.089405  0  1.015  0  0  0.091716  0  1.01338  0  0  0.112177  0.08753  0  1.016455  0
H  H4  1  0.18070867  0.60753593  0.14617004  1  0  0.080136  0  0.950531  0  0  0.089214  0  1.015123  0  0  0.091505  0  1.013526  0  0  0.112072  0.087341  0  1.016584  0
H  H5  1  0.81935930  0.39243435  0.64617373  1  0  0.080034  0  0.950213  0  0  0.089114  0  1.014844  0  0  0.091406  0  1.013248  0  0  0.111974  0.087243  0  1.016308  0
H  H6  1  0.84921433  0.07213112  0.93492147  1  0  0.117809  0  0.951341  0  0  0.122428  0  1.022162  0  0  0.125519  0  1.020434  0  0  0.110537  0.120356  0  1.023468  0
H  H7  1  0.15081779  0.92790359  0.43491859  1  0  0.117883  0  0.951724  0  0  0.122478  0  1.022526  0  0  0.125562  0  1.020804  0  0  0.110582  0.120406  0  1.023839  0
H  H8  1  0.15069143  0.92749438  0.06508049  1  0  0.117723  0  0.951148  0  0  0.122466  0  1.021927  0  0  0.12556  0  1.020197  0  0  0.110491  0.120397  0  1.023214  0
H  H9  1  0.84930484  0.07245905  0.56507753  1  0  0.11769  0  0.951837  0  0  0.122459  0  1.022535  0  0  0.125541  0  1.020837  0  0  0.11052  0.1204  0  1.023803  0
H  H10  1  0.11044199  0.09095678  0.81334510  1  0  0.070834  0  0.975752  0  0  0.076988  0  1.046339  0  0  0.079805  0  1.044646  0  0  0.104708  0.074714  0  1.047852  0
H  H11  1  0.88951757  0.90895457  0.31335663  1  0  0.070753  0  0.975853  0  0  0.076895  0  1.046453  0  0  0.079703  0  1.044782  0  0  0.104694  0.074625  0  1.047951  0
H  H12  1  0.88949277  0.90896573  0.18666468  1  0  0.070815  0  0.976062  0  0  0.076959  0  1.046565  0  0  0.079767  0  1.044901  0  0  0.104725  0.074684  0  1.048074  0
H  H13  1  0.11057666  0.09107316  0.68666632  1  0  0.070884  0  0.976216  0  0  0.077037  0  1.046659  0  0  0.079839  0  1.045005  0  0  0.104806  0.074769  0  1.048157  0
H  H14  1  0.11358868  0.75358589  0.89050691  1  0  0.111235  0  0.956113  0  0  0.115386  0  1.02741  0  0  0.118768  0  1.024976  0  0  0.109902  0.112959  0  1.029437  0
H  H15  1  0.88635945  0.24633403  0.39050644  1  0  0.11149  0  0.95556  0  0  0.115497  0  1.026948  0  0  0.11896  0  1.024423  0  0  0.109867  0.113019  0  1.029025  0
H  H16  1  0.88622234  0.24618565  0.10947896  1  0  0.111265  0  0.955381  0  0  0.115352  0  1.026839  0  0  0.118778  0  1.024359  0  0  0.109813  0.112873  0  1.028917  0
H  H17  1  0.11375568  0.75382317  0.60946869  1  0  0.111108  0  0.954974  0  0  0.11522  0  1.026487  0  0  0.118661  0  1.023991  0  0  0.109784  0.112747  0  1.028567  0
C  C18  1  0.66605906  0.24841495  0.86381007  1  0  0.114244  0  3.694077  0  0  0.084616  0  3.951501  0  0  0.089191  0  3.968234  0  0  0.035644  0.081735  0  3.940779  0
C  C19  1  0.33387906  0.75162509  0.36381280  1  0  0.114122  0  3.694392  0  0  0.084489  0  3.951832  0  0  0.089103  0  3.968571  0  0  0.03558  0.081623  0  3.941111  0
C  C20  1  0.33384609  0.75131335  0.13619141  1  0  0.114172  0  3.694852  0  0  0.084529  0  3.952278  0  0  0.089147  0  3.969018  0  0  0.035504  0.081651  0  3.941557  0
C  C21  1  0.66617550  0.24862520  0.63619454  1  0  0.114307  0  3.693607  0  0  0.084687  0  3.951092  0  0  0.089314  0  3.967827  0  0  0.035629  0.081804  0  3.940391  0
C  C22  1  0.48356748  0.88149960  0.91812426  1  0  0.030368  0  3.769464  0  0  0.039361  0  4.005774  0  0  0.040806  0  4.027359  0  0  0.005957  0.039216  0  3.991146  0
C  C23  1  0.51636986  0.11853437  0.41811624  1  0  0.030354  0  3.768909  0  0  0.039209  0  4.005319  0  0  0.040653  0  4.026927  0  0  0.006107  0.03906  0  3.990675  0
C  C24  1  0.51635047  0.11822305  0.08186209  1  0  0.029756  0  3.769623  0  0  0.039433  0  4.005353  0  0  0.040899  0  4.026955  0  0  0.006019  0.039271  0  3.990703  0
C  C25  1  0.48371961  0.88176397  0.58186572  1  0  0.029693  0  3.769463  0  0  0.039399  0  4.00529  0  0  0.040877  0  4.02689  0  0  0.005946  0.039249  0  3.990666  0
C  C26  1  0.68271672  0.06865714  0.90855750  1  0  -0.136033  0  3.695388  0  0  -0.157928  0  3.947543  0  0  -0.164897  0  3.97115  0  0  -0.081316  -0.153669  0  3.931506  0
C  C27  1  0.31725398  0.93137218  0.40855032  1  0  -0.136346  0  3.696567  0  0  -0.158213  0  3.948815  0  0  -0.165176  0  3.972397  0  0  -0.081584  -0.153959  0  3.932778  0
C  C28  1  0.31723908  0.93103775  0.09144788  1  0  -0.135898  0  3.69628  0  0  -0.158021  0  3.94814  0  0  -0.16501  0  3.971746  0  0  -0.081136  -0.153744  0  3.93209  0
C  C29  1  0.68282676  0.06892632  0.59143751  1  0  -0.135982  0  3.69661  0  0  -0.158199  0  3.948574  0  0  -0.165189  0  3.972157  0  0  -0.081195  -0.153933  0  3.932557  0
C  C30  1  0.49279884  0.67914197  0.96173988  1  0  0.250028  0  3.736326  0  0  0.238331  0  4.001222  0  0  0.247196  0  4.014579  0  0  0.239497  0.230868  0  3.993518  0
C  C31  1  0.50721614  0.32093894  0.46173758  1  0  0.250311  0  3.735925  0  0  0.238698  0  4.000692  0  0  0.247563  0  4.01405  0  0  0.239626  0.231244  0  3.992977  0
C  C32  1  0.50706186  0.32061602  0.03824843  1  0  0.25103  0  3.734111  0  0  0.238711  0  3.999685  0  0  0.247564  0  4.013053  0  0  0.239583  0.231262  0  3.991965  0
C  C33  1  0.49292727  0.67936560  0.53825122  1  0  0.25121  0  3.734071  0  0  0.238802  0  3.99979  0  0  0.247644  0  4.013148  0  0  0.239633  0.231331  0  3.9921  0
C  C34  1  0.27163917  0.07984618  0.84082341  1  0  0.128006  0  3.672865  0  0  0.101479  0  3.92072  0  0  0.107319  0  3.934274  0  0  0.039199  0.097459  0  3.912862  0
C  C35  1  0.72833924  0.92014631  0.34082636  1  0  0.128198  0  3.67353  0  0  0.101682  0  3.921262  0  0  0.10751  0  3.934853  0  0  0.039184  0.097681  0  3.91338  0
C  C36  1  0.72829737  0.92001138  0.15917465  1  0  0.128078  0  3.672862  0  0  0.101752  0  3.920632  0  0  0.107573  0  3.934223  0  0  0.039379  0.097737  0  3.912738  0
C  C37  1  0.27173612  0.08001342  0.65918683  1  0  0.127681  0  3.673263  0  0  0.101339  0  3.921087  0  0  0.10717  0  3.934663  0  0  0.039138  0.097328  0  3.913241  0
C  C38  1  0.27308847  0.89234878  0.88395332  1  0  -0.112479  0  3.6865  0  0  -0.135309  0  3.939564  0  0  -0.13964  0  3.957854  0  0  -0.073229  -0.133264  0  3.927921  0
C  C39  1  0.72687773  0.10760071  0.38394285  1  0  -0.112913  0  3.68706  0  0  -0.135532  0  3.940135  0  0  -0.139901  0  3.958314  0  0  -0.073382  -0.133446  0  3.928515  0
C  C40  1  0.72678853  0.10743596  0.11604181  1  0  -0.112249  0  3.687245  0  0  -0.135243  0  3.940046  0  0  -0.139568  0  3.958197  0  0  -0.073266  -0.133168  0  3.92848  0
C  C41  1  0.27324456  0.89259783  0.61605376  1  0  -0.111883  0  3.68624  0  0  -0.134899  0  3.939023  0  0  -0.139245  0  3.957172  0  0  -0.073097  -0.132783  0  3.92734  0
C  C42  1  0.97016808  0.64882972  0.75001096  1  0  0.250767  0  4.035771  0  0  0.244933  0  4.329572  0  0  0.258658  0  4.347701  0  0  0.133784  0.23632  0  4.315646  0
C  C43  1  0.02979966  0.35113184  0.25001541  1  0  0.250519  0  4.035219  0  0  0.244683  0  4.329054  0  0  0.258406  0  4.347186  0  0  0.13355  0.236068  0  4.315106  0
S  S44  1  0.74673574  0.78956576  0.75000360  1  0  -0.329297  0  2.429432  0  0  -0.306039  0  2.814837  0  0  -0.317697  0  2.810143  0  0  -0.167993  -0.296284  0  2.814946  0
S  S45  1  0.25327488  0.21039140  0.24999007  1  0  -0.329116  0  2.428457  0  0  -0.305862  0  2.813884  0  0  -0.317553  0  2.809212  0  0  -0.167845  -0.296106  0  2.813958  0
N  N46  1  0.46555059  0.25396173  0.82914085  1  0  -0.280171  0  3.331993  0  0  -0.216357  0  3.630889  0  0  -0.219486  0  3.635156  0  0  -0.355872  -0.215888  0  3.628277  0
N  N47  1  0.53438585  0.74608132  0.32912713  1  0  -0.280037  0  3.331308  0  0  -0.216316  0  3.630371  0  0  -0.219443  0  3.634628  0  0  -0.355772  -0.215892  0  3.627777  0
N  N48  1  0.53436967  0.74583662  0.17086843  1  0  -0.28033  0  3.330548  0  0  -0.216779  0  3.629749  0  0  -0.219874  0  3.633968  0  0  -0.35606  -0.216317  0  3.627117  0
N  N49  1  0.46565184  0.25414765  0.67087631  1  0  -0.280006  0  3.330573  0  0  -0.216416  0  3.629729  0  0  -0.219497  0  3.633911  0  0  -0.356007  -0.215973  0  3.62715  0
N  N50  1  0.13584931  0.55180391  0.75001196  1  0  -0.513015  0  3.116693  0  0  -0.470893  0  3.450888  0  0  -0.478806  0  3.453873  0  0  -0.438735  -0.465662  0  3.446311  0
N  N51  1  0.86414346  0.44816800  0.25002270  1  0  -0.51285  0  3.117075  0  0  -0.47069  0  3.451199  0  0  -0.478623  0  3.454215  0  0  -0.438633  -0.465463  0  3.446588  0
N  N52  1  0.69867125  0.67889124  0.99488414  1  0  -0.16082  0  2.957743  0  0  -0.142839  0  3.240561  0  0  -0.144138  0  3.248177  0  0  -0.14791  -0.142273  0  3.236593  0
N  N53  1  0.30133848  0.32117526  0.49489605  1  0  -0.160468  0  2.957488  0  0  -0.14249  0  3.240226  0  0  -0.143786  0  3.247836  0  0  -0.147733  -0.141938  0  3.236266  0
N  N54  1  0.30120013  0.32084311  0.00508318  1  0  -0.161232  0  2.956395  0  0  -0.143213  0  3.239494  0  0  -0.144512  0  3.247107  0  0  -0.148064  -0.142647  0  3.235527  0
N  N55  1  0.69881325  0.67917603  0.50506786  1  0  -0.161169  0  2.955567  0  0  -0.143122  0  3.238691  0  0  -0.144405  0  3.2463  0  0  -0.147998  -0.142566  0  3.234734  0
N  N56  1  0.29421384  0.50265113  0.96608277  1  0  -0.14565  0  2.943028  0  0  -0.128542  0  3.223673  0  0  -0.129261  0  3.230679  0  0  -0.144884  -0.128543  0  3.220251  0
N  N57  1  0.70577855  0.49736942  0.46606417  1  0  -0.145815  0  2.943695  0  0  -0.128687  0  3.224275  0  0  -0.129424  0  3.231296  0  0  -0.144938  -0.12868  0  3.22084  0
N  N58  1  0.70564337  0.49709070  0.03388944  1  0  -0.145907  0  2.943157  0  0  -0.128684  0  3.224026  0  0  -0.129416  0  3.231052  0  0  -0.144868  -0.128677  0  3.220587  0
N  N59  1  0.29437864  0.50292585  0.53390364  1  0  -0.146432  0  2.944471  0  0  -0.129179  0  3.225388  0  0  -0.129907  0  3.232407  0  0  -0.145139  -0.129174  0  3.221964  0
