# generated using pymatgen
data_CuH18C16N2O5
_symmetry_space_group_name_H-M   'P 1'
_cell_length_a   6.75673258
_cell_length_b   9.82397122
_cell_length_c   12.56143351
_cell_angle_alpha   86.05506617
_cell_angle_beta   83.68759862
_cell_angle_gamma   76.15996128
_symmetry_Int_Tables_number   1
_chemical_formula_structural   CuH18C16N2O5
_chemical_formula_sum   'Cu2 H36 C32 N4 O10'
_cell_volume   803.90572800
_cell_formula_units_Z   2
loop_
 _symmetry_equiv_pos_site_id
 _symmetry_equiv_pos_as_xyz
  1  'x, y, z'
loop_
 _atom_site_type_symbol
 _atom_site_label
 _atom_site_symmetry_multiplicity
 _atom_site_fract_x
 _atom_site_fract_y
 _atom_site_fract_z
 _atom_site_occupancy
 _atom_site_hle17_ddec_charge
 _atom_site_hle17_ddec_spin_density
 _atom_site_hle17_ddec_sum_bond_order
 _atom_site_hle17_magmom
 _atom_site_hse06_10hf_ddec_charge
 _atom_site_hse06_10hf_ddec_spin_density
 _atom_site_hse06_10hf_ddec_sum_bond_order
 _atom_site_hse06_10hf_magmom
 _atom_site_hse06_ddec_charge
 _atom_site_hse06_ddec_spin_density
 _atom_site_hse06_ddec_sum_bond_order
 _atom_site_hse06_magmom
 _atom_site_pbe_cm5_charge
 _atom_site_pbe_ddec_charge
 _atom_site_pbe_ddec_spin_density
 _atom_site_pbe_ddec_sum_bond_order
 _atom_site_pbe_magmom
Cu  Cu0  1  0.73345712  0.27145276  0.20682431  1  0.857462  -0.690916  1.82185  -0.511  0.838597  -0.781388  2.215648  -0.63  0.944845  -0.84839  2.117534  -0.719  0.73135  0.784214  -0.733535  2.264211  -0.572
Cu  Cu1  1  0.26656883  0.72854240  0.79317222  1  0.857621  -0.690948  1.821714  -0.511  0.838612  -0.781411  2.215696  -0.63  0.929761  -0.848336  2.145239  -0.719  0.731398  0.784256  -0.733591  2.264228  -0.572
H  H2  1  0.55498883  0.84902942  0.54601609  1  0.068164  -0.000749  0.959331  -0.001  0.087716  -0.000417  1.01745  -0.001  0.087684  -0.000204  1.01923  0.0  0.088438  0.087735  -0.000651  1.016277  -0.001
H  H3  1  0.44500125  0.15095872  0.45398611  1  0.068195  -0.000748  0.959206  -0.001  0.087785  -0.000417  1.017306  -0.001  0.087749  -0.000204  1.019068  0.0  0.088436  0.087808  -0.00065  1.016138  -0.001
H  H4  1  0.71143729  0.97005391  0.54419460  1  0.084106  6.2e-05  0.927124  0.0  0.102302  2.6e-05  0.984013  0.0  0.103586  1.8e-05  0.983822  0.0  0.093486  0.101287  2e-05  0.984353  0.0
H  H5  1  0.28854945  0.02993235  0.45581517  1  0.084173  6.4e-05  0.927229  0.0  0.102361  2.6e-05  0.984125  0.0  0.103642  1.8e-05  0.983938  0.0  0.093565  0.101348  2e-05  0.984454  0.0
H  H6  1  0.81233556  0.79851356  0.39554314  1  0.089021  -0.000439  0.942216  -0.001  0.103584  -0.000353  1.005202  0.0  0.103867  -0.000157  1.006328  0.0  0.095107  0.103598  -0.00055  1.004124  -0.001
H  H7  1  0.18765635  0.20148516  0.60445723  1  0.089022  -0.000439  0.942208  -0.001  0.103581  -0.000353  1.005204  0.0  0.103865  -0.000157  1.006348  0.0  0.095122  0.103592  -0.00055  1.004135  -0.001
H  H8  1  0.57281795  0.87631002  0.34245587  1  0.086382  0.000496  0.940738  0.0  0.101927  -6.4e-05  1.000367  0.0  0.103591  -3.1e-05  0.999326  0.0  0.09153  0.10084  -3.3e-05  1.000963  0.0
H  H9  1  0.42717073  0.12368982  0.65754784  1  0.086378  0.000497  0.940735  0.0  0.101911  -6.4e-05  1.000405  0.0  0.103572  -3.1e-05  0.999405  0.0  0.091513  0.100824  -3.3e-05  1.001008  0.0
H  H10  1  0.72026097  0.56091786  0.28379696  1  0.088343  -0.000997  0.946796  -0.002  0.09692  -0.00096  1.010479  -0.002  0.099628  -0.000672  1.008161  -0.001  0.122762  0.094421  -0.001156  1.012829  -0.002
H  H11  1  0.27976274  0.43908956  0.71618994  1  0.088323  -0.000998  0.946681  -0.002  0.096882  -0.00096  1.010409  -0.002  0.099665  -0.000672  1.007925  -0.001  0.122692  0.094372  -0.001156  1.012762  -0.002
H  H12  1  0.71663020  0.79878676  0.19311026  1  0.105846  -0.000481  0.971423  0.0  0.117148  -0.000538  1.03135  0.0  0.12028  -0.000398  1.030647  0.0  0.10919  0.114349  -0.000524  1.032687  -0.001
H  H13  1  0.28331875  0.20122392  0.80687239  1  0.105882  -0.000481  0.971496  0.0  0.117145  -0.000539  1.031489  0.0  0.120276  -0.000398  1.030821  0.0  0.109235  0.114338  -0.000524  1.032827  -0.001
H  H14  1  0.32528043  0.55045813  0.45971843  1  0.109986  0.000606  0.922305  0.001  0.128492  0.000161  0.976559  0.0  0.130947  0.000173  0.975555  0.0  0.102998  0.126829  0.000131  0.977166  0.0
H  H15  1  0.67479149  0.44955425  0.54028198  1  0.109858  0.000606  0.922156  0.001  0.128346  0.000162  0.976556  0.0  0.130801  0.000174  0.975567  0.0  0.102898  0.12671  0.000131  0.977137  0.0
H  H16  1  0.34803028  0.38207895  0.51856306  1  0.094028  0.000582  0.937452  0.001  0.111373  9.9e-05  0.998282  0.0  0.113237  9.6e-05  0.997588  0.0  0.098437  0.110033  0.00012  0.998889  0.0
H  H17  1  0.65201383  0.61793161  0.48143560  1  0.093912  0.00058  0.937583  0.001  0.111385  9.9e-05  0.998394  0.0  0.113254  9.6e-05  0.997714  0.0  0.098451  0.110043  0.000119  0.999009  0.0
H  H18  1  0.80147760  0.98067241  0.86975616  1  0.125037  -0.000368  0.973604  0.0  0.134235  -0.00037  1.032122  0.0  0.138271  -0.000279  1.02982  0.0  0.110759  0.13102  -0.000456  1.03429  -0.001
H  H19  1  0.19851026  0.01931787  0.13024762  1  0.125044  -0.000369  0.973588  0.0  0.134291  -0.000369  1.032085  0.0  0.138312  -0.000279  1.02981  0.0  0.110753  0.131075  -0.000456  1.034243  -0.001
H  H20  1  0.72520754  0.82093349  0.99098992  1  0.096551  -0.00019  0.947029  0.0  0.109366  3e-05  1.005045  0.0  0.111341  4.5e-05  1.003726  0.0  0.111954  0.108631  7e-06  1.004609  0.0
H  H21  1  0.27472622  0.17906625  0.00899399  1  0.096519  -0.00019  0.946997  0.0  0.109361  2.9e-05  1.005022  0.0  0.111323  4.5e-05  1.003699  0.0  0.11198  0.108668  7e-06  1.004542  0.0
H  H22  1  0.76032431  0.02013672  0.07039446  1  0.08175  -0.000823  0.954057  -0.002  0.089675  -0.000748  1.019682  -0.002  0.09202  -0.000519  1.018331  -0.001  0.116807  0.087884  -0.001018  1.02031  -0.002
H  H23  1  0.23968919  0.97985609  0.92960400  1  0.081832  -0.000822  0.953901  -0.002  0.089776  -0.000748  1.019509  -0.002  0.092159  -0.000519  1.018028  -0.001  0.11681  0.087978  -0.001018  1.020147  -0.002
H  H24  1  0.02355228  0.36447811  0.44031314  1  0.074894  0.000189  0.9197  0.0  0.096959  6.4e-05  0.971323  0.0  0.097507  4.9e-05  0.972182  0.0  0.094355  0.096365  6.5e-05  0.970978  0.0
H  H25  1  0.97646681  0.63556842  0.55969791  1  0.074998  0.000189  0.91981  0.0  0.096949  6.4e-05  0.971548  0.0  0.0975  4.9e-05  0.972431  0.0  0.094408  0.096357  6.5e-05  0.971198  0.0
H  H26  1  0.00805971  0.53159285  0.37816380  1  0.054313  0.000161  0.945839  0.0  0.071399  1e-05  1.01133  0.0  0.071699  7e-06  1.011692  0.0  0.083766  0.07126  2.5e-05  1.011049  0.0
H  H27  1  0.99197615  0.46845313  0.62184923  1  0.054154  0.000161  0.946136  0.0  0.071286  1e-05  1.011555  0.0  0.071623  7e-06  1.011911  0.0  0.083763  0.071153  2.5e-05  1.011253  0.0
H  H28  1  0.80892104  0.18637118  0.74319996  1  0.108331  -0.000158  0.93011  0.0  0.123009  2.9e-05  0.979496  0.0  0.126567  4.3e-05  0.976684  0.0  0.115191  0.119955  8e-06  0.982227  0.0
H  H29  1  0.19104703  0.81361515  0.25679766  1  0.108309  -0.000156  0.93014  0.0  0.123043  2.9e-05  0.979446  0.0  0.126593  4.4e-05  0.976644  0.0  0.115266  0.119997  8e-06  0.982186  0.0
H  H30  1  0.73608240  0.61157744  0.89076325  1  0.138029  -0.000599  0.978111  -0.001  0.145656  -0.000518  1.040374  -0.001  0.149315  -0.00035  1.038382  -0.001  0.117444  0.14282  -0.000674  1.042284  -0.001
H  H31  1  0.26390271  0.38841001  0.10922583  1  0.137978  -0.000599  0.978164  -0.001  0.145602  -0.000518  1.040459  -0.001  0.149202  -0.000349  1.038639  -0.001  0.117425  0.14276  -0.000674  1.042387  -0.001
H  H32  1  0.77487081  0.42344689  0.81695658  1  0.122517  -0.000524  0.977755  -0.001  0.1314  -0.000499  1.037975  -0.001  0.135087  -0.00036  1.036656  0.0  0.110201  0.128512  -0.000599  1.039416  -0.001
H  H33  1  0.22512019  0.57653780  0.18303867  1  0.122423  -0.000522  0.977705  -0.001  0.131383  -0.000499  1.037844  -0.001  0.135057  -0.00036  1.036533  0.0  0.110228  0.128496  -0.0006  1.039293  -0.001
H  H34  1  0.05131366  0.13541601  0.28409646  1  0.405868  1.7e-05  0.911981  0.0  0.375828  1.1e-05  0.975886  0.0  0.388208  6.5e-05  0.958157  0.0  0.276764  0.366932  -5.8e-05  0.988652  0.0
H  H35  1  0.94868599  0.86457749  0.71592609  1  0.405852  1.7e-05  0.912008  0.0  0.375917  1.2e-05  0.97576  0.0  0.388509  6.4e-05  0.957611  0.0  0.276804  0.367024  -5.7e-05  0.988524  0.0
H  H36  1  0.15276041  0.26829705  0.25263415  1  0.422241  -2e-06  0.879288  0.0  0.397976  -1.8e-05  0.933857  0.0  0.40918  -8e-06  0.917617  0.0  0.284145  0.390309  -3.9e-05  0.944954  0.0
H  H37  1  0.84725632  0.73168598  0.74738162  1  0.422239  -1e-06  0.879311  0.0  0.398013  -1.8e-05  0.933843  0.0  0.409256  -7e-06  0.91752  0.0  0.284099  0.390369  -3.9e-05  0.944919  0.0
C  C38  1  0.41300398  0.38690741  0.34821755  1  0.68054  0.008343  3.846244  0.008  0.637306  0.002261  4.160633  0.003  0.673  0.002818  4.156791  0.003  0.204236  0.612997  0.001591  4.163589  0.003
C  C39  1  0.58701265  0.61310746  0.65177403  1  0.680392  0.008343  3.84632  0.008  0.637274  0.00226  4.160706  0.003  0.67337  0.002818  4.155016  0.003  0.204241  0.612948  0.001591  4.163688  0.003
C  C40  1  0.75631207  0.34269926  0.98142582  1  0.1641  0.00411  3.780222  0.002  0.162777  0.000705  4.02317  0.0  0.169633  0.001722  4.046313  0.001  0.114847  0.158122  6.6e-05  4.008736  -0.001
C  C41  1  0.24369229  0.65728578  0.01856999  1  0.164184  0.004114  3.780198  0.002  0.163015  0.000708  4.02296  0.0  0.170064  0.001716  4.044948  0.001  0.114939  0.158356  6.6e-05  4.008516  -0.001
C  C42  1  0.59574381  0.94008866  0.50129791  1  -0.084513  -0.000759  3.648459  -0.001  -0.120394  -0.000744  3.901047  -0.001  -0.121076  -0.000378  3.915557  0.0  -0.1628  -0.119919  -0.001006  3.891047  -0.001
C  C43  1  0.40424723  0.05989756  0.49870836  1  -0.084576  -0.000762  3.648278  -0.001  -0.120494  -0.000743  3.900905  -0.001  -0.121177  -0.000381  3.915405  0.0  -0.16283  -0.120025  -0.001006  3.890908  -0.001
C  C44  1  0.69190804  0.89553349  0.38858748  1  -0.25758  -0.011757  3.68105  -0.013  -0.300745  -0.006218  3.941381  -0.007  -0.306549  -0.003929  3.950149  -0.005  -0.167467  -0.296421  -0.008022  3.934239  -0.009
C  C45  1  0.30807943  0.10446223  0.61141985  1  -0.257541  -0.01176  3.680763  -0.013  -0.3007  -0.006219  3.941229  -0.007  -0.306495  -0.003926  3.950085  -0.005  -0.167536  -0.296384  -0.00802  3.934089  -0.009
C  C46  1  0.72696724  0.57768468  0.19690864  1  0.135809  0.01186  3.680995  0.008  0.109821  0.003513  3.932379  0.003  0.119468  0.004877  3.9499  0.003  0.054437  0.103222  0.002536  3.922017  0.002
C  C47  1  0.27304700  0.42232049  0.80308075  1  0.135935  0.011863  3.680849  0.008  0.109929  0.003513  3.932247  0.003  0.119799  0.004878  3.94864  0.003  0.054595  0.10334  0.002537  3.921875  0.002
C  C48  1  0.74282215  0.47458899  0.03354309  1  0.16629  0.007214  3.765973  0.005  0.163519  0.001709  4.011969  0.001  0.170665  0.003062  4.034624  0.002  0.117539  0.1587  0.000668  3.997499  0.0
C  C49  1  0.25718600  0.52540131  0.96644961  1  0.166496  0.007219  3.765821  0.005  0.163588  0.00171  4.011941  0.001  0.171041  0.003065  4.033345  0.002  0.117662  0.158776  0.000669  3.997461  0.0
C  C50  1  0.72422741  0.70854517  0.14594758  1  -0.128813  -0.008356  3.743907  -0.009  -0.140882  -0.003679  3.990612  -0.005  -0.148022  -0.003352  4.011011  -0.004  -0.081342  -0.134868  -0.004025  3.976991  -0.005
C  C51  1  0.27574506  0.29146302  0.85403751  1  -0.129005  -0.008354  3.74394  -0.009  -0.141045  -0.003678  3.990665  -0.005  -0.148183  -0.003353  4.011127  -0.004  -0.081473  -0.135018  -0.004025  3.977049  -0.005
C  C52  1  0.28955476  0.44863608  0.44943509  1  -0.265255  -0.009693  3.688614  -0.01  -0.305738  -0.005397  3.943239  -0.006  -0.312395  -0.003458  3.952285  -0.004  -0.166096  -0.300898  -0.006983  3.936458  -0.007
C  C53  1  0.71049218  0.55138316  0.55056661  1  -0.264734  -0.009685  3.688473  -0.01  -0.305534  -0.005394  3.943507  -0.006  -0.312183  -0.003459  3.952648  -0.004  -0.165961  -0.300713  -0.00698  3.936731  -0.007
C  C54  1  0.78629760  0.08458053  0.90024499  1  -0.119894  -0.006073  3.694513  -0.007  -0.132308  -0.002914  3.941132  -0.004  -0.139531  -0.002546  3.960635  -0.003  -0.080477  -0.128271  -0.003214  3.929495  -0.004
C  C55  1  0.21368908  0.91540856  0.09975658  1  -0.119855  -0.00607  3.694487  -0.007  -0.132393  -0.002915  3.941187  -0.004  -0.139619  -0.002544  3.960723  -0.003  -0.080389  -0.128348  -0.003214  3.929557  -0.004
C  C56  1  0.79182825  0.00690754  0.33016965  1  0.681469  0.006456  3.830477  0.007  0.645702  9.2e-05  4.136607  0.001  0.681697  0.000914  4.132957  0.001  0.205764  0.621268  -0.000839  4.138343  0.001
C  C57  1  0.20814951  0.99309441  0.66984027  1  0.681701  0.006457  3.829986  0.007  0.645878  9.3e-05  4.136218  0.001  0.682122  0.000912  4.13143  0.001  0.205952  0.621456  -0.000839  4.137949  0.001
C  C58  1  0.72879936  0.72089855  0.03457008  1  0.01067  0.011996  3.703216  0.007  -0.009909  0.004788  3.953914  0.003  -0.004878  0.005161  3.970939  0.003  -0.064595  -0.014136  0.004506  3.942621  0.002
C  C59  1  0.27116268  0.27910204  0.96541723  1  0.010788  0.011995  3.703248  0.007  -0.009822  0.004787  3.95399  0.003  -0.004796  0.005163  3.971065  0.003  -0.064526  -0.01407  0.004506  3.942668  0.002
C  C60  1  0.76594702  0.10472872  0.01008183  1  0.124848  0.008903  3.710135  0.006  0.098091  0.002877  3.966531  0.002  0.106415  0.003971  3.986431  0.003  0.049199  0.092501  0.00222  3.954525  0.002
C  C61  1  0.23405366  0.89526282  0.98991928  1  0.124685  0.008898  3.710034  0.006  0.097929  0.002879  3.966438  0.002  0.106506  0.003966  3.985148  0.003  0.049137  0.092343  0.00222  3.954423  0.002
C  C62  1  0.05921509  0.46655433  0.44943625  1  -0.08446  -0.00275  3.706636  -0.003  -0.126182  -0.001644  3.971016  -0.002  -0.126533  -0.000963  3.985988  -0.001  -0.169336  -0.125723  -0.002229  3.960454  -0.002
C  C63  1  0.94082233  0.53348738  0.55057542  1  -0.084518  -0.00275  3.707282  -0.003  -0.126127  -0.001645  3.971759  -0.002  -0.126503  -0.000962  3.986794  -0.001  -0.169469  -0.125669  -0.002228  3.961189  -0.002
C  C64  1  0.79065319  0.20012083  0.82949206  1  0.002309  0.008613  3.697847  0.005  -0.013577  0.003781  3.941273  0.002  -0.008037  0.003987  3.956206  0.002  -0.062164  -0.018178  0.003688  3.933277  0.002
C  C65  1  0.20932764  0.79986380  0.17050794  1  0.002543  0.00861  3.697897  0.005  -0.013365  0.003782  3.941367  0.002  -0.007826  0.003983  3.956338  0.002  -0.062144  -0.017985  0.003689  3.933382  0.002
C  C66  1  0.73768663  0.60300577  0.97745589  1  -0.122529  -0.006483  3.642933  -0.007  -0.143959  -0.002577  3.892366  -0.003  -0.150403  -0.002359  3.911006  -0.003  -0.075068  -0.141073  -0.002854  3.881657  -0.003
C  C67  1  0.26231029  0.39698194  0.02253228  1  -0.122444  -0.006485  3.643071  -0.007  -0.14393  -0.002577  3.892625  -0.003  -0.150419  -0.00236  3.911382  -0.003  -0.075137  -0.141052  -0.002855  3.881947  -0.003
C  C68  1  0.77416509  0.33108003  0.87026722  1  -0.139522  -0.004128  3.690622  -0.004  -0.157555  -0.001783  3.933185  -0.002  -0.164454  -0.001622  3.953187  -0.002  -0.079392  -0.15321  -0.001988  3.920808  -0.002
C  C69  1  0.22582386  0.66890986  0.12972695  1  -0.139774  -0.004134  3.690837  -0.004  -0.157924  -0.001785  3.933396  -0.002  -0.164791  -0.001619  3.953445  -0.002  -0.079634  -0.153578  -0.001988  3.921023  -0.002
N  N70  1  0.73579488  0.46380037  0.14189876  1  -0.321808  -0.069376  3.318274  -0.089  -0.279348  -0.052004  3.608273  -0.071  -0.311012  -0.042622  3.628685  -0.063  -0.339634  -0.261401  -0.05765  3.59611  -0.075
N  N71  1  0.26422970  0.53619776  0.85809364  1  -0.322108  -0.06937  3.318411  -0.089  -0.279537  -0.051999  3.608433  -0.071  -0.308864  -0.042625  3.628905  -0.063  -0.33984  -0.261597  -0.057641  3.596266  -0.075
N  N72  1  0.75319574  0.23011537  0.04963050  1  -0.32664  -0.057583  3.31262  -0.074  -0.284968  -0.043808  3.604981  -0.061  -0.315091  -0.035954  3.623691  -0.054  -0.339122  -0.269316  -0.048146  3.595741  -0.063
N  N73  1  0.24681408  0.76987517  0.95036683  1  -0.326595  -0.057594  3.31265  -0.074  -0.284911  -0.043816  3.604917  -0.061  -0.312597  -0.03597  3.623695  -0.054  -0.339083  -0.269262  -0.048152  3.595662  -0.063
O  O74  1  0.07502987  0.20689950  0.22524291  1  -0.868159  -2.4e-05  1.86758  -0.002  -0.82723  -8e-05  2.054201  -0.002  -0.85351  0.000867  2.015728  -0.001  -0.608352  -0.809546  -0.001217  2.079775  -0.003
O  O75  1  0.92498105  0.79308350  0.77477569  1  -0.868159  -2.4e-05  1.867673  -0.002  -0.827338  -8.1e-05  2.054118  -0.002  -0.85144  0.000854  2.017478  -0.001  -0.608339  -0.80969  -0.001216  2.079622  -0.003
O  O76  1  0.60920341  0.35099231  0.34954933  1  -0.594092  -0.094515  1.993272  -0.129  -0.576006  -0.056008  2.273368  -0.084  -0.621963  -0.040395  2.266222  -0.066  -0.328833  -0.547271  -0.066245  2.277507  -0.094
O  O77  1  0.39081554  0.64902053  0.65044304  1  -0.594124  -0.094495  1.993527  -0.129  -0.575976  -0.055999  2.273596  -0.084  -0.619704  -0.040402  2.267753  -0.066  -0.328841  -0.547238  -0.06623  2.277726  -0.094
O  O78  1  0.32265672  0.37550345  0.26760814  1  -0.653011  0.000309  2.023855  -0.002  -0.608178  0.001223  2.26645  -0.001  -0.635849  0.002167  2.25504  0.0  -0.320934  -0.58947  0.000182  2.274378  -0.002
O  O79  1  0.67733345  0.62450082  0.73239906  1  -0.653047  0.000306  2.023879  -0.002  -0.60825  0.001223  2.266459  -0.001  -0.634893  0.002157  2.254471  0.0  -0.320983  -0.589541  0.000183  2.2744  -0.002
O  O80  1  0.68967389  0.08447348  0.25738609  1  -0.60879  -0.100031  2.004636  -0.136  -0.593002  -0.057744  2.289625  -0.086  -0.641394  -0.041133  2.280855  -0.067  -0.341638  -0.5616  -0.070166  2.294039  -0.099
O  O81  1  0.31032791  0.91552357  0.74261926  1  -0.608884  -0.100044  2.004282  -0.136  -0.593032  -0.057749  2.289315  -0.086  -0.638972  -0.04115  2.282272  -0.067  -0.341664  -0.56164  -0.070166  2.29373  -0.099
O  O82  1  0.96169605  0.01709677  0.35650441  1  -0.603892  -0.002133  1.935641  -0.004  -0.560755  -0.000899  2.149668  -0.002  -0.586811  4.6e-05  2.140126  -0.001  -0.313447  -0.542465  -0.001942  2.155744  -0.003
O  O83  1  0.03828397  0.98290458  0.64351495  1  -0.604021  -0.00213  1.935726  -0.004  -0.560905  -0.000898  2.149798  -0.002  -0.586791  4.5e-05  2.139823  -0.001  -0.313534  -0.542616  -0.001941  2.155871  -0.003
