# generated using pymatgen
data_CoH15C19N7O4
_symmetry_space_group_name_H-M   'P 1'
_cell_length_a   9.01340438
_cell_length_b   10.02779174
_cell_length_c   11.53153337
_cell_angle_alpha   82.70874550
_cell_angle_beta   76.05407036
_cell_angle_gamma   75.80501088
_symmetry_Int_Tables_number   1
_chemical_formula_structural   CoH15C19N7O4
_chemical_formula_sum   'Co2 H30 C38 N14 O8'
_cell_volume   978.11369164
_cell_formula_units_Z   2
loop_
 _symmetry_equiv_pos_site_id
 _symmetry_equiv_pos_as_xyz
  1  'x, y, z'
loop_
 _atom_site_type_symbol
 _atom_site_label
 _atom_site_symmetry_multiplicity
 _atom_site_fract_x
 _atom_site_fract_y
 _atom_site_fract_z
 _atom_site_occupancy
 _atom_site_hle17_ddec_charge
 _atom_site_hle17_ddec_spin_density
 _atom_site_hle17_ddec_sum_bond_order
 _atom_site_hle17_magmom
 _atom_site_hse06_10hf_ddec_charge
 _atom_site_hse06_10hf_ddec_spin_density
 _atom_site_hse06_10hf_ddec_sum_bond_order
 _atom_site_hse06_10hf_magmom
 _atom_site_hse06_ddec_charge
 _atom_site_hse06_ddec_spin_density
 _atom_site_hse06_ddec_sum_bond_order
 _atom_site_hse06_magmom
 _atom_site_pbe_cm5_charge
 _atom_site_pbe_ddec_charge
 _atom_site_pbe_ddec_spin_density
 _atom_site_pbe_ddec_sum_bond_order
 _atom_site_pbe_magmom
Co  Co0  1  0.64494845  0.64701977  0.97896309  1  0.985024  -2.856798  2.034871  -2.577  0.959045  -2.848602  2.441272  -2.644  1.038808  -2.886271  2.368839  -2.723  0.659827  0.88362  -2.8128  2.513901  -2.568
Co  Co1  1  0.35505135  0.35298059  0.02103701  1  0.984661  -2.856638  2.034983  -2.577  0.958983  -2.848606  2.441332  -2.644  1.038744  -2.886271  2.368902  -2.723  0.6598  0.883554  -2.81284  2.51396  -2.568
H  H2  1  0.02045845  0.30079060  0.83596065  1  0.090638  -0.00011  1.000056  0.0  0.094151  -5.2e-05  1.073327  0.0  0.096491  -3e-06  1.072982  0.0  0.09956  0.092359  -5.5e-05  1.073725  0.0
H  H3  1  0.97954184  0.69920771  0.16404305  1  0.090581  -0.000114  1.000053  0.0  0.094097  -5.2e-05  1.073333  0.0  0.096436  -3e-06  1.072988  0.0  0.099548  0.092304  -5.5e-05  1.073733  0.0
H  H4  1  0.19666623  0.06882902  0.79752360  1  0.090012  4.7e-05  0.971556  0.0  0.095277  -4.8e-05  1.041248  0.0  0.098139  -1.2e-05  1.040689  0.0  0.09706  0.093045  -8.4e-05  1.042139  0.0
H  H5  1  0.80333723  0.93117031  0.20247942  1  0.090026  4.3e-05  0.97165  0.0  0.095299  -4.8e-05  1.041313  0.0  0.098159  -1.2e-05  1.040758  0.0  0.097076  0.093067  -8.4e-05  1.042204  0.0
H  H6  1  0.08396281  0.85956224  0.84042070  1  0.100186  -0.000183  0.936316  0.0  0.108804  -0.000119  0.999089  0.0  0.112086  -8.5e-05  0.997012  0.0  0.103358  0.10625  -0.000124  1.0007  0.0
H  H7  1  0.91603749  0.14043606  0.15958040  1  0.100199  -0.000183  0.936321  0.0  0.108831  -0.000119  0.999079  0.0  0.112112  -8.5e-05  0.997003  0.0  0.103369  0.106274  -0.000123  1.000688  0.0
H  H8  1  0.62193090  0.11591314  0.94318106  1  0.112814  0.000364  0.981699  0.0  0.118136  0.000219  1.053334  0.0  0.122414  0.000239  1.04945  0.0  0.108061  0.114873  0.000181  1.056422  0.0
H  H9  1  0.37806863  0.88408825  0.05681897  1  0.112836  0.000367  0.981684  0.0  0.118157  0.000219  1.053322  0.0  0.122434  0.000239  1.049438  0.0  0.108068  0.114892  0.000181  1.05641  0.0
H  H10  1  0.93158201  0.41234511  0.10115237  1  0.128717  4.9e-05  0.934686  -0.001  0.136687  3.8e-05  0.997882  0.0  0.140295  8.9e-05  0.993939  0.0  0.146727  0.133742  5.3e-05  1.001206  0.0
H  H11  1  0.06841689  0.58765423  0.89884887  1  0.128712  4.8e-05  0.934712  -0.001  0.136685  3.8e-05  0.9979  0.0  0.14029  8.9e-05  0.993965  0.0  0.14672  0.13374  5.3e-05  1.001223  0.0
H  H12  1  0.58469664  0.75154469  0.24173165  1  0.096322  0.000114  0.918236  0.0  0.109169  0.000109  0.973603  0.0  0.111213  0.000114  0.971644  0.0  0.137353  0.107527  9.5e-05  0.975116  0.0
H  H13  1  0.41530253  0.24845361  0.75826966  1  0.096322  0.000112  0.918223  0.0  0.109173  0.000109  0.973579  0.0  0.111218  0.000113  0.971621  0.0  0.137352  0.10753  9.5e-05  0.975093  0.0
H  H14  1  0.01690246  0.47453783  0.38783925  1  0.09429  -6e-05  0.907738  0.0  0.109621  -7.1e-05  0.970302  0.0  0.110513  -4.9e-05  0.96967  0.0  0.118282  0.109005  -7.4e-05  0.970786  0.0
H  H15  1  0.98309221  0.52546461  0.61216503  1  0.094262  -6.1e-05  0.90784  0.0  0.109637  -7e-05  0.970357  0.0  0.110523  -5e-05  0.969732  0.0  0.118275  0.109019  -7.4e-05  0.97084  0.0
H  H16  1  0.06928706  0.35322848  0.27597910  1  0.127848  0.000244  0.946333  0.0  0.141646  0.000256  1.007834  0.0  0.144101  0.000261  1.006558  0.0  0.12689  0.139744  0.000198  1.008566  0.0
H  H17  1  0.93071359  0.64677291  0.72402419  1  0.127842  0.000243  0.946303  0.0  0.141626  0.000256  1.007832  0.0  0.144082  0.000261  1.006555  0.0  0.126885  0.139726  0.000198  1.008559  0.0
H  H18  1  0.07491727  0.23707229  0.52093408  1  0.11072  -5e-06  0.937036  0.0  0.122832  -1.1e-05  0.991968  0.0  0.126176  -1e-05  0.991226  0.0  0.105273  0.118902  -1e-05  0.995352  0.0
H  H19  1  0.92508023  0.76292808  0.47906817  1  0.110722  -6e-06  0.937034  0.0  0.122819  -1.1e-05  0.991981  0.0  0.126145  -9e-06  0.991263  0.0  0.105259  0.118889  -1e-05  0.995366  0.0
H  H20  1  0.93522303  0.06801483  0.65400314  1  0.087049  8.1e-05  0.978581  0.0  0.098619  6.7e-05  1.037809  0.0  0.099916  3.8e-05  1.038814  0.0  0.101728  0.097824  7.6e-05  1.036819  0.0
H  H21  1  0.06477755  0.93198243  0.34599629  1  0.087043  7.8e-05  0.978618  0.0  0.098642  6.6e-05  1.037817  0.0  0.099927  3.8e-05  1.038834  0.0  0.101741  0.097844  7.6e-05  1.036825  0.0
H  H22  1  0.66715334  0.05929861  0.63121630  1  0.104397  -1.1e-05  0.971849  0.0  0.109797  -1e-06  1.039885  0.0  0.112866  -3e-06  1.039623  0.0  0.099755  0.107542  7e-06  1.040282  0.0
H  H23  1  0.33284750  0.94069763  0.36878320  1  0.104424  -1.1e-05  0.971768  0.0  0.10981  -1e-06  1.039818  0.0  0.112882  -3e-06  1.039554  0.0  0.099768  0.107563  7e-06  1.040202  0.0
H  H24  1  0.42448573  0.32499959  0.50700176  1  0.103696  -2.2e-05  0.94659  0.0  0.111769  -6.4e-05  1.01797  0.0  0.114118  -4.3e-05  1.015651  0.0  0.117107  0.109746  -8.7e-05  1.020528  0.0
H  H25  1  0.57551433  0.67499974  0.49299840  1  0.10369  -2.7e-05  0.946668  0.0  0.111793  -6.4e-05  1.018045  0.0  0.114141  -4.3e-05  1.015728  0.0  0.117121  0.109771  -8.7e-05  1.020604  0.0
H  H26  1  0.45604009  0.14305569  0.53157216  1  0.102236  -8.5e-05  0.916485  0.0  0.112053  -0.000102  0.986546  0.0  0.114267  -7.3e-05  0.983891  0.0  0.119366  0.11022  -0.000134  0.989179  0.0
H  H27  1  0.54395718  0.85694571  0.46842656  1  0.102208  -8.9e-05  0.916458  0.0  0.112046  -0.000101  0.986536  0.0  0.114259  -7.3e-05  0.983882  0.0  0.119363  0.110213  -0.000134  0.989168  0.0
H  H28  1  0.53225030  0.04859680  0.13091901  1  0.1065  -5.9e-05  0.958025  0.0  0.112186  -7.6e-05  1.024468  0.0  0.115779  1.7e-05  1.021065  0.0  0.13371  0.109112  -0.000171  1.02732  0.0
H  H29  1  0.46775296  0.95140354  0.86907699  1  0.106474  -5.7e-05  0.958059  0.0  0.112179  -7.6e-05  1.024468  0.0  0.115772  1.7e-05  1.021065  0.0  0.133702  0.109104  -0.000171  1.027317  0.0
H  H30  1  0.41094590  0.42843525  0.28788800  1  0.118691  6.4e-05  0.903515  0.0  0.131174  6.2e-05  0.959242  0.0  0.134374  5.9e-05  0.955269  0.0  0.14942  0.128481  7.7e-05  0.962436  0.0
H  H31  1  0.58905251  0.57156615  0.71211137  1  0.118704  6.3e-05  0.903536  0.0  0.131191  6.2e-05  0.959266  0.0  0.134387  5.8e-05  0.955294  0.0  0.149422  0.128499  7.7e-05  0.962457  0.0
C  C32  1  0.70372289  0.36278344  0.90816305  1  0.659015  0.01489  3.863298  0.009  0.620068  0.000394  4.155857  -0.004  0.662374  -0.001176  4.145705  -0.005  0.216096  0.587048  0.004066  4.161325  -0.001
C  C33  1  0.29627729  0.63722002  0.09183577  1  0.658856  0.01488  3.863299  0.009  0.619966  0.000393  4.155804  -0.004  0.662272  -0.001178  4.145656  -0.005  0.216071  0.586944  0.004066  4.161266  -0.001
C  C34  1  0.81045777  0.22371811  0.88994701  1  -0.080511  -0.007906  3.781345  -0.012  -0.051168  -0.003957  4.006982  -0.006  -0.062186  -0.002677  4.029562  -0.004  -0.022001  -0.044477  -0.004994  3.994312  -0.008
C  C35  1  0.18953808  0.77628433  0.11005359  1  -0.080445  -0.007887  3.781318  -0.012  -0.051138  -0.003957  4.006973  -0.006  -0.062156  -0.002677  4.029551  -0.004  -0.022018  -0.044447  -0.004994  3.994305  -0.008
C  C36  1  0.97294018  0.20906125  0.85094130  1  -0.052568  0.009781  3.711152  0.006  -0.082077  0.00282  3.96331  0.001  -0.078481  0.00185  3.981934  0.001  -0.08329  -0.08353  0.003675  3.950547  0.002
C  C37  1  0.02705769  0.79094221  0.14905968  1  -0.052433  0.009754  3.711162  0.006  -0.081931  0.002818  3.963307  0.001  -0.078332  0.001859  3.981929  0.001  -0.08326  -0.083386  0.003674  3.950549  0.002
C  C38  1  0.07091228  0.07910023  0.83078165  1  -0.078844  -0.003027  3.764803  -0.005  -0.090287  -0.000485  4.023612  -0.001  -0.095222  -0.000427  4.044093  -0.001  -0.092665  -0.087077  -0.000589  4.009239  -0.001
C  C39  1  0.92908838  0.92090117  0.16922078  1  -0.078945  -0.003003  3.764908  -0.005  -0.090389  -0.000483  4.023729  -0.001  -0.095323  -0.000433  4.044207  -0.001  -0.092678  -0.087179  -0.000589  4.009356  -0.001
C  C40  1  0.00825602  0.96180459  0.85428399  1  -0.055242  0.010057  3.706169  0.006  -0.084079  0.003299  3.957971  0.002  -0.080267  0.002008  3.974588  0.001  -0.079406  -0.085362  0.004209  3.945813  0.002
C  C41  1  0.99174633  0.03819474  0.14571489  1  -0.055312  0.010007  3.706215  0.006  -0.084156  0.003294  3.958045  0.002  -0.080345  0.00202  3.97466  0.001  -0.079481  -0.085439  0.004209  3.945881  0.002
C  C42  1  0.84648778  0.97509078  0.89910744  1  -0.069221  -0.004222  3.781646  -0.006  -0.03835  -0.001615  4.008229  -0.002  -0.047018  -0.001152  4.029705  -0.002  -0.019855  -0.033574  -0.001881  3.995504  -0.003
C  C43  1  0.15351269  0.02491163  0.10088798  1  -0.069143  -0.004202  3.781768  -0.006  -0.038318  -0.001614  4.008411  -0.002  -0.046986  -0.001155  4.029887  -0.002  -0.019833  -0.033538  -0.001881  3.995676  -0.003
C  C44  1  0.74798589  0.10606634  0.91343210  1  -0.079132  0.006894  3.698705  0.004  -0.116475  0.001313  3.943588  0.0  -0.113975  0.001095  3.962914  0.0  -0.08082  -0.119789  0.003268  3.93333  0.001
C  C45  1  0.25201340  0.89393609  0.08656700  1  -0.079149  0.006839  3.698701  0.004  -0.116487  0.001313  3.943619  0.0  -0.113984  0.001095  3.962941  0.0  -0.080791  -0.119805  0.003268  3.933363  0.001
C  C46  1  0.77692535  0.85196479  0.93380650  1  0.618601  0.013103  3.916966  0.01  0.571905  0.005295  4.216361  0.004  0.607854  0.003756  4.213088  0.003  0.196061  0.546134  0.007019  4.215848  0.006
C  C47  1  0.22307282  0.14803763  0.06618933  1  0.61846  0.013098  3.917132  0.01  0.57176  0.005295  4.216551  0.004  0.607708  0.003755  4.213282  0.003  0.195978  0.545988  0.00702  4.216025  0.006
C  C48  1  0.85480900  0.49080125  0.15832551  1  0.188995  0.013921  3.580918  0.009  0.111568  0.00449  3.852919  0.002  0.128102  0.003681  3.858628  0.002  0.171027  0.100152  0.005857  3.849287  0.003
C  C49  1  0.14519195  0.50919910  0.84167438  1  0.188969  0.013917  3.580949  0.009  0.111559  0.004491  3.852948  0.002  0.128088  0.003679  3.858658  0.002  0.171027  0.100143  0.005858  3.849317  0.003
C  C50  1  0.68128096  0.66170560  0.23364318  1  0.206103  0.009979  3.704908  0.007  0.157864  0.004031  3.99538  0.002  0.170336  0.003739  4.00661  0.002  0.146475  0.14923  0.004295  3.987211  0.002
C  C51  1  0.31871795  0.33829373  0.76635719  1  0.206102  0.009985  3.704952  0.007  0.157877  0.004031  3.995415  0.002  0.170344  0.003741  4.006648  0.002  0.146482  0.149241  0.004296  3.987241  0.002
C  C52  1  0.97089467  0.41151802  0.33969272  1  -0.098701  -0.000426  3.641619  -0.001  -0.181818  -0.00036  3.891409  -0.001  -0.17944  -0.000256  3.899194  0.0  -0.039913  -0.183042  -0.000491  3.88586  -0.001
C  C53  1  0.02910561  0.58848029  0.66031011  1  -0.098773  -0.000421  3.641736  -0.001  -0.181918  -0.00036  3.891574  -0.001  -0.179529  -0.000254  3.899346  0.0  -0.039947  -0.183132  -0.000492  3.886017  -0.001
C  C54  1  0.88625604  0.31306256  0.42613149  1  0.244977  5.8e-05  3.7462  0.0  0.251554  1.5e-05  4.001326  0.0  0.258747  5e-06  4.021181  0.0  0.120248  0.246584  5.2e-05  3.987933  0.0
C  C55  1  0.11374170  0.68693679  0.57387170  1  0.245018  5.9e-05  3.746213  0.0  0.25157  1.4e-05  4.001381  0.0  0.258764  6e-06  4.02123  0.0  0.120249  0.246597  5.2e-05  3.987993  0.0
C  C56  1  0.95935370  0.22928776  0.51246252  1  -0.182812  -3.1e-05  3.719536  0.0  -0.199084  -4.7e-05  3.960105  0.0  -0.207316  -3.3e-05  3.981789  0.0  -0.093079  -0.193806  -4.1e-05  3.946998  0.0
C  C57  1  0.04064520  0.77071158  0.48753872  1  -0.182861  -3.3e-05  3.719536  0.0  -0.199107  -4.7e-05  3.960124  0.0  -0.207322  -3.4e-05  3.981811  0.0  -0.093087  -0.193827  -4.1e-05  3.947013  0.0
C  C58  1  0.88117268  0.13601959  0.58695222  1  0.009292  1.5e-05  3.767256  0.0  -0.006751  2.1e-05  4.012192  0.0  -0.003453  1.4e-05  4.033626  0.0  -0.071088  -0.00856  1.8e-05  3.996825  0.0
C  C59  1  0.11882790  0.86397767  0.41304721  1  0.009388  2.4e-05  3.767228  0.0  -0.006692  2.2e-05  4.012176  0.0  -0.003383  1.6e-05  4.033608  0.0  -0.071055  -0.008498  1.8e-05  3.996804  0.0
C  C60  1  0.73227729  0.13100956  0.57477582  1  -0.176716  7e-06  3.721182  0.0  -0.192606  8e-06  3.961663  0.0  -0.200846  4e-06  3.984245  0.0  -0.092222  -0.186788  7.7e-05  3.945973  0.0
C  C61  1  0.26772214  0.86898771  0.42522382  1  -0.176765  5e-06  3.721107  0.0  -0.192653  8e-06  3.961587  0.0  -0.200895  4e-06  3.984167  0.0  -0.092238  -0.186841  7.7e-05  3.945884  0.0
C  C62  1  0.66753159  0.22075302  0.48803475  1  0.241888  0.000157  3.75834  0.0  0.248819  9.7e-05  4.01131  0.0  0.254929  5.2e-05  4.032544  0.0  0.115409  0.245101  0.000111  3.996209  0.0
C  C63  1  0.33246925  0.77924322  0.51196475  1  0.241895  0.000153  3.758349  0.0  0.248909  9.8e-05  4.011243  0.0  0.255018  4.8e-05  4.03248  0.0  0.115436  0.245189  0.000111  3.996149  0.0
C  C64  1  0.50235970  0.22739838  0.47606955  1  -0.098686  -0.000394  3.654189  -0.001  -0.178738  -0.000354  3.902882  0.0  -0.175543  -0.000267  3.911032  0.0  -0.044375  -0.181107  -0.000447  3.898869  -0.001
C  C65  1  0.49763949  0.77259992  0.52392915  1  -0.098615  -0.000383  3.654114  -0.001  -0.178796  -0.000354  3.902953  0.0  -0.175601  -0.000266  3.911101  0.0  -0.044421  -0.181166  -0.000447  3.898942  -0.001
C  C66  1  0.51040631  0.12597137  0.19475119  1  0.195512  0.007128  3.686094  0.005  0.151261  0.001643  3.969554  0.001  0.162781  0.001293  3.980513  0.0  0.143092  0.143311  0.002294  3.962251  0.001
C  C67  1  0.48960011  0.87403000  0.80524498  1  0.195541  0.007124  3.68619  0.005  0.151294  0.001642  3.969617  0.001  0.162812  0.001291  3.98058  0.0  0.143121  0.143349  0.002294  3.96232  0.001
C  C68  1  0.44706033  0.31968599  0.27206862  1  0.181504  0.012415  3.615893  0.008  0.106054  0.004023  3.886119  0.002  0.123043  0.003109  3.892875  0.002  0.167309  0.094714  0.005234  3.881453  0.003
C  C69  1  0.55294264  0.68031539  0.72793165  1  0.181434  0.012421  3.615971  0.008  0.10598  0.004023  3.886196  0.002  0.122969  0.00311  3.892953  0.002  0.167276  0.094641  0.005234  3.881538  0.003
N  N70  1  0.73677349  0.59108799  0.13255979  1  -0.389491  -0.028746  3.279786  -0.058  -0.349122  -0.021729  3.588523  -0.039  -0.373297  -0.018738  3.595715  -0.033  -0.343643  -0.33054  -0.024337  3.583887  -0.043
N  N71  1  0.26322682  0.40891031  0.86744131  1  -0.389445  -0.028748  3.279765  -0.058  -0.349119  -0.021729  3.588529  -0.039  -0.373289  -0.018736  3.595717  -0.033  -0.343632  -0.330529  -0.024338  3.583883  -0.043
N  N72  1  0.75854375  0.61096234  0.31987790  1  -0.302343  -0.003517  2.89773  -0.006  -0.303303  -0.001355  3.170072  -0.002  -0.312094  -0.001162  3.181774  -0.002  -0.232322  -0.297212  -0.001657  3.16317  -0.002
N  N73  1  0.24145490  0.38903803  0.68012327  1  -0.302329  -0.003519  2.897838  -0.006  -0.303277  -0.001355  3.17019  -0.002  -0.312071  -0.001165  3.181892  -0.002  -0.232297  -0.297185  -0.001657  3.163285  -0.002
N  N74  1  0.86939018  0.50316028  0.26981695  1  0.059459  -0.000854  3.594639  -0.002  0.179506  -0.00026  3.780923  -0.001  0.172243  -0.000347  3.798383  -0.001  -0.134977  0.183715  -0.000295  3.769518  -0.001
N  N75  1  0.13060986  0.49683905  0.73018409  1  0.059551  -0.000852  3.594668  -0.002  0.179554  -0.000259  3.781015  -0.001  0.172292  -0.000348  3.798475  -0.001  -0.134973  0.183761  -0.000295  3.769613  -0.001
N  N76  1  0.74340374  0.30914034  0.41429352  1  -0.389735  1.8e-05  3.047274  0.0  -0.37322  8e-06  3.314626  0.0  -0.385927  2e-06  3.330583  0.0  -0.32361  -0.36361  -1.1e-05  3.303246  0.0
N  N77  1  0.25659656  0.69085796  0.58570845  1  -0.389778  1.6e-05  3.047268  0.0  -0.373265  8e-06  3.314599  0.0  -0.385973  2e-06  3.330556  0.0  -0.323616  -0.363654  -1.1e-05  3.303225  0.0
N  N78  1  0.49204378  0.21854617  0.35354237  1  0.05416  -0.000589  3.578459  -0.001  0.173151  -0.000384  3.765325  -0.001  0.162539  -0.000498  3.789033  -0.001  -0.130992  0.178079  -0.000199  3.753573  -0.001
N  N79  1  0.50795285  0.78145317  0.64645755  1  0.054131  -0.00059  3.578526  -0.001  0.173146  -0.000384  3.765434  -0.001  0.162543  -0.000497  3.78913  -0.001  -0.130986  0.178077  -0.000199  3.753686  -0.001
N  N80  1  0.53421433  0.09400323  0.30522644  1  -0.293252  -0.003167  2.857342  -0.005  -0.287991  -0.001316  3.118054  -0.002  -0.295751  -0.001053  3.129813  -0.002  -0.229609  -0.282354  -0.001619  3.111124  -0.002
N  N81  1  0.46578601  0.90599507  0.69477118  1  -0.293244  -0.003166  2.857452  -0.005  -0.28799  -0.001316  3.118175  -0.002  -0.295752  -0.001052  3.129935  -0.002  -0.229589  -0.282352  -0.001619  3.111242  -0.002
N  N82  1  0.45547039  0.26435898  0.17045053  1  -0.39627  -0.02298  3.243194  -0.049  -0.355921  -0.017606  3.548047  -0.032  -0.379168  -0.01518  3.554444  -0.028  -0.338373  -0.338169  -0.019748  3.544199  -0.036
N  N83  1  0.54452774  0.73564345  0.82955052  1  -0.396277  -0.022977  3.243236  -0.049  -0.355892  -0.017605  3.54806  -0.032  -0.379139  -0.015181  3.55446  -0.028  -0.338378  -0.338143  -0.019745  3.544224  -0.036
O  O84  1  0.76471281  0.46456288  0.90990262  1  -0.60326  -0.04673  2.066451  -0.081  -0.574197  -0.037389  2.343149  -0.061  -0.612123  -0.027531  2.331175  -0.044  -0.309281  -0.542078  -0.046939  2.351227  -0.076
O  O85  1  0.23528996  0.53543953  0.09009064  1  -0.603185  -0.046729  2.066415  -0.081  -0.574194  -0.037391  2.343153  -0.061  -0.612119  -0.027531  2.331178  -0.044  -0.309325  -0.542071  -0.046943  2.351222  -0.076
O  O86  1  0.55723477  0.37378242  0.91832379  1  -0.637822  -0.0453  2.179129  -0.079  -0.615101  -0.034644  2.478314  -0.055  -0.65634  -0.023449  2.464871  -0.036  -0.321007  -0.575263  -0.049094  2.483218  -0.079
O  O87  1  0.44276667  0.62621588  0.08167884  1  -0.637808  -0.045291  2.179125  -0.079  -0.615034  -0.034643  2.478231  -0.055  -0.656283  -0.023448  2.464809  -0.036  -0.320952  -0.575195  -0.049096  2.483129  -0.079
O  O88  1  0.84673549  0.73785765  0.88741667  1  -0.621782  -0.036597  2.025854  -0.065  -0.588821  -0.028566  2.281854  -0.049  -0.625626  -0.020491  2.277262  -0.036  -0.311513  -0.557947  -0.036274  2.283296  -0.06
O  O89  1  0.15326681  0.26214168  0.11258829  1  -0.621687  -0.036601  2.025742  -0.065  -0.588741  -0.028566  2.281732  -0.049  -0.625546  -0.020493  2.277147  -0.036  -0.311485  -0.55787  -0.036275  2.283175  -0.06
O  O90  1  0.64554995  0.86105901  0.00913840  1  -0.61212  -0.037607  1.991717  -0.066  -0.573596  -0.028992  2.247883  -0.05  -0.610411  -0.020441  2.24248  -0.036  -0.305143  -0.541768  -0.038686  2.248504  -0.064
O  O91  1  0.35444596  0.13894342  0.99085438  1  -0.611994  -0.037607  1.991811  -0.066  -0.573498  -0.028991  2.247986  -0.05  -0.610313  -0.02044  2.242586  -0.036  -0.305071  -0.541674  -0.038684  2.248602  -0.064
