# generated using pymatgen
data_CuH16C14(SN3)2
_symmetry_space_group_name_H-M   'P 1'
_cell_length_a   6.47876098
_cell_length_b   11.53225430
_cell_length_c   11.53363140
_cell_angle_alpha   102.97903048
_cell_angle_beta   90.00372663
_cell_angle_gamma   90.00375231
_symmetry_Int_Tables_number   1
_chemical_formula_structural   CuH16C14(SN3)2
_chemical_formula_sum   'Cu2 H32 C28 S4 N12'
_cell_volume   839.71677954
_cell_formula_units_Z   2
loop_
 _symmetry_equiv_pos_site_id
 _symmetry_equiv_pos_as_xyz
  1  'x, y, z'
loop_
 _atom_site_type_symbol
 _atom_site_label
 _atom_site_symmetry_multiplicity
 _atom_site_fract_x
 _atom_site_fract_y
 _atom_site_fract_z
 _atom_site_occupancy
 _atom_site_hle17_ddec_charge
 _atom_site_hle17_ddec_spin_density
 _atom_site_hle17_ddec_sum_bond_order
 _atom_site_hle17_magmom
 _atom_site_hse06_10hf_ddec_charge
 _atom_site_hse06_10hf_ddec_spin_density
 _atom_site_hse06_10hf_ddec_sum_bond_order
 _atom_site_hse06_10hf_magmom
 _atom_site_hse06_ddec_charge
 _atom_site_hse06_ddec_spin_density
 _atom_site_hse06_ddec_sum_bond_order
 _atom_site_hse06_magmom
 _atom_site_pbe_cm5_charge
 _atom_site_pbe_ddec_charge
 _atom_site_pbe_ddec_spin_density
 _atom_site_pbe_ddec_sum_bond_order
 _atom_site_pbe_magmom
Cu  Cu0  1  0.66392766  0.36128189  0.36128953  1  0.812625  0.706239  2.019543  0.487  0.792816  0.803012  2.424  0.613  0.873815  0.882062  2.35995  0.696  0.787796  0.743461  0.740031  2.467647  0.552
Cu  Cu1  1  0.16390118  0.63873004  0.63872175  1  0.812836  -0.706324  2.019625  -0.487  0.793045  -0.803024  2.423896  -0.613  0.873879  -0.882071  2.359971  -0.696  0.787841  0.743694  -0.74005  2.467578  -0.552
H  H2  1  0.69909137  0.04653764  0.79021991  1  0.258151  9.7e-05  0.942022  0.0  0.241176  4.2e-05  1.011764  0.0  0.24753  4.1e-05  1.008138  0.0  0.288748  0.236667  4.2e-05  1.014374  0.0
H  H3  1  0.19908117  0.95346530  0.20977918  1  0.258227  -9.6e-05  0.941979  0.0  0.241205  -4.2e-05  1.011808  0.0  0.247562  -4.1e-05  1.008178  0.0  0.288757  0.236693  -4.2e-05  1.014429  0.0
H  H4  1  0.19912723  0.20980418  0.95345759  1  0.258275  -9.6e-05  0.942119  0.0  0.241326  -4.2e-05  1.01174  0.0  0.247678  -4.1e-05  1.008113  0.0  0.288849  0.236819  -4.2e-05  1.014347  0.0
H  H5  1  0.69915335  0.79020055  0.04654362  1  0.258339  9.7e-05  0.942058  0.0  0.241348  4.2e-05  1.011815  0.0  0.247703  4.1e-05  1.008185  0.0  0.288834  0.236839  4.2e-05  1.014424  0.0
H  H6  1  0.91300818  0.31871626  0.56284325  1  0.085419  0.00109  0.953171  0.002  0.094259  0.00103  1.015784  0.001  0.094713  0.000756  1.015226  0.001  0.113602  0.093639  0.001238  1.016403  0.002
H  H7  1  0.41299616  0.68129139  0.43716962  1  0.085431  -0.00109  0.953056  -0.002  0.094249  -0.00103  1.015676  -0.001  0.094701  -0.000756  1.015121  -0.001  0.113578  0.093635  -0.001238  1.016278  -0.002
H  H8  1  0.41291955  0.43717644  0.68128406  1  0.085324  -0.00109  0.953274  -0.002  0.094153  -0.00103  1.015882  -0.001  0.094605  -0.000756  1.015325  -0.001  0.1136  0.093541  -0.001238  1.016491  -0.002
H  H9  1  0.91298138  0.56284451  0.31872816  1  0.085443  0.00109  0.953063  0.002  0.094286  0.00103  1.015651  0.001  0.09474  0.000757  1.015092  0.001  0.113562  0.093668  0.001238  1.016265  0.002
H  H10  1  0.89690276  0.19504815  0.71282978  1  0.114228  0.000618  0.965732  0.001  0.124018  0.000544  1.026071  0.001  0.127246  0.000392  1.025992  0.0  0.102823  0.121678  0.000661  1.026354  0.001
H  H11  1  0.39690716  0.80496208  0.28718485  1  0.114196  -0.000619  0.96579  -0.001  0.12401  -0.000545  1.026099  -0.001  0.127239  -0.000392  1.026021  0.0  0.102842  0.12167  -0.000661  1.02638  -0.001
H  H12  1  0.39681925  0.28715851  0.80493649  1  0.11429  -0.000618  0.965564  -0.001  0.124078  -0.000545  1.025936  -0.001  0.127298  -0.000392  1.025856  0.0  0.102855  0.121743  -0.000661  1.026213  -0.001
H  H13  1  0.89687336  0.71285232  0.19505572  1  0.114182  0.00062  0.965614  0.001  0.123978  0.000544  1.025981  0.001  0.127205  0.000392  1.0259  0.0  0.102783  0.12164  0.000661  1.026249  0.001
H  H14  1  0.31644693  0.05305397  0.55159633  1  0.111859  0.000656  0.973215  0.001  0.121242  0.000547  1.035383  0.001  0.12388  0.000399  1.036366  0.0  0.102396  0.11933  0.000657  1.034888  0.001
H  H15  1  0.81650969  0.94694845  0.44839929  1  0.11176  -0.000657  0.973317  -0.001  0.121298  -0.000547  1.035321  -0.001  0.123952  -0.000399  1.036283  0.0  0.102388  0.119381  -0.000657  1.034824  -0.001
H  H16  1  0.81645952  0.44841055  0.94693334  1  0.111959  -0.000656  0.97321  -0.001  0.121374  -0.000547  1.035315  -0.001  0.124022  -0.000399  1.036302  0.0  0.10244  0.119458  -0.000657  1.034816  -0.001
H  H17  1  0.31639986  0.55158319  0.05307691  1  0.111831  0.000657  0.973184  0.001  0.12122  0.000547  1.035318  0.001  0.123856  0.000399  1.036309  0.0  0.102401  0.119307  0.000658  1.034819  0.001
H  H18  1  0.36379402  0.17897198  0.40633906  1  0.074799  0.000871  0.973364  0.002  0.080767  0.000933  1.042517  0.001  0.08225  0.000681  1.040776  0.001  0.105511  0.079395  0.001097  1.043942  0.002
H  H19  1  0.86383657  0.82102716  0.59365224  1  0.074851  -0.00087  0.973482  -0.002  0.08083  -0.000933  1.042582  -0.001  0.082311  -0.00068  1.040844  -0.001  0.105574  0.079463  -0.001097  1.043997  -0.002
H  H20  1  0.86376520  0.59367707  0.82101710  1  0.074736  -0.000871  0.973364  -0.002  0.080725  -0.000934  1.042496  -0.001  0.082209  -0.000681  1.040753  -0.001  0.105479  0.07935  -0.001098  1.043931  -0.002
H  H21  1  0.36372957  0.40630904  0.17899487  1  0.074759  0.000871  0.973179  0.002  0.080811  0.000933  1.042294  0.001  0.082301  0.000681  1.040538  0.001  0.105432  0.079428  0.001098  1.043728  0.002
H  H22  1  0.25908354  0.02512269  0.74862443  1  0.080656  -3.9e-05  0.932091  0.0  0.101849  -2e-06  0.996406  0.0  0.102313  -1.8e-05  0.996212  0.0  0.092711  0.101515  1.4e-05  0.996523  0.0
H  H23  1  0.75911811  0.97484850  0.25134585  1  0.080621  3.9e-05  0.932275  0.0  0.101894  2e-06  0.996529  0.0  0.102354  1.9e-05  0.99634  0.0  0.092742  0.101562  -1.4e-05  0.996633  0.0
H  H24  1  0.75917106  0.25131641  0.97481977  1  0.080678  4.1e-05  0.932214  0.0  0.101928  2e-06  0.99651  0.0  0.102357  1.9e-05  0.996352  0.0  0.09275  0.101595  -1.4e-05  0.996619  0.0
H  H25  1  0.25916643  0.74868335  0.02516349  1  0.080668  -3.9e-05  0.932309  0.0  0.101926  -2e-06  0.996598  0.0  0.102358  -1.8e-05  0.996437  0.0  0.092725  0.101602  1.4e-05  0.996703  0.0
H  H26  1  0.42355258  0.93774362  0.81815676  1  0.09351  -0.000115  0.975798  0.0  0.112611  -4.4e-05  1.043545  0.0  0.113012  -3e-05  1.044092  0.0  0.094755  0.112131  -6e-05  1.043437  0.0
H  H27  1  0.92356227  0.06224011  0.18183175  1  0.093489  0.000115  0.97575  0.0  0.112592  4.4e-05  1.043528  0.0  0.112992  3e-05  1.044077  0.0  0.094752  0.112109  6e-05  1.043421  0.0
H  H28  1  0.92364061  0.18179473  0.06222388  1  0.093375  0.000116  0.975991  0.0  0.112501  4.4e-05  1.043775  0.0  0.112898  3e-05  1.044325  0.0  0.094695  0.112019  6e-05  1.043663  0.0
H  H29  1  0.42365021  0.81820779  0.93777727  1  0.093344  -0.000115  0.975981  0.0  0.112448  -4.4e-05  1.043812  0.0  0.112845  -3e-05  1.044366  0.0  0.094662  0.11197  -6e-05  1.0437  0.0
H  H30  1  0.39340086  0.90024614  0.66116987  1  0.083079  -4.2e-05  0.973083  0.0  0.101049  -1.7e-05  1.041884  0.0  0.100428  -2.7e-05  1.043751  0.0  0.090303  0.101346  -7e-06  1.040708  0.0
H  H31  1  0.89341851  0.09974078  0.33881388  1  0.082947  4.3e-05  0.973085  0.0  0.101057  1.7e-05  1.041792  0.0  0.100438  2.7e-05  1.043655  0.0  0.09028  0.101347  8e-06  1.040625  0.0
H  H32  1  0.89347178  0.33881295  0.09967701  1  0.082788  4e-05  0.973131  0.0  0.100881  1.7e-05  1.041901  0.0  0.100266  2.6e-05  1.043749  0.0  0.090207  0.101179  7e-06  1.040726  0.0
H  H33  1  0.39341088  0.66118827  0.90031410  1  0.082758  -4.1e-05  0.97324  0.0  0.100873  -1.7e-05  1.041974  0.0  0.100254  -2.6e-05  1.043832  0.0  0.090226  0.101173  -7e-06  1.0408  0.0
C  C34  1  0.66180764  0.57236064  0.57233551  1  0.287327  -0.004952  4.015268  -0.003  0.279811  0.007759  4.345574  0.012  0.306767  0.006047  4.356346  0.01  0.148177  0.260741  0.008641  4.337988  0.012
C  C35  1  0.16181360  0.42764053  0.42765966  1  0.28735  0.004965  4.015628  0.003  0.279859  -0.007747  4.345887  -0.012  0.306807  -0.006034  4.356669  -0.01  0.148144  0.260797  -0.00863  4.3383  -0.012
C  C36  1  0.49146571  0.16185602  0.16190611  1  0.293758  -0.008847  4.028341  -0.005  0.291503  0.001639  4.323584  0.006  0.318303  0.000179  4.335682  0.004  0.147228  0.273569  0.002679  4.31519  0.007
C  C37  1  0.99144363  0.83812717  0.83809385  1  0.293685  0.008856  4.028444  0.005  0.291402  -0.001633  4.323689  -0.006  0.318204  -0.000171  4.335777  -0.004  0.146996  0.273457  -0.002674  4.315321  -0.007
C  C38  1  0.78505587  0.25754575  0.56337351  1  0.133408  -0.003856  3.752192  -0.004  0.104533  7.4e-05  4.007113  -0.001  0.11719  -0.001111  4.026583  -0.002  0.035045  0.096515  0.000963  3.994085  0.0
C  C39  1  0.28505850  0.74246196  0.43663690  1  0.133398  0.003844  3.752079  0.004  0.10455  -7.5e-05  4.007003  0.001  0.117202  0.001108  4.026464  0.002  0.035056  0.096537  -0.000965  3.993967  0.0
C  C40  1  0.28499049  0.43663387  0.74244793  1  0.133556  0.003847  3.752607  0.004  0.104645  -7.4e-05  4.007464  0.001  0.117299  0.001112  4.026917  0.002  0.034996  0.096623  -0.000964  3.994446  0.0
C  C41  1  0.78502818  0.56337382  0.25755987  1  0.133377  -0.003833  3.752455  -0.004  0.104431  7.2e-05  4.007286  -0.001  0.117087  -0.001112  4.026751  -0.002  0.035054  0.096404  0.000963  3.994259  0.0
C  C42  1  0.77465547  0.18882991  0.64679187  1  -0.251594  0.007712  3.723229  0.008  -0.264412  0.003717  3.974113  0.004  -0.276396  0.003233  3.99251  0.004  -0.109063  -0.256627  0.004092  3.961745  0.005
C  C43  1  0.27467252  0.81118279  0.35322155  1  -0.251679  -0.0077  3.723305  -0.008  -0.264518  -0.003718  3.974188  -0.004  -0.2765  -0.003229  3.992584  -0.004  -0.109153  -0.256734  -0.004093  3.961816  -0.005
C  C44  1  0.27460527  0.35321003  0.81115588  1  -0.251565  -0.007706  3.722964  -0.008  -0.264366  -0.003718  3.973978  -0.004  -0.276338  -0.003233  3.992372  -0.004  -0.108916  -0.256585  -0.004092  3.961614  -0.005
C  C45  1  0.77464554  0.64679092  0.18884118  1  -0.25138  0.00769  3.722746  0.008  -0.264197  0.003719  3.973666  0.004  -0.276174  0.003233  3.992064  0.004  -0.108876  -0.256412  0.004092  3.961282  0.005
C  C46  1  0.60212113  0.11331820  0.64819455  1  0.294487  -0.004692  3.858267  -0.004  0.28086  -0.001722  4.103783  -0.002  0.29858  -0.001869  4.118855  -0.002  0.115507  0.269158  -0.001605  4.09317  -0.002
C  C47  1  0.10214859  0.88668873  0.35181179  1  0.294807  0.004687  3.858157  0.004  0.281168  0.001722  4.103664  0.002  0.29889  0.001867  4.118733  0.002  0.115643  0.269463  0.001605  4.093057  0.002
C  C48  1  0.10211102  0.35181818  0.88667565  1  0.295162  0.00469  3.857694  0.004  0.281275  0.001722  4.103478  0.002  0.298994  0.001868  4.11855  0.002  0.115834  0.269571  0.001605  4.092869  0.002
C  C49  1  0.60210777  0.64818256  0.11333198  1  0.295055  -0.004682  3.857378  -0.004  0.281329  -0.001722  4.102955  -0.002  0.299045  -0.00187  4.118025  -0.002  0.115802  0.269624  -0.001605  4.092347  -0.002
C  C50  1  0.45196573  0.10989368  0.55793548  1  -0.250752  0.007273  3.710003  0.008  -0.263029  0.003779  3.956  0.004  -0.275094  0.003284  3.975063  0.004  -0.110208  -0.255171  0.004113  3.943118  0.005
C  C51  1  0.95200877  0.89011098  0.44206466  1  -0.250674  -0.007262  3.710091  -0.008  -0.263103  -0.003778  3.95608  -0.004  -0.275177  -0.003282  3.975152  -0.004  -0.11013  -0.255246  -0.004113  3.943197  -0.005
C  C52  1  0.95195576  0.44207361  0.89009267  1  -0.251317  -0.007267  3.709993  -0.008  -0.263542  -0.003779  3.95606  -0.004  -0.275622  -0.003286  3.975127  -0.004  -0.110416  -0.255681  -0.004115  3.943177  -0.005
C  C53  1  0.45192458  0.55792315  0.10991360  1  -0.251186  0.007255  3.709826  0.008  -0.263449  0.003782  3.95591  0.004  -0.27551  0.003288  3.974967  0.004  -0.110384  -0.255598  0.004115  3.943028  0.005
C  C54  1  0.47770909  0.18003125  0.47622101  1  0.141552  -0.00386  3.741783  -0.004  0.115618  0.000342  3.992156  0.0  0.128275  -0.000878  4.010625  -0.002  0.036882  0.107658  0.00121  3.97981  0.0
C  C55  1  0.97773976  0.81997210  0.52377657  1  0.141375  0.00385  3.741998  0.004  0.115443  -0.000342  3.992413  0.0  0.128092  0.000877  4.010884  0.002  0.036751  0.107484  -0.001209  3.980059  0.0
C  C56  1  0.97767519  0.52379024  0.81995217  1  0.141973  0.003852  3.741725  0.004  0.115985  -0.000343  3.991985  0.0  0.128633  0.00088  4.010458  0.002  0.037022  0.108025  -0.001211  3.979634  0.0
C  C57  1  0.47766253  0.47619897  0.18004936  1  0.141958  -0.003839  3.741547  -0.004  0.115869  0.000342  3.991803  0.0  0.12852  -0.000882  4.010286  -0.002  0.036986  0.107915  0.001211  3.979435  0.0
C  C58  1  0.40466906  0.97456161  0.73942967  1  -0.123877  6.2e-05  3.720822  0.0  -0.223569  2.1e-05  3.980859  0.0  -0.219193  2.5e-05  3.991657  0.0  -0.148667  -0.226226  1e-05  3.973342  0.0
C  C59  1  0.90469166  0.02542660  0.26055932  1  -0.123653  -6.2e-05  3.720992  0.0  -0.223581  -2e-05  3.981069  0.0  -0.219203  -2.5e-05  3.991873  0.0  -0.148671  -0.226233  -1e-05  3.973543  0.0
C  C60  1  0.90473090  0.26052683  0.02540504  1  -0.123349  -6.3e-05  3.721138  0.0  -0.223348  -2.1e-05  3.981148  0.0  -0.218938  -2.5e-05  3.991955  0.0  -0.148512  -0.226004  -1e-05  3.973599  0.0
C  C61  1  0.40472861  0.73947302  0.97459162  1  -0.123345  6.2e-05  3.721139  0.0  -0.223294  2.2e-05  3.981156  0.0  -0.218882  2.5e-05  3.991949  0.0  -0.148485  -0.22596  1e-05  3.973639  0.0
S  S62  1  0.58899306  0.67987374  0.67987270  1  -0.297227  0.048706  2.186763  0.046  -0.320609  0.011826  2.547425  0.011  -0.338616  0.006293  2.536284  0.006  -0.114814  -0.305058  0.019168  2.554024  0.018
S  S63  1  0.08901855  0.32011936  0.32011278  1  -0.297337  -0.048657  2.186595  -0.046  -0.320659  -0.01181  2.547286  -0.011  -0.338693  -0.006282  2.53616  -0.006  -0.114826  -0.305086  -0.019151  2.553831  -0.018
S  S64  1  0.35747012  0.06655689  0.06659200  1  -0.341177  0.019028  2.069219  0.019  -0.329721  0.002975  2.376051  0.004  -0.34326  0.000792  2.369374  0.002  -0.144733  -0.320246  0.005305  2.380234  0.006
S  S65  1  0.85746051  0.93341776  0.93340293  1  -0.341156  -0.019002  2.069166  -0.019  -0.329631  -0.002969  2.37598  -0.004  -0.343169  -0.000785  2.369308  -0.002  -0.14468  -0.320146  -0.005294  2.380173  -0.006
N  N66  1  0.71933730  0.49391010  0.49383838  1  -0.529496  0.068133  3.082913  0.079  -0.517392  0.043673  3.415532  0.053  -0.548962  0.036556  3.421649  0.046  -0.427061  -0.49679  0.04798  3.412261  0.056
N  N67  1  0.21929514  0.50610076  0.50616456  1  -0.529541  -0.068134  3.083321  -0.079  -0.517493  -0.043685  3.415961  -0.053  -0.54902  -0.036572  3.42206  -0.046  -0.426997  -0.496908  -0.047993  3.412719  -0.056
N  N68  1  0.59277646  0.23057026  0.23063293  1  -0.540946  0.060606  3.098132  0.071  -0.511535  0.045664  3.409884  0.056  -0.543579  0.040355  3.415016  0.051  -0.426734  -0.492269  0.047783  3.407905  0.057
N  N69  1  0.09273659  0.76941586  0.76937440  1  -0.540853  -0.06061  3.098276  -0.071  -0.511533  -0.04567  3.410164  -0.056  -0.543542  -0.040367  3.415297  -0.051  -0.426541  -0.492259  -0.047785  3.408207  -0.057
N  N70  1  0.63927251  0.25427600  0.47849634  1  -0.338587  0.090993  3.354547  0.11  -0.28917  0.066546  3.646228  0.087  -0.32622  0.055118  3.672603  0.076  -0.364619  -0.266603  0.072493  3.629961  0.092
N  N71  1  0.13928148  0.74572817  0.52150689  1  -0.338536  -0.090994  3.354589  -0.11  -0.289106  -0.066549  3.646217  -0.087  -0.326101  -0.055123  3.672546  -0.076  -0.364574  -0.266545  -0.072499  3.629961  -0.092
N  N72  1  0.13922565  0.52151919  0.74572079  1  -0.339004  -0.091022  3.35505  -0.11  -0.289413  -0.066573  3.646588  -0.087  -0.326412  -0.055145  3.67292  -0.076  -0.364692  -0.266845  -0.072524  3.63033  -0.092
N  N73  1  0.63924190  0.47848498  0.25428244  1  -0.338946  0.091013  3.355032  0.11  -0.289251  0.066571  3.646517  0.087  -0.326301  0.055139  3.672885  0.076  -0.364594  -0.266683  0.072523  3.630242  0.092
N  N74  1  0.58038031  0.05034425  0.73294515  1  -0.348823  -0.002979  3.399619  -0.003  -0.280313  -0.001389  3.642408  -0.002  -0.300812  -0.001461  3.65567  -0.002  -0.430737  -0.266186  -0.001337  3.632821  -0.001
N  N75  1  0.08039653  0.94965931  0.26706007  1  -0.349036  0.002976  3.39968  0.003  -0.280483  0.001389  3.642487  0.002  -0.300985  0.001463  3.655751  0.002  -0.430815  -0.266353  0.001337  3.632898  0.001
N  N76  1  0.08042315  0.26707192  0.94965739  1  -0.349291  0.00298  3.399797  0.003  -0.280634  0.001389  3.642703  0.002  -0.301126  0.001465  3.655947  0.002  -0.431049  -0.266502  0.001339  3.633106  0.001
N  N77  1  0.58042777  0.73293344  0.05034994  1  -0.34933  -0.002978  3.399591  -0.003  -0.280756  -0.001392  3.64246  -0.002  -0.301272  -0.001462  3.655752  -0.002  -0.431072  -0.26663  -0.001338  3.632865  -0.001
