# generated using pymatgen
data_CsH2C6N3O8
_symmetry_space_group_name_H-M   'P 1'
_cell_length_a   4.66874699
_cell_length_b   11.19072539
_cell_length_c   20.10991527
_cell_angle_alpha   89.99982836
_cell_angle_beta   90.19572725
_cell_angle_gamma   89.99971731
_symmetry_Int_Tables_number   1
_chemical_formula_structural   CsH2C6N3O8
_chemical_formula_sum   'Cs4 H8 C24 N12 O32'
_cell_volume   1050.66988459
_cell_formula_units_Z   4
loop_
 _symmetry_equiv_pos_site_id
 _symmetry_equiv_pos_as_xyz
  1  'x, y, z'
loop_
 _atom_site_type_symbol
 _atom_site_label
 _atom_site_symmetry_multiplicity
 _atom_site_fract_x
 _atom_site_fract_y
 _atom_site_fract_z
 _atom_site_occupancy
 _atom_site_hle17_bader_spin_density
 _atom_site_hle17_ddec_charge
 _atom_site_hle17_ddec_spin_density
 _atom_site_hle17_ddec_sum_bond_order
 _atom_site_hle17_magmom
 _atom_site_hse06_10hf_bader_spin_density
 _atom_site_hse06_10hf_ddec_charge
 _atom_site_hse06_10hf_ddec_spin_density
 _atom_site_hse06_10hf_ddec_sum_bond_order
 _atom_site_hse06_10hf_magmom
 _atom_site_hse06_bader_spin_density
 _atom_site_hse06_ddec_charge
 _atom_site_hse06_ddec_spin_density
 _atom_site_hse06_ddec_sum_bond_order
 _atom_site_hse06_magmom
 _atom_site_pbe_bader_spin_density
 _atom_site_pbe_cm5_charge
 _atom_site_pbe_ddec_charge
 _atom_site_pbe_ddec_spin_density
 _atom_site_pbe_ddec_sum_bond_order
 _atom_site_pbe_magmom
Cs  Cs0  1  0.90843994  0.86092682  0.13086064  1  0  0.953931  0  0.599806  0  0  0.892635  0  0.858475  0  0  0.910351  0  0.829787  0  0  0.948645  0.879178  0  0.879078  0
Cs  Cs1  1  0.59156221  0.36092674  0.36913901  1  0  0.953958  0  0.599726  0  0  0.892634  0  0.858433  0  0  0.910359  0  0.829754  0  0  0.948631  0.879192  0  0.879033  0
Cs  Cs2  1  0.09156037  0.13907434  0.86913897  1  0  0.953943  0  0.599789  0  0  0.892646  0  0.85845  0  0  0.910365  0  0.829752  0  0  0.948634  0.879187  0  0.87905  0
Cs  Cs3  1  0.40843810  0.63907352  0.63086059  1  0  0.953967  0  0.599734  0  0  0.892649  0  0.858436  0  0  0.910374  0  0.829757  0  0  0.948638  0.879194  0  0.87904  0
H  H4  1  0.66378426  0.96444267  0.30710347  1  0  0.385444  0  0.895276  0  0  0.353786  0  0.979058  0  0  0.366527  0  0.964945  0  0  0.313634  0.344721  0  0.989035  0
H  H5  1  0.83621667  0.46444304  0.19289601  1  0  0.385523  0  0.895187  0  0  0.353843  0  0.978998  0  0  0.366586  0  0.964882  0  0  0.31365  0.34476  0  0.989005  0
H  H6  1  0.33621177  0.03555759  0.69289514  1  0  0.385479  0  0.89522  0  0  0.353836  0  0.978969  0  0  0.366573  0  0.964866  0  0  0.313653  0.344771  0  0.988945  0
H  H7  1  0.16378364  0.53555722  0.80710360  1  0  0.385519  0  0.895187  0  0  0.353857  0  0.978976  0  0  0.366598  0  0.96486  0  0  0.313652  0.344774  0  0.988983  0
H  H8  1  0.09273053  0.88439347  0.47832110  1  0  0.14771  0  0.932136  0  0  0.148222  0  1.003378  0  0  0.152846  0  0.997237  0  0  0.129976  0.144853  0  1.007723  0
H  H9  1  0.40726293  0.38439283  0.02167731  1  0  0.14774  0  0.93211  0  0  0.148234  0  1.003372  0  0  0.15286  0  0.997228  0  0  0.129997  0.144863  0  1.007716  0
H  H10  1  0.90727407  0.11560500  0.52167900  1  0  0.147726  0  0.932097  0  0  0.148238  0  1.003332  0  0  0.152863  0  0.997191  0  0  0.129979  0.14487  0  1.00768  0
H  H11  1  0.59273310  0.61560921  0.97832378  1  0  0.14776  0  0.932121  0  0  0.148254  0  1.003367  0  0  0.15288  0  0.997227  0  0  0.129991  0.144884  0  1.007714  0
C  C12  1  0.42564204  0.83443609  0.32829671  1  0  0.328474  0  3.79484  0  0  0.298705  0  4.081316  0  0  0.321938  0  4.091721  0  0  0.121421  0.283267  0  4.073771  0
C  C13  1  0.07435202  0.33443354  0.17170129  1  0  0.328564  0  3.794826  0  0  0.298677  0  4.0814  0  0  0.321915  0  4.0918  0  0  0.121437  0.283238  0  4.073857  0
C  C14  1  0.57435399  0.16556416  0.67170239  1  0  0.328448  0  3.794951  0  0  0.298601  0  4.081468  0  0  0.321833  0  4.091867  0  0  0.121387  0.283166  0  4.07392  0
C  C15  1  0.92564830  0.66556582  0.82829882  1  0  0.328564  0  3.794716  0  0  0.298675  0  4.081297  0  0  0.32191  0  4.091696  0  0  0.121413  0.283234  0  4.073755  0
C  C16  1  0.31987180  0.71893970  0.31654063  1  0  -0.170611  0  3.575919  0  0  -0.196861  0  3.846994  0  0  -0.21268  0  3.864975  0  0  0.050615  -0.185732  0  3.83458  0
C  C17  1  0.18012363  0.21893598  0.18345806  1  0  -0.170753  0  3.575978  0  0  -0.196829  0  3.846835  0  0  -0.212669  0  3.864836  0  0  0.050655  -0.185702  0  3.834427  0
C  C18  1  0.68012423  0.28106235  0.68345798  1  0  -0.170714  0  3.57609  0  0  -0.196827  0  3.846981  0  0  -0.212663  0  3.864987  0  0  0.050629  -0.185693  0  3.83456  0
C  C19  1  0.81987669  0.78106160  0.81654155  1  0  -0.170741  0  3.576084  0  0  -0.196822  0  3.846988  0  0  -0.212652  0  3.864987  0  0  0.050604  -0.185696  0  3.834577  0
C  C20  1  0.13524951  0.65357135  0.36243396  1  0  0.367303  0  3.887594  0  0  0.34398  0  4.167317  0  0  0.369263  0  4.174434  0  0  0.124754  0.327119  0  4.161681  0
C  C21  1  0.36474669  0.15357017  0.13756434  1  0  0.367332  0  3.887658  0  0  0.344051  0  4.167168  0  0  0.369331  0  4.17429  0  0  0.124776  0.32719  0  4.161537  0
C  C22  1  0.86474867  0.34642801  0.63756514  1  0  0.367317  0  3.887782  0  0  0.344005  0  4.16736  0  0  0.369286  0  4.174472  0  0  0.124746  0.327139  0  4.161726  0
C  C23  1  0.63524934  0.84643187  0.86243327  1  0  0.367393  0  3.887854  0  0  0.344031  0  4.167463  0  0  0.369308  0  4.174591  0  0  0.124833  0.32717  0  4.161834  0
C  C24  1  0.05298114  0.72464442  0.42066151  1  0  -0.05583  0  3.624514  0  0  -0.062724  0  3.884205  0  0  -0.076638  0  3.904083  0  0  0.065681  -0.054029  0  3.870954  0
C  C25  1  0.44701636  0.22464071  0.07933817  1  0  -0.055783  0  3.624621  0  0  -0.06269  0  3.884234  0  0  -0.076595  0  3.904111  0  0  0.065654  -0.054003  0  3.870998  0
C  C26  1  0.94701703  0.27535405  0.57933909  1  0  -0.05582  0  3.624646  0  0  -0.06269  0  3.884266  0  0  -0.076596  0  3.904138  0  0  0.065662  -0.053983  0  3.871002  0
C  C27  1  0.55299038  0.77536223  0.92066244  1  0  -0.055762  0  3.624539  0  0  -0.062575  0  3.884071  0  0  -0.076475  0  3.903951  0  0  0.06566  -0.053895  0  3.870848  0
C  C28  1  0.15405863  0.83779780  0.43299872  1  0  -0.058262  0  3.721428  0  0  -0.106385  0  4.002274  0  0  -0.092426  0  4.013727  0  0  -0.059259  -0.114854  0  3.994137  0
C  C29  1  0.34593754  0.33779526  0.06700076  1  0  -0.058319  0  3.721303  0  0  -0.106417  0  4.002107  0  0  -0.092465  0  4.013566  0  0  -0.059256  -0.114884  0  3.993971  0
C  C30  1  0.84594169  0.16220067  0.56700188  1  0  -0.058359  0  3.721489  0  0  -0.106495  0  4.002327  0  0  -0.092535  0  4.013773  0  0  -0.05931  -0.114964  0  3.994193  0
C  C31  1  0.65405850  0.66220589  0.93299934  1  0  -0.058434  0  3.72134  0  0  -0.106536  0  4.002104  0  0  -0.092592  0  4.013571  0  0  -0.05931  -0.115006  0  3.993977  0
C  C32  1  0.33568460  0.89466000  0.38775100  1  0  -0.063523  0  3.699477  0  0  -0.086579  0  3.966041  0  0  -0.104588  0  3.991547  0  0  0.059723  -0.075762  0  3.94994  0
C  C33  1  0.16430874  0.39465848  0.11224739  1  0  -0.063575  0  3.699406  0  0  -0.086607  0  3.965971  0  0  -0.104616  0  3.991473  0  0  0.059684  -0.075782  0  3.949856  0
C  C34  1  0.66431571  0.10533847  0.61224959  1  0  -0.06343  0  3.699484  0  0  -0.0865  0  3.966045  0  0  -0.104502  0  3.991543  0  0  0.059741  -0.075698  0  3.949973  0
C  C35  1  0.83568729  0.60534267  0.88775271  1  0  -0.063587  0  3.699419  0  0  -0.086647  0  3.966017  0  0  -0.104654  0  3.99152  0  0  0.059692  -0.075807  0  3.949876  0
N  N36  1  0.39988609  0.65988642  0.25570813  1  0  0.521937  0  3.931119  0  0  0.573315  0  4.197293  0  0  0.593868  0  4.205651  0  0  0.042305  0.557375  0  4.192551  0
N  N37  1  0.10011432  0.15988432  0.24429066  1  0  0.522007  0  3.931192  0  0  0.573323  0  4.197366  0  0  0.593913  0  4.205706  0  0  0.042295  0.557385  0  4.192625  0
N  N38  1  0.60011208  0.34011474  0.74429048  1  0  0.52198  0  3.931088  0  0  0.573324  0  4.197255  0  0  0.593906  0  4.205597  0  0  0.042365  0.557382  0  4.192512  0
N  N39  1  0.89988171  0.84011416  0.75570745  1  0  0.521741  0  3.931287  0  0  0.573144  0  4.197388  0  0  0.593708  0  4.205748  0  0  0.042326  0.557209  0  4.192635  0
N  N40  1  0.87441073  0.67101510  0.47094613  1  0  0.54189  0  3.885993  0  0  0.573463  0  4.17579  0  0  0.596889  0  4.183094  0  0  0.040478  0.557686  0  4.170974  0
N  N41  1  0.62558725  0.17101411  0.02905433  1  0  0.541876  0  3.886018  0  0  0.573432  0  4.175815  0  0  0.596855  0  4.183125  0  0  0.040437  0.557656  0  4.171  0
N  N42  1  0.12560030  0.32898159  0.52905696  1  0  0.541793  0  3.885853  0  0  0.573357  0  4.17564  0  0  0.596781  0  4.182941  0  0  0.040526  0.557578  0  4.17083  0
N  N43  1  0.37442163  0.82898883  0.97094677  1  0  0.54174  0  3.885924  0  0  0.573268  0  4.175732  0  0  0.596685  0  4.183048  0  0  0.040415  0.557493  0  4.170918  0
N  N44  1  0.42834438  0.01230331  0.40211731  1  0  0.483003  0  3.942258  0  0  0.540134  0  4.196735  0  0  0.563566  0  4.207191  0  0  0.031072  0.524608  0  4.189529  0
N  N45  1  0.07165135  0.51230157  0.09788122  1  0  0.482924  0  3.942449  0  0  0.540093  0  4.196912  0  0  0.563526  0  4.20737  0  0  0.031033  0.524565  0  4.189702  0
N  N46  1  0.57165165  0.98769785  0.59788278  1  0  0.482931  0  3.942387  0  0  0.540111  0  4.196832  0  0  0.563541  0  4.207287  0  0  0.03107  0.524587  0  4.189618  0
N  N47  1  0.92834040  0.48769690  0.90211838  1  0  0.482918  0  3.942543  0  0  0.540147  0  4.196902  0  0  0.563581  0  4.207357  0  0  0.031057  0.524618  0  4.189697  0
O  O48  1  0.61318085  0.88341050  0.28708246  1  0  -0.472996  0  2.186921  0  0  -0.433919  0  2.418911  0  0  -0.454803  0  2.409672  0  0  -0.333236  -0.419142  0  2.424881  0
O  O49  1  0.88682104  0.38340887  0.21291616  1  0  -0.473137  0  2.187013  0  0  -0.43401  0  2.419072  0  0  -0.454898  0  2.409837  0  0  -0.333303  -0.419223  0  2.42508  0
O  O50  1  0.38682161  0.11659066  0.71291715  1  0  -0.473024  0  2.187034  0  0  -0.433915  0  2.419003  0  0  -0.454812  0  2.409802  0  0  -0.33323  -0.419137  0  2.424973  0
O  O51  1  0.11317928  0.61659050  0.78708345  1  0  -0.473093  0  2.186889  0  0  -0.43396  0  2.418917  0  0  -0.454852  0  2.409695  0  0  -0.33326  -0.419174  0  2.424924  0
O  O52  1  0.39241106  0.71858875  0.20277663  1  0  -0.411242  0  1.797033  0  0  -0.410645  0  2.021786  0  0  -0.422003  0  2.016769  0  0  -0.238691  -0.401947  0  2.025402  0
O  O53  1  0.10759080  0.21858545  0.29722157  1  0  -0.411356  0  1.797025  0  0  -0.410584  0  2.021848  0  0  -0.421965  0  2.016846  0  0  -0.238635  -0.401882  0  2.025452  0
O  O54  1  0.60758711  0.28141240  0.79722198  1  0  -0.41124  0  1.796962  0  0  -0.410607  0  2.021706  0  0  -0.421974  0  2.016685  0  0  -0.23869  -0.401912  0  2.025328  0
O  O55  1  0.89241380  0.78141123  0.70277605  1  0  -0.411281  0  1.797023  0  0  -0.410557  0  2.021803  0  0  -0.421918  0  2.016787  0  0  -0.23866  -0.401866  0  2.025428  0
O  O56  1  0.46529275  0.55221683  0.25764377  1  0  -0.351178  0  1.788915  0  0  -0.338737  0  1.998168  0  0  -0.347795  0  1.99272  0  0  -0.167591  -0.331811  0  2.002214  0
O  O57  1  0.03471322  0.05221219  0.24235470  1  0  -0.35108  0  1.788884  0  0  -0.33882  0  1.998143  0  0  -0.347895  0  1.992694  0  0  -0.167632  -0.331889  0  2.002186  0
O  O58  1  0.53470756  0.44778611  0.74235434  1  0  -0.351199  0  1.788891  0  0  -0.338807  0  1.998164  0  0  -0.347882  0  1.992722  0  0  -0.167662  -0.33188  0  2.002207  0
O  O59  1  0.96526568  0.94778539  0.75764339  1  0  -0.350896  0  1.788899  0  0  -0.338682  0  1.998182  0  0  -0.347739  0  1.992731  0  0  -0.16761  -0.331755  0  2.002223  0
O  O60  1  0.06025941  0.54754973  0.35397236  1  0  -0.548661  0  2.023143  0  0  -0.527348  0  2.265007  0  0  -0.550876  0  2.262554  0  0  -0.406441  -0.51043  0  2.265834  0
O  O61  1  0.43974233  0.04754656  0.14602911  1  0  -0.548623  0  2.023144  0  0  -0.527419  0  2.264919  0  0  -0.550942  0  2.262454  0  0  -0.406473  -0.510498  0  2.265743  0
O  O62  1  0.93973876  0.45244964  0.64602724  1  0  -0.548639  0  2.023205  0  0  -0.527373  0  2.265023  0  0  -0.550906  0  2.262585  0  0  -0.406435  -0.510453  0  2.265851  0
O  O63  1  0.56024514  0.95244833  0.85396601  1  0  -0.548614  0  2.023349  0  0  -0.527382  0  2.265209  0  0  -0.550885  0  2.2627  0  0  -0.406468  -0.510464  0  2.266034  0
O  O64  1  0.67530904  0.60389012  0.45359471  1  0  -0.386789  0  1.772626  0  0  -0.377949  0  1.994367  0  0  -0.389098  0  1.990268  0  0  -0.167503  -0.37051  0  1.997215  0
O  O65  1  0.82469616  0.10389131  0.04640885  1  0  -0.386736  0  1.772571  0  0  -0.377941  0  1.994308  0  0  -0.389092  0  1.990213  0  0  -0.167472  -0.370493  0  1.997132  0
O  O66  1  0.32471270  0.39609763  0.54641237  1  0  -0.386737  0  1.772577  0  0  -0.377905  0  1.994331  0  0  -0.389052  0  1.990233  0  0  -0.167512  -0.370461  0  1.997177  0
O  O67  1  0.17532344  0.89611878  0.95359674  1  0  -0.386707  0  1.772526  0  0  -0.377872  0  1.994286  0  0  -0.389025  0  1.99019  0  0  -0.167479  -0.370419  0  1.997104  0
O  O68  1  0.92727206  0.69569961  0.53039328  1  0  -0.433026  0  1.804943  0  0  -0.419958  0  2.035204  0  0  -0.433918  0  2.029951  0  0  -0.240514  -0.410528  0  2.038934  0
O  O69  1  0.57273201  0.19569635  0.96960639  1  0  -0.433037  0  1.804994  0  0  -0.419939  0  2.035238  0  0  -0.433899  0  2.029986  0  0  -0.240499  -0.410509  0  2.038965  0
O  O70  1  0.07273897  0.30430601  0.46960832  1  0  -0.432932  0  1.804809  0  0  -0.419866  0  2.035057  0  0  -0.433831  0  2.029821  0  0  -0.240499  -0.410439  0  2.038795  0
O  O71  1  0.42727687  0.80429586  0.03039372  1  0  -0.432917  0  1.804914  0  0  -0.41987  0  2.035189  0  0  -0.43382  0  2.02992  0  0  -0.240474  -0.410452  0  2.038943  0
O  O72  1  0.33282796  0.06692708  0.45097301  1  0  -0.352682  0  1.784291  0  0  -0.346011  0  1.987142  0  0  -0.358495  0  1.983534  0  0  -0.130847  -0.337172  0  1.989488  0
O  O73  1  0.16716284  0.56692541  0.04902493  1  0  -0.352586  0  1.784416  0  0  -0.34595  0  1.987253  0  0  -0.358433  0  1.983644  0  0  -0.1308  -0.33711  0  1.989598  0
O  O74  1  0.66716807  0.93307318  0.54902709  1  0  -0.352665  0  1.784307  0  0  -0.345997  0  1.987113  0  0  -0.358479  0  1.983507  0  0  -0.130833  -0.337158  0  1.989455  0
O  O75  1  0.83282463  0.43307306  0.95097416  1  0  -0.352572  0  1.784474  0  0  -0.345973  0  1.987287  0  0  -0.358456  0  1.983678  0  0  -0.130804  -0.337137  0  1.989632  0
O  O76  1  0.61412118  0.06029564  0.36377938  1  0  -0.424913  0  1.807127  0  0  -0.417126  0  2.019808  0  0  -0.431924  0  2.013774  0  0  -0.184213  -0.406904  0  2.023874  0
O  O77  1  0.88587811  0.56029484  0.13622027  1  0  -0.424941  0  1.807119  0  0  -0.417096  0  2.019796  0  0  -0.431897  0  2.013768  0  0  -0.184183  -0.406863  0  2.023862  0
O  O78  1  0.38587057  0.93970641  0.63622072  1  0  -0.424885  0  1.807202  0  0  -0.417108  0  2.019873  0  0  -0.431915  0  2.013868  0  0  -0.184205  -0.406879  0  2.02393  0
O  O79  1  0.11411578  0.43970542  0.86378032  1  0  -0.424951  0  1.80719  0  0  -0.41716  0  2.019859  0  0  -0.43196  0  2.013826  0  0  -0.184233  -0.406928  0  2.023926  0
