# generated using pymatgen
data_CdH16(C8N5)2
_symmetry_space_group_name_H-M   'P 1'
_cell_length_a   6.97191097
_cell_length_b   10.47432437
_cell_length_c   13.70039637
_cell_angle_alpha   105.05659763
_cell_angle_beta   103.18238691
_cell_angle_gamma   96.00746348
_symmetry_Int_Tables_number   1
_chemical_formula_structural   CdH16(C8N5)2
_chemical_formula_sum   'Cd2 H32 C32 N20'
_cell_volume   926.27756824
_cell_formula_units_Z   2
loop_
 _symmetry_equiv_pos_site_id
 _symmetry_equiv_pos_as_xyz
  1  'x, y, z'
loop_
 _atom_site_type_symbol
 _atom_site_label
 _atom_site_symmetry_multiplicity
 _atom_site_fract_x
 _atom_site_fract_y
 _atom_site_fract_z
 _atom_site_occupancy
 _atom_site_hle17_bader_spin_density
 _atom_site_hle17_ddec_charge
 _atom_site_hle17_ddec_spin_density
 _atom_site_hle17_ddec_sum_bond_order
 _atom_site_hle17_magmom
 _atom_site_hse06_10hf_bader_spin_density
 _atom_site_hse06_10hf_ddec_charge
 _atom_site_hse06_10hf_ddec_spin_density
 _atom_site_hse06_10hf_ddec_sum_bond_order
 _atom_site_hse06_10hf_magmom
 _atom_site_hse06_bader_spin_density
 _atom_site_hse06_ddec_charge
 _atom_site_hse06_ddec_spin_density
 _atom_site_hse06_ddec_sum_bond_order
 _atom_site_hse06_magmom
 _atom_site_pbe_bader_spin_density
 _atom_site_pbe_cm5_charge
 _atom_site_pbe_ddec_charge
 _atom_site_pbe_ddec_spin_density
 _atom_site_pbe_ddec_sum_bond_order
 _atom_site_pbe_magmom
Cd  Cd0  1  0.67619972  0.40409411  0.44756796  1  0  1.010326  0  1.88302  0  0  0.817513  0  2.354933  0  0  0.864646  0  2.316303  0  0  0.796002  0.784137  0  2.381291  0
Cd  Cd1  1  0.32379157  0.59591613  0.55243733  1  0  1.010359  0  1.883071  0  0  0.817525  0  2.355036  0  0  0.864657  0  2.316406  0  0  0.795988  0.784149  0  2.381397  0
H  H2  1  0.46516974  0.51791224  0.26272377  1  0  0.093958  0  0.962122  0  0  0.106499  0  1.02671  0  0  0.107083  0  1.028008  0  0  0.1042  0.106045  0  1.02588  0
H  H3  1  0.53482988  0.48208479  0.73727650  1  0  0.093833  0  0.962091  0  0  0.106402  0  1.026673  0  0  0.106985  0  1.027968  0  0  0.104142  0.105924  0  1.025874  0
H  H4  1  0.51753087  0.63068486  0.19258464  1  0  0.090219  0  0.926635  0  0  0.106168  0  0.985151  0  0  0.107199  0  0.985759  0  0  0.1  0.105478  0  0.984775  0
H  H5  1  0.48246702  0.36931125  0.80741747  1  0  0.090169  0  0.926708  0  0  0.106123  0  0.98523  0  0  0.10715  0  0.985843  0  0  0.099985  0.105436  0  0.984847  0
H  H6  1  0.72397738  0.78689088  0.53856512  1  0  0.089651  0  0.973776  0  0  0.08815  0  1.052142  0  0  0.091212  0  1.049549  0  0  0.111045  0.085846  0  1.054147  0
H  H7  1  0.27601926  0.21311717  0.46143603  1  0  0.089649  0  0.973837  0  0  0.088135  0  1.052204  0  0  0.091203  0  1.049603  0  0  0.111028  0.085833  0  1.054206  0
H  H8  1  0.54740649  0.01803882  0.32398421  1  0  0.104751  0  0.957316  0  0  0.113648  0  1.016864  0  0  0.116219  0  1.015477  0  0  0.111508  0.111745  0  1.017875  0
H  H9  1  0.45259189  0.98195886  0.67600728  1  0  0.104718  0  0.957487  0  0  0.113697  0  1.016917  0  0  0.116272  0  1.015528  0  0  0.111532  0.111794  0  1.017925  0
H  H10  1  0.94443747  0.82430501  0.94146231  1  0  0.100939  0  0.959093  0  0  0.110364  0  1.021514  0  0  0.113128  0  1.020445  0  0  0.103998  0.108318  0  1.022457  0
H  H11  1  0.05557955  0.17569095  0.05853910  1  0  0.100906  0  0.959146  0  0  0.110338  0  1.021564  0  0  0.113101  0  1.020498  0  0  0.103965  0.108293  0  1.022502  0
H  H12  1  0.74745979  0.86597262  0.22250906  1  0  0.10743  0  0.968951  0  0  0.114688  0  1.038677  0  0  0.117376  0  1.037829  0  0  0.102873  0.112534  0  1.039887  0
H  H13  1  0.25253981  0.13402423  0.77748680  1  0  0.10739  0  0.96901  0  0  0.114645  0  1.038743  0  0  0.117333  0  1.037895  0  0  0.10287  0.112491  0  1.039954  0
H  H14  1  0.19811648  0.90169667  0.28519117  1  0  0.119201  0  0.962886  0  0  0.129538  0  1.019336  0  0  0.132368  0  1.019112  0  0  0.112414  0.127472  0  1.019733  0
H  H15  1  0.80188150  0.09830526  0.71480686  1  0  0.119232  0  0.962864  0  0  0.129591  0  1.01927  0  0  0.13242  0  1.019047  0  0  0.112411  0.127487  0  1.01971  0
H  H16  1  0.82005696  0.95650440  0.45011946  1  0  0.107374  0  0.949357  0  0  0.113852  0  1.016964  0  0  0.117146  0  1.015573  0  0  0.105804  0.111347  0  1.018377  0
H  H17  1  0.17994316  0.04349431  0.54987314  1  0  0.107253  0  0.949524  0  0  0.113838  0  1.017032  0  0  0.117131  0  1.015643  0  0  0.105793  0.111335  0  1.018439  0
H  H18  1  0.11858393  0.64237416  0.97680049  1  0  0.089299  0  0.972761  0  0  0.101315  0  1.031956  0  0  0.103579  0  1.031293  0  0  0.102491  0.099688  0  1.032496  0
H  H19  1  0.88142616  0.35761798  0.02320381  1  0  0.089299  0  0.972769  0  0  0.101314  0  1.031977  0  0  0.103575  0  1.031318  0  0  0.102473  0.099684  0  1.032512  0
H  H20  1  0.10526978  0.56699455  0.13620614  1  0  0.111421  0  0.963119  0  0  0.117466  0  1.034299  0  0  0.120467  0  1.032936  0  0  0.105276  0.115264  0  1.03538  0
H  H21  1  0.89473027  0.43299863  0.86379789  1  0  0.111381  0  0.96319  0  0  0.117451  0  1.034332  0  0  0.120448  0  1.032974  0  0  0.105254  0.115253  0  1.035414  0
H  H22  1  0.65213534  0.45672535  0.07583818  1  0  0.089777  0  0.971222  0  0  0.109995  0  1.034588  0  0  0.111021  0  1.035211  0  0  0.083003  0.109272  0  1.034117  0
H  H23  1  0.34786923  0.54327374  0.92416450  1  0  0.089797  0  0.971234  0  0  0.11001  0  1.034601  0  0  0.111036  0  1.035225  0  0  0.08301  0.10929  0  1.034128  0
H  H24  1  0.40564458  0.39196918  0.07542084  1  0  0.103399  0  0.968599  0  0  0.123319  0  1.030201  0  0  0.123871  0  1.032438  0  0  0.086559  0.122907  0  1.028651  0
H  H25  1  0.59436040  0.60802580  0.92457897  1  0  0.103423  0  0.968646  0  0  0.123365  0  1.030222  0  0  0.123917  0  1.032459  0  0  0.086572  0.122955  0  1.028667  0
H  H26  1  0.61479618  0.34368796  0.15045071  1  0  0.11654  0  0.947909  0  0  0.134681  0  1.010687  0  0  0.136492  0  1.010301  0  0  0.090181  0.13321  0  1.01119  0
H  H27  1  0.38520813  0.65631018  0.84955324  1  0  0.116469  0  0.948002  0  0  0.13468  0  1.010712  0  0  0.136491  0  1.010326  0  0  0.090192  0.133211  0  1.011214  0
H  H28  1  0.72823275  0.98501780  0.98361151  1  0  0.108217  0  0.947246  0  0  0.130285  0  1.004909  0  0  0.13171  0  1.004619  0  0  0.09281  0.129235  0  1.005173  0
H  H29  1  0.27178372  0.01497589  0.01638285  1  0  0.108164  0  0.947354  0  0  0.130324  0  1.004904  0  0  0.13175  0  1.004615  0  0  0.092828  0.129273  0  1.005168  0
H  H30  1  0.81493447  0.06936673  0.12051588  1  0  0.122555  0  0.947582  0  0  0.143025  0  1.009406  0  0  0.143627  0  1.010221  0  0  0.098434  0.142511  0  1.008934  0
H  H31  1  0.18507075  0.93062905  0.87947899  1  0  0.122575  0  0.947521  0  0  0.143  0  1.009401  0  0  0.143601  0  1.010219  0  0  0.098411  0.142487  0  1.00893  0
H  H32  1  0.58115205  0.96171259  0.07040612  1  0  0.111828  0  0.948486  0  0  0.13559  0  1.004634  0  0  0.136626  0  1.004808  0  0  0.094231  0.134888  0  1.004496  0
H  H33  1  0.41885263  0.03828100  0.92958392  1  0  0.111883  0  0.94856  0  0  0.135618  0  1.004717  0  0  0.136655  0  1.004893  0  0  0.094224  0.134921  0  1.004572  0
C  C34  1  0.76918680  0.59366704  0.29329203  1  0  0.347408  0  3.643678  0  0  0.311537  0  3.922161  0  0  0.32659  0  3.935998  0  0  0.245187  0.301617  0  3.912731  0
C  C35  1  0.23080894  0.40633203  0.70670888  1  0  0.347402  0  3.643615  0  0  0.31143  0  3.922278  0  0  0.326477  0  3.936116  0  0  0.245176  0.301514  0  3.912846  0
C  C36  1  0.56739522  0.54598754  0.21883873  1  0  -0.157102  0  3.721745  0  0  -0.19014  0  3.974042  0  0  -0.192527  0  3.985484  0  0  -0.150358  -0.188461  0  3.966064  0
C  C37  1  0.43260294  0.45400961  0.78116431  1  0  -0.156912  0  3.721653  0  0  -0.189959  0  3.974033  0  0  -0.192337  0  3.985468  0  0  -0.150263  -0.188258  0  3.96606  0
C  C38  1  0.08140804  0.69524466  0.36470378  1  0  0.248457  0  3.716203  0  0  0.208624  0  3.988514  0  0  0.222038  0  4.00165  0  0  0.23498  0.199771  0  3.979689  0
C  C39  1  0.91858982  0.30476250  0.63530027  1  0  0.248587  0  3.716056  0  0  0.208624  0  3.988533  0  0  0.222039  0  4.00167  0  0  0.234955  0.199776  0  3.979706  0
C  C40  1  0.27991587  0.77444924  0.38486620  1  0  0.152327  0  3.7938  0  0  0.155115  0  4.035122  0  0  0.159414  0  4.055549  0  0  0.120846  0.15207  0  4.021492  0
C  C41  1  0.72007918  0.22555273  0.61513222  1  0  0.152203  0  3.793663  0  0  0.155052  0  4.034979  0  0  0.15935  0  4.055405  0  0  0.120835  0.152007  0  4.021346  0
C  C42  1  0.61273417  0.81132837  0.47911935  1  0  0.139977  0  3.687609  0  0  0.110364  0  3.945267  0  0  0.116973  0  3.962246  0  0  0.050287  0.106059  0  3.933829  0
C  C43  1  0.38726609  0.18867662  0.52088095  1  0  0.139868  0  3.687876  0  0  0.110305  0  3.945518  0  0  0.116911  0  3.962495  0  0  0.050305  0.106003  0  3.934077  0
C  C44  1  0.92323163  0.71250257  0.18554340  1  0  0.173447  0  3.814752  0  0  0.170816  0  4.063577  0  0  0.175173  0  4.0862  0  0  0.083629  0.16774  0  4.048397  0
C  C45  1  0.07676209  0.28749441  0.81445471  1  0  0.173375  0  3.814824  0  0  0.170743  0  4.063662  0  0  0.175125  0  4.086251  0  0  0.083563  0.167667  0  4.048482  0
C  C46  1  0.51500463  0.93936311  0.35962670  1  0  -0.006578  0  3.707145  0  0  -0.020456  0  3.954296  0  0  -0.017789  0  3.972493  0  0  -0.065363  -0.02201  0  3.942007  0
C  C47  1  0.48499765  0.06063267  0.64036782  1  0  -0.006534  0  3.707105  0  0  -0.020462  0  3.954269  0  0  -0.017796  0  3.972467  0  0  -0.065389  -0.022013  0  3.941965  0
C  C48  1  0.94024898  0.79499981  0.01176874  1  0  -0.124672  0  3.716756  0  0  -0.146828  0  3.958574  0  0  -0.149983  0  3.980046  0  0  -0.083922  -0.144714  0  3.944242  0
C  C49  1  0.05976310  0.20499421  0.98823320  1  0  -0.124531  0  3.716839  0  0  -0.146659  0  3.958665  0  0  -0.149824  0  3.980128  0  0  -0.08387  -0.144544  0  3.944322  0
C  C50  1  0.82473669  0.81591977  0.16685717  1  0  -0.195128  0  3.698972  0  0  -0.224497  0  3.943839  0  0  -0.227733  0  3.962594  0  0  -0.087296  -0.222324  0  3.931883  0
C  C51  1  0.17526025  0.18407821  0.83314150  1  0  -0.19502  0  3.69906  0  0  -0.224351  0  3.943925  0  0  -0.227604  0  3.962663  0  0  -0.087251  -0.222177  0  3.931963  0
C  C52  1  0.31841843  0.87348958  0.33682885  1  0  -0.131757  0  3.692828  0  0  -0.152556  0  3.934822  0  0  -0.157906  0  3.955123  0  0  -0.077815  -0.149132  0  3.921457  0
C  C53  1  0.68157955  0.12651224  0.66316624  1  0  -0.131815  0  3.692793  0  0  -0.152637  0  3.934787  0  0  -0.15799  0  3.955089  0  0  -0.07782  -0.149179  0  3.921439  0
C  C54  1  0.66515245  0.90680324  0.43066300  1  0  -0.110624  0  3.699405  0  0  -0.130572  0  3.960223  0  0  -0.136176  0  3.980925  0  0  -0.083674  -0.127029  0  3.946641  0
C  C55  1  0.33484605  0.09320052  0.56933103  1  0  -0.110513  0  3.69957  0  0  -0.130605  0  3.960427  0  0  -0.136212  0  3.981133  0  0  -0.083689  -0.127058  0  3.946834  0
C  C56  1  0.03824372  0.69088471  0.03138426  1  0  -0.051927  0  3.786072  0  0  -0.06305  0  4.034391  0  0  -0.064383  0  4.056025  0  0  -0.088545  -0.06217  0  4.019872  0
C  C57  1  0.96175899  0.30910720  0.96861328  1  0  -0.052074  0  3.786305  0  0  -0.063219  0  4.034659  0  0  -0.06455  0  4.056293  0  0  -0.088584  -0.062333  0  4.020131  0
C  C58  1  0.03114080  0.64828164  0.11893740  1  0  -0.165388  0  3.758245  0  0  -0.192366  0  4.017116  0  0  -0.195809  0  4.037838  0  0  -0.097105  -0.18992  0  4.003245  0
C  C59  1  0.96885657  0.35171249  0.88106503  1  0  -0.165298  0  3.758417  0  0  -0.192283  0  4.017286  0  0  -0.195734  0  4.038005  0  0  -0.097072  -0.18984  0  4.00342  0
C  C60  1  0.83362663  0.85957471  0.07929921  1  0  0.16101  0  3.754991  0  0  0.192393  0  3.983854  0  0  0.192936  0  4.008783  0  0  -0.000518  0.191765  0  3.967195  0
C  C61  1  0.16638155  0.14042117  0.92069895  1  0  0.160928  0  3.755023  0  0  0.192226  0  3.983986  0  0  0.192802  0  4.00887  0  0  -0.000544  0.191599  0  3.967325  0
C  C62  1  0.56019581  0.42695160  0.12412224  1  0  -0.273869  0  3.663576  0  0  -0.344884  0  3.898045  0  0  -0.347265  0  3.907995  0  0  -0.245256  -0.342919  0  3.891146  0
C  C63  1  0.43980555  0.57304646  0.87587916  1  0  -0.273896  0  3.663721  0  0  -0.344975  0  3.898194  0  0  -0.347359  0  3.908142  0  0  -0.245299  -0.343007  0  3.891279  0
C  C64  1  0.73397807  0.97469439  0.06178609  1  0  -0.33944  0  3.723774  0  0  -0.420298  0  3.951566  0  0  -0.422612  0  3.962283  0  0  -0.236421  -0.418413  0  3.94426  0
C  C65  1  0.26604013  0.02530030  0.93820866  1  0  -0.339413  0  3.723772  0  0  -0.420267  0  3.951555  0  0  -0.42259  0  3.96226  0  0  -0.236374  -0.418387  0  3.944242  0
N  N66  1  0.83442707  0.17451586  0.32727556  1  0  0.381196  0  4.294397  0  0  0.416859  0  4.584425  0  0  0.432349  0  4.615051  0  0  0.061699  0.406415  0  4.562745  0
N  N67  1  0.16555927  0.82549224  0.67272511  1  0  0.381312  0  4.294128  0  0  0.41697  0  4.58419  0  0  0.432457  0  4.61482  0  0  0.061742  0.406526  0  4.562509  0
N  N68  1  0.66386520  0.58135441  0.59714956  1  0  -0.616415  0  2.761121  0  0  -0.565656  0  3.069795  0  0  -0.592456  0  3.076559  0  0  -0.33048  -0.547112  0  3.064939  0
N  N69  1  0.33612931  0.41865694  0.40285922  1  0  -0.616457  0  2.761128  0  0  -0.565692  0  3.069762  0  0  -0.592503  0  3.076524  0  0  -0.330432  -0.547148  0  3.064908  0
N  N70  1  0.77812184  0.60106196  0.68240097  1  0  0.406373  0  4.231007  0  0  0.43781  0  4.513032  0  0  0.454135  0  4.541987  0  0  0.079354  0.426725  0  4.493488  0
N  N71  1  0.22186692  0.39894427  0.31760330  1  0  0.40635  0  4.231153  0  0  0.437807  0  4.513143  0  0  0.454141  0  4.542085  0  0  0.079272  0.426718  0  4.493609  0
N  N72  1  0.70050746  0.23624065  0.31082513  1  0  -0.590349  0  2.603325  0  0  -0.566603  0  2.886608  0  0  -0.588157  0  2.894126  0  0  -0.328578  -0.550783  0  2.880779  0
N  N73  1  0.29947941  0.76376948  0.68917670  1  0  -0.590462  0  2.603515  0  0  -0.566714  0  2.8868  0  0  -0.588272  0  2.894323  0  0  -0.328601  -0.550895  0  2.880971  0
N  N74  1  0.83413677  0.56686802  0.38357735  1  0  -0.283109  0  3.105107  0  0  -0.230725  0  3.397521  0  0  -0.24707  0  3.414236  0  0  -0.224686  -0.219491  0  3.386175  0
N  N75  1  0.16586377  0.43313811  0.61642610  1  0  -0.283112  0  3.105029  0  0  -0.230688  0  3.39746  0  0  -0.24703  0  3.414175  0  0  -0.224643  -0.21945  0  3.386111  0
N  N76  1  0.02824524  0.63024108  0.42825573  1  0  -0.262679  0  3.080178  0  0  -0.222059  0  3.369139  0  0  -0.234628  0  3.385167  0  0  -0.224112  -0.213546  0  3.358153  0
N  N77  1  0.97175314  0.36976809  0.57174874  1  0  -0.262693  0  3.080034  0  0  -0.222033  0  3.369034  0  0  -0.234604  0  3.385063  0  0  -0.22412  -0.213513  0  3.358037  0
N  N78  1  0.42507945  0.74600046  0.45608701  1  0  -0.347087  0  3.216967  0  0  -0.280902  0  3.470974  0  0  -0.298307  0  3.490767  0  0  -0.318731  -0.26901  0  3.457376  0
N  N79  1  0.57491718  0.25400752  0.54391266  1  0  -0.346902  0  3.216847  0  0  -0.280718  0  3.470757  0  0  -0.298132  0  3.490578  0  0  -0.318654  -0.268827  0  3.457163  0
N  N80  1  0.92195446  0.67397507  0.27868031  1  0  -0.197086  0  3.506124  0  0  -0.112877  0  3.720991  0  0  -0.130193  0  3.7429  0  0  -0.208496  -0.101534  0  3.706355  0
N  N81  1  0.07803927  0.32602194  0.72131854  1  0  -0.197043  0  3.506137  0  0  -0.112801  0  3.721109  0  0  -0.130121  0  3.743009  0  0  -0.20846  -0.101455  0  3.706476  0
N  N82  1  0.88966261  0.61824037  0.76420392  1  0  -0.381708  0  2.376612  0  0  -0.383979  0  2.60359  0  0  -0.389826  0  2.613616  0  0  -0.191798  -0.379716  0  2.596938  0
N  N83  1  0.11033421  0.38176295  0.23580371  1  0  -0.381619  0  2.376793  0  0  -0.383916  0  2.60379  0  0  -0.389761  0  2.613808  0  0  -0.191724  -0.379661  0  2.597144  0
N  N84  1  0.96055861  0.10978564  0.34001071  1  0  -0.452194  0  2.403042  0  0  -0.451196  0  2.636029  0  0  -0.460583  0  2.646486  0  0  -0.233695  -0.443823  0  2.628793  0
N  N85  1  0.03942893  0.89022139  0.65998845  1  0  -0.452202  0  2.402676  0  0  -0.451206  0  2.635697  0  0  -0.460584  0  2.64614  0  0  -0.2337  -0.443835  0  2.628461  0
