# generated using pymatgen
data_AgH7C10S2(NO)2
_symmetry_space_group_name_H-M   'P 1'
_cell_length_a   11.68738381
_cell_length_b   14.04180943
_cell_length_c   15.12034305
_cell_angle_alpha   103.70489406
_cell_angle_beta   90.00049615
_cell_angle_gamma   89.99966896
_symmetry_Int_Tables_number   1
_chemical_formula_structural   AgH7C10S2(NO)2
_chemical_formula_sum   'Ag8 H56 C80 S16 N16 O16'
_cell_volume   2410.78090735
_cell_formula_units_Z   8
loop_
 _symmetry_equiv_pos_site_id
 _symmetry_equiv_pos_as_xyz
  1  'x, y, z'
loop_
 _atom_site_type_symbol
 _atom_site_label
 _atom_site_symmetry_multiplicity
 _atom_site_fract_x
 _atom_site_fract_y
 _atom_site_fract_z
 _atom_site_occupancy
 _atom_site_pbe_bader_charge
 _atom_site_pbe_bader_spin_density
 _atom_site_pbe_cm5_charge
 _atom_site_pbe_ddec_charge
 _atom_site_pbe_ddec_spin_density
 _atom_site_pbe_ddec_sum_bond_order
 _atom_site_pbe_magmom
Ag  Ag0  1  0.55731945  0.89386847  0.51564463  1  0.628251  0  0.472686  0.397683  0  2.009917  0
Ag  Ag1  1  0.05733785  0.60610572  0.98433330  1  0.628343  0  0.472724  0.39783  0  2.010069  0
Ag  Ag2  1  0.44266686  0.10611121  0.48433316  1  0.628397  0  0.47268  0.39767  0  2.00989  0
Ag  Ag3  1  0.94267756  0.39388241  0.01566005  1  0.628646  0  0.472789  0.397828  0  2.010339  0
Ag  Ag4  1  0.52404388  0.61940590  0.42545397  1  0.632209  0  0.482163  0.423424  0  1.949984  0
Ag  Ag5  1  0.02405908  0.88058776  0.07453944  1  0.632189  0  0.482198  0.423315  0  1.95016  0
Ag  Ag6  1  0.47593645  0.38059097  0.57456558  1  0.631932  0  0.482154  0.423387  0  1.950161  0
Ag  Ag7  1  0.97591868  0.11940852  0.92543237  1  0.632086  0  0.482211  0.42333  0  1.950522  0
H  H8  1  0.37441361  0.30006055  0.87994176  1  0.082209  0  0.089589  0.087738  0  1.048967  0
H  H9  1  0.87441319  0.19994548  0.62007005  1  0.082264  0  0.08951  0.087615  0  1.048838  0
H  H10  1  0.62559496  0.69993375  0.12006405  1  0.082282  0  0.08953  0.087686  0  1.04883  0
H  H11  1  0.12559366  0.80005421  0.37994610  1  0.082389  0  0.08952  0.087619  0  1.048892  0
H  H12  1  0.38693678  0.11960291  0.81208510  1  0.049257  0  0.087166  0.082308  0  1.066321  0
H  H13  1  0.88693240  0.38039526  0.68793384  1  0.049434  0  0.087155  0.082298  0  1.066371  0
H  H14  1  0.61306408  0.88039108  0.18790941  1  0.049399  0  0.087165  0.082346  0  1.066363  0
H  H15  1  0.11306846  0.61960057  0.31207426  1  0.049135  0  0.08714  0.082151  0  1.066417  0
H  H16  1  0.03176106  0.11692666  0.73646620  1  0.084314  0  0.10367  0.117069  0  0.994533  0
H  H17  1  0.53174213  0.38308158  0.76353255  1  0.084385  0  0.103738  0.117267  0  0.994329  0
H  H18  1  0.96823723  0.88308695  0.26352623  1  0.084357  0  0.103697  0.117079  0  0.994391  0
H  H19  1  0.46826302  0.61692036  0.23645956  1  0.084048  0  0.103722  0.11719  0  0.994622  0
H  H20  1  0.01962466  0.29605649  0.80820658  1  0.095932  0  0.09712  0.102228  0  1.028738  0
H  H21  1  0.51961818  0.20396356  0.69179575  1  0.095323  0  0.097151  0.102351  0  1.028622  0
H  H22  1  0.98038647  0.70395592  0.19179488  1  0.095732  0  0.09715  0.102305  0  1.028518  0
H  H23  1  0.48038183  0.79604297  0.30820388  1  0.095129  0  0.097162  0.102414  0  1.028563  0
H  H24  1  0.13239709  0.96878192  0.70294762  1  0.085869  0  0.105353  0.132125  0  0.975886  0
H  H25  1  0.63238706  0.53122870  0.79703867  1  0.086102  0  0.105314  0.132067  0  0.975813  0
H  H26  1  0.86760463  0.03122118  0.29703348  1  0.085681  0  0.10536  0.132158  0  0.975735  0
H  H27  1  0.36761637  0.46876229  0.20295260  1  0.085533  0  0.105295  0.132101  0  0.975875  0
H  H28  1  0.24161706  0.95783968  0.78289976  1  0.098381  0  0.102028  0.127326  0  0.990858  0
H  H29  1  0.74161717  0.54216074  0.71709978  1  0.09831  0  0.102023  0.127321  0  0.990932  0
H  H30  1  0.75837610  0.04216528  0.21709626  1  0.098174  0  0.102043  0.127361  0  0.990772  0
H  H31  1  0.25840679  0.45782251  0.28290187  1  0.098199  0  0.102008  0.12724  0  0.990957  0
H  H32  1  0.28142655  0.59809977  0.53506963  1  0.222635  0  0.128737  0.140608  0  1.026905  0
H  H33  1  0.78143457  0.90189953  0.96492003  1  0.222598  0  0.128734  0.140516  0  1.026995  0
H  H34  1  0.71859741  0.40189688  0.46494195  1  0.222719  0  0.128741  0.140501  0  1.026962  0
H  H35  1  0.21855774  0.09810357  0.03508753  1  0.222607  0  0.128657  0.140379  0  1.027019  0
H  H36  1  0.07484473  0.18570591  0.25540832  1  0.100211  0  0.098886  0.109037  0  1.012843  0
H  H37  1  0.57484575  0.31431469  0.24462154  1  0.100141  0  0.09894  0.109088  0  1.012953  0
H  H38  1  0.92515271  0.81430125  0.74458813  1  0.100069  0  0.098896  0.109075  0  1.012791  0
H  H39  1  0.42517736  0.68568976  0.75540877  1  0.100232  0  0.098904  0.109044  0  1.01301  0
H  H40  1  0.06884659  0.36463728  0.33110074  1  0.058047  0  0.095437  0.102526  0  1.00423  0
H  H41  1  0.56887457  0.13538834  0.16892545  1  0.05786  0  0.095454  0.102547  0  1.004232  0
H  H42  1  0.93114401  0.63536922  0.66889823  1  0.057766  0  0.095403  0.102555  0  1.004255  0
H  H43  1  0.43113913  0.86461415  0.83108662  1  0.057739  0  0.0954  0.102468  0  1.004287  0
H  H44  1  0.77170945  0.39772358  0.17171822  1  0.103884  0  0.100135  0.116293  0  1.012378  0
H  H45  1  0.27172697  0.10227971  0.32828834  1  0.102736  0  0.100091  0.116259  0  1.012472  0
H  H46  1  0.22828029  0.60227244  0.82827073  1  0.102882  0  0.100064  0.116105  0  1.012343  0
H  H47  1  0.72827304  0.89772031  0.67171331  1  0.102593  0  0.100055  0.116165  0  1.012364  0
H  H48  1  0.77744580  0.21715525  0.09979883  1  0.085711  0  0.09618  0.10145  0  1.025011  0
H  H49  1  0.27743373  0.28285901  0.40020995  1  0.085605  0  0.096192  0.101471  0  1.025154  0
H  H50  1  0.22255763  0.78284239  0.90019574  1  0.085923  0  0.096219  0.101545  0  1.024926  0
H  H51  1  0.72256970  0.71715229  0.59980452  1  0.085926  0  0.096258  0.101565  0  1.024943  0
H  H52  1  0.93507355  0.54325299  0.24769989  1  0.14571  0  0.100674  0.132155  0  1.029845  0
H  H53  1  0.43509535  0.95675652  0.25230927  1  0.145602  0  0.100721  0.132198  0  1.029803  0
H  H54  1  0.06489908  0.45673371  0.75229450  1  0.145573  0  0.100785  0.13222  0  1.029638  0
H  H55  1  0.56491493  0.04323619  0.74769160  1  0.14551  0  0.100753  0.132252  0  1.029767  0
H  H56  1  0.98340242  0.51915304  0.35392380  1  0.033677  0  0.094745  0.109518  0  0.995366  0
H  H57  1  0.48341685  0.98084858  0.14606891  1  0.033319  0  0.094681  0.109513  0  0.995282  0
H  H58  1  0.01659930  0.48083068  0.64606802  1  0.033521  0  0.094765  0.109455  0  0.995369  0
H  H59  1  0.51660369  0.01916611  0.85393631  1  0.033457  0  0.094764  0.10953  0  0.995242  0
H  H60  1  0.83734431  0.90102928  0.48903697  1  0.251926  0  0.137315  0.164007  0  1.000794  0
H  H61  1  0.33736339  0.59897879  0.01096068  1  0.252014  0  0.137351  0.164015  0  1.000714  0
H  H62  1  0.16266597  0.09896651  0.51096980  1  0.251967  0  0.13733  0.163954  0  1.000858  0
H  H63  1  0.66266827  0.40102997  0.98904072  1  0.252018  0  0.137351  0.164023  0  1.000686  0
C  C64  1  0.19031646  0.41713400  0.89416739  1  1.57253  0  0.18253  0.553601  0  4.249517  0
C  C65  1  0.69028165  0.08287649  0.60585204  1  1.571129  0  0.182418  0.55365  0  4.248286  0
C  C66  1  0.80968783  0.58286994  0.10584431  1  1.572161  0  0.182475  0.553555  0  4.249406  0
C  C67  1  0.30971579  0.91711272  0.39415410  1  1.571991  0  0.182547  0.553627  0  4.2485  0
C  C68  1  0.19692714  0.30923892  0.84823755  1  -0.035893  0  -0.024597  -0.02525  0  3.943948  0
C  C69  1  0.69690661  0.19076612  0.65174379  1  -0.035887  0  -0.024616  -0.025287  0  3.944369  0
C  C70  1  0.80308399  0.69076932  0.15174522  1  -0.0356  0  -0.024582  -0.025338  0  3.944091  0
C  C71  1  0.30308484  0.80922697  0.34824459  1  -0.035412  0  -0.024609  -0.025172  0  3.944072  0
C  C72  1  0.30002482  0.25860013  0.84868317  1  -0.089107  0  -0.094208  -0.089841  0  3.990004  0
C  C73  1  0.80001162  0.24139384  0.65133172  1  -0.088503  0  -0.093995  -0.089455  0  3.989444  0
C  C74  1  0.69998888  0.74140032  0.15130732  1  -0.089295  0  -0.094091  -0.089588  0  3.989637  0
C  C75  1  0.19998753  0.75859978  0.34867595  1  -0.089102  0  -0.094009  -0.089563  0  3.989321  0
C  C76  1  0.30613754  0.15818982  0.81108518  1  -0.025505  0  -0.103617  -0.144811  0  3.975345  0
C  C77  1  0.80613260  0.34180896  0.68892012  1  -0.025387  0  -0.103634  -0.144866  0  3.975158  0
C  C78  1  0.69387017  0.84181505  0.18890751  1  -0.025718  0  -0.103625  -0.145006  0  3.975437  0
C  C79  1  0.19387682  0.65817667  0.31108862  1  -0.02519  0  -0.103543  -0.14454  0  3.975002  0
C  C80  1  0.20963687  0.10581381  0.77095449  1  0.00479  0  -0.01506  0.137143  0  3.956483  0
C  C81  1  0.70963628  0.39419071  0.72906256  1  0.0038  0  -0.015007  0.137107  0  3.95659  0
C  C82  1  0.79035972  0.89419482  0.22904225  1  0.004524  0  -0.015041  0.137179  0  3.956633  0
C  C83  1  0.29036715  0.60579483  0.27094285  1  0.003576  0  -0.015139  0.136973  0  3.956814  0
C  C84  1  0.10682666  0.15671660  0.76894681  1  -0.057513  0  -0.103109  -0.163759  0  4.024788  0
C  C85  1  0.60683075  0.34329749  0.73106153  1  -0.057203  0  -0.103227  -0.163945  0  4.024922  0
C  C86  1  0.89316992  0.84329040  0.23104366  1  -0.057628  0  -0.103173  -0.163766  0  4.024607  0
C  C87  1  0.39318038  0.65669747  0.26894177  1  -0.057073  0  -0.10309  -0.163624  0  4.025006  0
C  C88  1  0.10048207  0.25732348  0.80783929  1  -0.062317  0  -0.096867  -0.113384  0  4.026052  0
C  C89  1  0.60047874  0.24269188  0.69216133  1  -0.06172  0  -0.096973  -0.1137  0  4.026182  0
C  C90  1  0.89952478  0.74268724  0.19215390  1  -0.062036  0  -0.096947  -0.113538  0  4.026037  0
C  C91  1  0.39952897  0.75729847  0.30783313  1  -0.061518  0  -0.097024  -0.113982  0  4.026199  0
C  C92  1  0.21554321  0.99699185  0.73119155  1  -0.150964  0  -0.142134  -0.23717  0  3.894479  0
C  C93  1  0.71554077  0.50301507  0.76880249  1  -0.150933  0  -0.142046  -0.23693  0  3.894219  0
C  C94  1  0.78444824  0.00301518  0.26880025  1  -0.15016  0  -0.142221  -0.237243  0  3.894396  0
C  C95  1  0.28447378  0.49697462  0.23119447  1  -0.149965  0  -0.14196  -0.236838  0  3.894393  0
C  C96  1  0.32234878  0.85026949  0.60195324  1  0.302091  0  0.121873  0.065154  0  4.064007  0
C  C97  1  0.82236642  0.64973456  0.89805482  1  0.302451  0  0.121965  0.065291  0  4.064099  0
C  C98  1  0.67763069  0.14973328  0.39806880  1  0.302433  0  0.121905  0.065176  0  4.063773  0
C  C99  1  0.17762503  0.35027039  0.10194053  1  0.302159  0  0.121926  0.065243  0  4.063994  0
C  C100  1  0.30138377  0.67615226  0.55044799  1  0.413627  0  0.057426  -0.035033  0  3.884303  0
C  C101  1  0.80140673  0.82385174  0.94955596  1  0.414282  0  0.057531  -0.034818  0  3.88411  0
C  C102  1  0.69861281  0.32385249  0.44956651  1  0.413391  0  0.057545  -0.034667  0  3.884175  0
C  C103  1  0.19858900  0.17615673  0.05043479  1  0.414394  0  0.057625  -0.034622  0  3.884375  0
C  C104  1  0.93128324  0.08411660  0.12481282  1  1.587289  0  0.178008  0.544017  0  4.275708  0
C  C105  1  0.43126052  0.41589021  0.37520806  1  1.58698  0  0.177976  0.544127  0  4.275188  0
C  C106  1  0.06873302  0.91588540  0.87518129  1  1.587213  0  0.178039  0.5442  0  4.27577  0
C  C107  1  0.56874120  0.58411310  0.62480748  1  1.587098  0  0.17809  0.544436  0  4.27567  0
C  C108  1  0.92625206  0.19136373  0.17294799  1  -0.036649  0  -0.027806  -0.042291  0  3.985704  0
C  C109  1  0.42624668  0.30863972  0.32705631  1  -0.03673  0  -0.027868  -0.042505  0  3.985652  0
C  C110  1  0.07372655  0.80862852  0.82706271  1  -0.036001  0  -0.027761  -0.042169  0  3.986014  0
C  C111  1  0.57374220  0.69136444  0.67293690  1  -0.036905  0  -0.027841  -0.042509  0  3.986075  0
C  C112  1  0.00837449  0.23276533  0.23832717  1  0.0067  0  -0.097133  -0.101485  0  4.005612  0
C  C113  1  0.50838717  0.26724433  0.26169414  1  0.006785  0  -0.097103  -0.101417  0  4.005383  0
C  C114  1  0.99162466  0.76723905  0.76167402  1  0.006383  0  -0.097107  -0.101508  0  4.005804  0
C  C115  1  0.49162225  0.73276031  0.73831636  1  0.006743  0  -0.097064  -0.101322  0  4.005609  0
C  C116  1  0.00476963  0.33253289  0.28007389  1  -0.091779  0  -0.104531  -0.1613  0  4.015869  0
C  C117  1  0.50477571  0.16747647  0.21993609  1  -0.091391  0  -0.10457  -0.161326  0  4.015539  0
C  C118  1  0.99522525  0.66746493  0.71992733  1  -0.091553  0  -0.104544  -0.161477  0  4.015867  0
C  C119  1  0.49522772  0.83252731  0.78006961  1  -0.091756  0  -0.104487  -0.161171  0  4.015635  0
C  C120  1  0.92038137  0.39283992  0.25626258  1  -0.079668  0  -0.020921  0.121865  0  3.987048  0
C  C121  1  0.42037223  0.10717571  0.24373351  1  -0.079763  0  -0.020791  0.121983  0  3.986762  0
C  C122  1  0.07960238  0.60715200  0.74373616  1  -0.079537  0  -0.020749  0.122032  0  3.987394  0
C  C123  1  0.57961067  0.89282761  0.75625557  1  -0.079565  0  -0.020765  0.121915  0  3.987529  0
C  C124  1  0.83764322  0.35126002  0.19093949  1  -0.006841  0  -0.104148  -0.156044  0  3.98894  0
C  C125  1  0.33764221  0.14875333  0.30906949  1  -0.005356  0  -0.104122  -0.15603  0  3.988504  0
C  C126  1  0.16234139  0.64873621  0.80905678  1  -0.005944  0  -0.104118  -0.155761  0  3.988608  0
C  C127  1  0.66234924  0.85124741  0.69093164  1  -0.005468  0  -0.104116  -0.155859  0  3.988809  0
C  C128  1  0.84046605  0.25116727  0.15064947  1  -0.103829  0  -0.095022  -0.105801  0  4.018635  0
C  C129  1  0.34046136  0.24884640  0.34937151  1  -0.104112  0  -0.095028  -0.105789  0  4.018491  0
C  C130  1  0.15953994  0.74883691  0.84934441  1  -0.103917  0  -0.095153  -0.106126  0  4.018392  0
C  C131  1  0.65953095  0.75116115  0.65063891  1  -0.103938  0  -0.095155  -0.106076  0  4.019101  0
C  C132  1  0.91940496  0.50099880  0.29932175  1  -0.141089  0  -0.148762  -0.25528  0  3.921283  0
C  C133  1  0.41940619  0.99900694  0.20068061  1  -0.140218  0  -0.148882  -0.255442  0  3.920921  0
C  C134  1  0.08057965  0.49899545  0.70068208  1  -0.140732  0  -0.148867  -0.255068  0  3.920538  0
C  C135  1  0.58058954  0.00098554  0.79931161  1  -0.140016  0  -0.148973  -0.255369  0  3.920968  0
C  C136  1  0.78256335  0.65443149  0.39077123  1  0.301079  0  0.121648  0.064845  0  4.079458  0
C  C137  1  0.28256037  0.84557647  0.10921612  1  0.301332  0  0.121555  0.064734  0  4.079561  0
C  C138  1  0.21742382  0.34556613  0.60922268  1  0.300789  0  0.121645  0.06489  0  4.079354  0
C  C139  1  0.71744306  0.15442866  0.89078588  1  0.301754  0  0.12154  0.06474  0  4.07958  0
C  C140  1  0.81172875  0.82555373  0.45813267  1  0.385875  0  0.056971  -0.040382  0  3.870552  0
C  C141  1  0.31173138  0.67445194  0.04185442  1  0.386137  0  0.057025  -0.040192  0  3.870581  0
C  C142  1  0.18826698  0.17444466  0.54186271  1  0.386511  0  0.056926  -0.040372  0  3.870706  0
C  C143  1  0.68828232  0.32554791  0.95814125  1  0.386112  0  0.056967  -0.040337  0  3.870589  0
S  S144  1  0.32395370  0.97590063  0.64161107  1  0.250543  0  0.068292  0.091238  0  2.845152  0
S  S145  1  0.82395811  0.52410825  0.85838738  1  0.250396  0  0.068237  0.091121  0  2.845067  0
S  S146  1  0.67604117  0.02409773  0.35838298  1  0.250203  0  0.068279  0.0912  0  2.844996  0
S  S147  1  0.17604960  0.47589919  0.14161905  1  0.250381  0  0.068204  0.091001  0  2.845156  0
S  S148  1  0.22157385  0.76640925  0.62072707  1  0.273127  0  0.138944  0.165377  0  2.851746  0
S  S149  1  0.72158126  0.73358858  0.87928176  1  0.273239  0  0.13894  0.165318  0  2.851264  0
S  S150  1  0.77841845  0.23359139  0.37929720  1  0.273845  0  0.138896  0.165267  0  2.851561  0
S  S151  1  0.27839907  0.26641137  0.12071724  1  0.273524  0  0.138897  0.165274  0  2.851719  0
S  S152  1  0.77620113  0.52983855  0.34666174  1  0.241329  0  0.071415  0.106924  0  2.822181  0
S  S153  1  0.27619861  0.97017382  0.15335290  1  0.240862  0  0.071511  0.10703  0  2.822147  0
S  S154  1  0.22379203  0.47016185  0.65335389  1  0.241272  0  0.071401  0.106746  0  2.821867  0
S  S155  1  0.72381680  0.02983197  0.84664658  1  0.240885  0  0.071451  0.106918  0  2.821686  0
S  S156  1  0.90262265  0.72722689  0.42334672  1  0.252075  0  0.137668  0.161063  0  2.787925  0
S  S157  1  0.40262154  0.77278313  0.07662396  1  0.251874  0  0.137654  0.160924  0  2.78806  0
S  S158  1  0.09736624  0.27276498  0.57662355  1  0.251941  0  0.137681  0.161045  0  2.787917  0
S  S159  1  0.59738703  0.22723112  0.92336530  1  0.251531  0  0.137739  0.16112  0  2.788122  0
N  N160  1  0.40591566  0.80806957  0.54738370  1  -0.680218  0  -0.244158  -0.163447  0  3.555181  0
N  N161  1  0.90592762  0.69192774  0.95262822  1  -0.679978  0  -0.244373  -0.163753  0  3.555514  0
N  N162  1  0.59406981  0.19193957  0.45263167  1  -0.680423  0  -0.244119  -0.163305  0  3.555297  0
N  N163  1  0.09406554  0.30806913  0.04736488  1  -0.680524  0  -0.244297  -0.163478  0  3.555297  0
N  N164  1  0.39301390  0.70936133  0.51813677  1  -0.729229  0  -0.229913  -0.075293  0  3.580435  0
N  N165  1  0.89303233  0.79064285  0.98185789  1  -0.730414  0  -0.229916  -0.075238  0  3.580547  0
N  N166  1  0.60698782  0.29065093  0.48188583  1  -0.729547  0  -0.229974  -0.075522  0  3.580452  0
N  N167  1  0.10696768  0.20935591  0.01812433  1  -0.730045  0  -0.229893  -0.075369  0  3.580522  0
N  N168  1  0.68588380  0.70476077  0.40797856  1  -0.676526  0  -0.241519  -0.171634  0  3.514433  0
N  N169  1  0.18588869  0.79524392  0.09201081  1  -0.676772  0  -0.241518  -0.171424  0  3.514499  0
N  N170  1  0.31409653  0.29523977  0.59201525  1  -0.676607  0  -0.241502  -0.171604  0  3.514561  0
N  N171  1  0.81411901  0.20475751  0.90798914  1  -0.676964  0  -0.241573  -0.171505  0  3.514933  0
N  N172  1  0.70346416  0.80163009  0.44652306  1  -0.709771  0  -0.234529  -0.08354  0  3.598467  0
N  N173  1  0.20346675  0.69837359  0.05345830  1  -0.709874  0  -0.234591  -0.083751  0  3.598369  0
N  N174  1  0.29652985  0.19836766  0.55347550  1  -0.710023  0  -0.234561  -0.083546  0  3.598246  0
N  N175  1  0.79655122  0.30162773  0.94653766  1  -0.709918  0  -0.23464  -0.083791  0  3.598477  0
O  O176  1  0.28030921  0.46367829  0.92081304  1  -1.184986  0  -0.34508  -0.574219  0  2.123971  0
O  O177  1  0.78027957  0.03631514  0.57917979  1  -1.184146  0  -0.345152  -0.57439  0  2.122681  0
O  O178  1  0.71969508  0.53633322  0.07918228  1  -1.184929  0  -0.345088  -0.574184  0  2.123871  0
O  O179  1  0.21972044  0.96367442  0.42081253  1  -1.184744  0  -0.345388  -0.574501  0  2.122805  0
O  O180  1  0.08733696  0.45236507  0.90250861  1  -1.149966  0  -0.354232  -0.578606  0  2.454891  0
O  O181  1  0.58729632  0.04764794  0.59751063  1  -1.149955  0  -0.35406  -0.578544  0  2.454142  0
O  O182  1  0.91266647  0.54763127  0.09749165  1  -1.149867  0  -0.354138  -0.578552  0  2.45474  0
O  O183  1  0.41269000  0.95235069  0.40249339  1  -1.149873  0  -0.353993  -0.578373  0  2.454539  0
O  O184  1  0.00684147  0.03436529  0.15572084  1  -1.151324  0  -0.34715  -0.545788  0  2.346209  0
O  O185  1  0.50680744  0.46563963  0.34428695  1  -1.151232  0  -0.347023  -0.545723  0  2.346429  0
O  O186  1  0.99316453  0.96564440  0.84428802  1  -1.151415  0  -0.34711  -0.545873  0  2.34655  0
O  O187  1  0.49318572  0.53435889  0.65571308  1  -1.151232  0  -0.347127  -0.545855  0  2.346437  0
O  O188  1  0.86311119  0.05207865  0.05954764  1  -1.186005  0  -0.352182  -0.592347  0  2.18762  0
O  O189  1  0.36307101  0.44792970  0.44046846  1  -1.185927  0  -0.352259  -0.592484  0  2.187306  0
O  O190  1  0.13689566  0.94793502  0.94044679  1  -1.186205  0  -0.3523  -0.592461  0  2.18757  0
O  O191  1  0.63691788  0.55205482  0.55955262  1  -1.186178  0  -0.352308  -0.592676  0  2.18775  0
