# generated using pymatgen
data_CuH6C4N10Cl
_symmetry_space_group_name_H-M   'P 1'
_cell_length_a   6.19095030
_cell_length_b   8.52654558
_cell_length_c   10.23403299
_cell_angle_alpha   106.78380376
_cell_angle_beta   90.00178963
_cell_angle_gamma   90.00037920
_symmetry_Int_Tables_number   1
_chemical_formula_structural   CuH6C4N10Cl
_chemical_formula_sum   'Cu2 H12 C8 N20 Cl2'
_cell_volume   517.21510316
_cell_formula_units_Z   2
loop_
 _symmetry_equiv_pos_site_id
 _symmetry_equiv_pos_as_xyz
  1  'x, y, z'
loop_
 _atom_site_type_symbol
 _atom_site_label
 _atom_site_symmetry_multiplicity
 _atom_site_fract_x
 _atom_site_fract_y
 _atom_site_fract_z
 _atom_site_occupancy
 _atom_site_hle17_bader_spin_density
 _atom_site_hle17_ddec_charge
 _atom_site_hle17_ddec_spin_density
 _atom_site_hle17_ddec_sum_bond_order
 _atom_site_hle17_magmom
 _atom_site_hse06_10hf_bader_spin_density
 _atom_site_hse06_10hf_ddec_charge
 _atom_site_hse06_10hf_ddec_spin_density
 _atom_site_hse06_10hf_ddec_sum_bond_order
 _atom_site_hse06_10hf_magmom
 _atom_site_hse06_bader_spin_density
 _atom_site_hse06_ddec_charge
 _atom_site_hse06_ddec_spin_density
 _atom_site_hse06_ddec_sum_bond_order
 _atom_site_hse06_magmom
 _atom_site_pbe_bader_spin_density
 _atom_site_pbe_cm5_charge
 _atom_site_pbe_ddec_charge
 _atom_site_pbe_ddec_spin_density
 _atom_site_pbe_ddec_sum_bond_order
 _atom_site_pbe_magmom
Cu  Cu0  1  0.20765467  0.00001010  0.75001467  1  0  0.526712  0  2.072306  0  0  0.407211  0  2.582844  0  0  0.379352  0  2.562175  0  0  0.553088  0.424879  0  2.59568  0
Cu  Cu1  1  0.79234307  0.00000084  0.25001141  1  0  0.526397  0  2.072663  0  0  0.407159  0  2.583178  0  0  0.379423  0  2.562496  0  0  0.553183  0.424829  0  2.596077  0
H  H2  1  0.31984182  0.33824027  0.69588435  1  0  0.121642  0  0.946574  0  0  0.134771  0  1.020737  0  0  0.136842  0  1.018743  0  0  0.112468  0.133225  0  1.022227  0
H  H3  1  0.31969132  0.66170363  0.80410781  1  0  0.121585  0  0.946506  0  0  0.134684  0  1.020701  0  0  0.136747  0  1.018713  0  0  0.112489  0.13314  0  1.022191  0
H  H4  1  0.68024774  0.66173946  0.30409131  1  0  0.121592  0  0.946638  0  0  0.13475  0  1.020741  0  0  0.136814  0  1.018758  0  0  0.112469  0.133202  0  1.022238  0
H  H5  1  0.68022379  0.33825432  0.19589011  1  0  0.121666  0  0.946515  0  0  0.134766  0  1.020683  0  0  0.136829  0  1.018696  0  0  0.112459  0.133223  0  1.022181  0
H  H6  1  0.47373251  0.44319018  0.59733669  1  0  0.121429  0  0.951945  0  0  0.135673  0  1.022424  0  0  0.137648  0  1.020845  0  0  0.115337  0.134226  0  1.02356  0
H  H7  1  0.47365644  0.55680438  0.90266758  1  0  0.121447  0  0.952113  0  0  0.13567  0  1.022545  0  0  0.137647  0  1.020962  0  0  0.115396  0.134223  0  1.023689  0
H  H8  1  0.52630213  0.55681046  0.40265267  1  0  0.121433  0  0.952028  0  0  0.135713  0  1.022427  0  0  0.137687  0  1.020852  0  0  0.115377  0.134267  0  1.023564  0
H  H9  1  0.52629098  0.44318046  0.09733078  1  0  0.12144  0  0.952032  0  0  0.135661  0  1.022501  0  0  0.137636  0  1.02092  0  0  0.115313  0.134218  0  1.023642  0
H  H10  1  0.50482425  0.22637169  0.56851180  1  0  0.131946  0  0.920272  0  0  0.147207  0  0.987056  0  0  0.14926  0  0.985786  0  0  0.110814  0.145476  0  0.988355  0
H  H11  1  0.50470862  0.77360684  0.93144244  1  0  0.131835  0  0.920458  0  0  0.147082  0  0.987203  0  0  0.14914  0  0.98595  0  0  0.11073  0.145349  0  0.988505  0
H  H12  1  0.49522492  0.77364573  0.43144436  1  0  0.131906  0  0.920225  0  0  0.147275  0  0.986891  0  0  0.149337  0  0.985624  0  0  0.110805  0.145546  0  0.988187  0
H  H13  1  0.49524525  0.22636421  0.06852043  1  0  0.131788  0  0.920575  0  0  0.147158  0  0.987205  0  0  0.149217  0  0.985927  0  0  0.110757  0.145429  0  0.988503  0
C  C14  1  0.07947960  0.17385353  0.46184516  1  0  0.371565  0  3.786395  0  0  0.315887  0  4.062154  0  0  0.321958  0  4.074997  0  0  0.339089  0.311241  0  4.05422  0
C  C15  1  0.07945264  0.82614366  0.03815206  1  0  0.37162  0  3.78685  0  0  0.316023  0  4.06234  0  0  0.322098  0  4.075189  0  0  0.339149  0.31139  0  4.054375  0
C  C16  1  0.92052435  0.82616182  0.53814959  1  0  0.371746  0  3.785376  0  0  0.315995  0  4.061268  0  0  0.322074  0  4.074113  0  0  0.339179  0.311352  0  4.05332  0
C  C17  1  0.92054808  0.17385113  0.96186328  1  0  0.371274  0  3.785739  0  0  0.31587  0  4.06121  0  0  0.321967  0  4.074049  0  0  0.339163  0.311217  0  4.053259  0
C  C18  1  0.39120487  0.32954776  0.59616648  1  0  -0.183568  0  3.593702  0  0  -0.2985  0  3.833745  0  0  -0.29642  0  3.839074  0  0  -0.12022  -0.29955  0  3.830161  0
C  C19  1  0.39111572  0.67043230  0.90382097  1  0  -0.183196  0  3.594062  0  0  -0.298153  0  3.834032  0  0  -0.296083  0  3.839379  0  0  -0.120104  -0.299208  0  3.830435  0
C  C20  1  0.60883139  0.67045273  0.40380819  1  0  -0.183497  0  3.593361  0  0  -0.298556  0  3.833406  0  0  -0.29647  0  3.838716  0  0  -0.120233  -0.299636  0  3.82991  0
C  C21  1  0.60883492  0.32955128  0.09617318  1  0  -0.183617  0  3.593909  0  0  -0.298539  0  3.833837  0  0  -0.296452  0  3.839162  0  0  -0.120162  -0.299573  0  3.830204  0
N  N22  1  0.21996849  0.30052682  0.49525389  1  0  0.034146  0  3.534786  0  0  0.154672  0  3.72142  0  0  0.147602  0  3.743254  0  0  -0.104137  0.159404  0  3.706789  0
N  N23  1  0.21991900  0.69946213  0.00474429  1  0  0.033618  0  3.535529  0  0  0.154585  0  3.721588  0  0  0.147524  0  3.743415  0  0  -0.104345  0.159317  0  3.706957  0
N  N24  1  0.78005807  0.69947393  0.50474722  1  0  0.034211  0  3.534325  0  0  0.154808  0  3.720995  0  0  0.147736  0  3.742832  0  0  -0.104145  0.159535  0  3.706359  0
N  N25  1  0.78006072  0.30054595  0.99525560  1  0  0.034569  0  3.534141  0  0  0.154901  0  3.720901  0  0  0.147823  0  3.742737  0  0  -0.104097  0.159634  0  3.706274  0
N  N26  1  0.19137688  0.39048722  0.40855538  1  0  -0.074687  0  2.837293  0  0  -0.091908  0  3.118739  0  0  -0.090699  0  3.12837  0  0  -0.058108  -0.092913  0  3.112629  0
N  N27  1  0.19133683  0.60951002  0.09144708  1  0  -0.07443  0  2.83717  0  0  -0.091857  0  3.118575  0  0  -0.090645  0  3.1282  0  0  -0.057988  -0.092866  0  3.112467  0
N  N28  1  0.80864806  0.60949766  0.59144689  1  0  -0.074674  0  2.836979  0  0  -0.091953  0  3.11845  0  0  -0.09075  0  3.128085  0  0  -0.058092  -0.092956  0  3.112332  0
N  N29  1  0.80864612  0.39051385  0.90854283  1  0  -0.074715  0  2.83693  0  0  -0.091946  0  3.118451  0  0  -0.090742  0  3.12809  0  0  -0.058057  -0.092959  0  3.112335  0
N  N30  1  0.03603805  0.32212807  0.32405342  1  0  -0.030653  0  2.884148  0  0  -0.039022  0  3.202512  0  0  -0.037818  0  3.209456  0  0  -0.072616  -0.039886  0  3.198367  0
N  N31  1  0.03601092  0.67788342  0.17595505  1  0  -0.030831  0  2.884005  0  0  -0.039153  0  3.202498  0  0  -0.037943  0  3.209445  0  0  -0.072754  -0.040018  0  3.198358  0
N  N32  1  0.96397720  0.67786295  0.67595224  1  0  -0.030849  0  2.883991  0  0  -0.039159  0  3.202381  0  0  -0.03795  0  3.209319  0  0  -0.072652  -0.040023  0  3.198214  0
N  N33  1  0.96397526  0.32215035  0.82404793  1  0  -0.0305  0  2.884284  0  0  -0.038846  0  3.202674  0  0  -0.037639  0  3.209622  0  0  -0.072508  -0.039712  0  3.19851  0
N  N34  1  0.96304747  0.18699042  0.35435642  1  0  -0.2991  0  3.261743  0  0  -0.253019  0  3.603899  0  0  -0.254465  0  3.60822  0  0  -0.257856  -0.252007  0  3.601126  0
N  N35  1  0.96302866  0.81302759  0.14566288  1  0  -0.298769  0  3.261297  0  0  -0.252975  0  3.603659  0  0  -0.254436  0  3.607997  0  0  -0.25777  -0.251969  0  3.600896  0
N  N36  1  0.03694517  0.81302267  0.64565637  1  0  -0.299031  0  3.260894  0  0  -0.253065  0  3.603197  0  0  -0.254503  0  3.607496  0  0  -0.257892  -0.252048  0  3.600388  0
N  N37  1  0.03695106  0.18700882  0.85435929  1  0  -0.299245  0  3.261553  0  0  -0.25332  0  3.603719  0  0  -0.254764  0  3.608022  0  0  -0.258115  -0.252301  0  3.600912  0
N  N38  1  0.07048987  0.05623943  0.52730422  1  0  -0.156869  0  3.003224  0  0  -0.133736  0  3.303044  0  0  -0.115159  0  3.283971  0  0  -0.152519  -0.146043  0  3.316482  0
N  N39  1  0.07046714  0.94375214  0.97271645  1  0  -0.156882  0  3.003624  0  0  -0.133818  0  3.303464  0  0  -0.115245  0  3.284408  0  0  -0.152512  -0.146121  0  3.316887  0
N  N40  1  0.92953346  0.94381279  0.47271089  1  0  -0.156693  0  3.002612  0  0  -0.133542  0  3.302497  0  0  -0.114982  0  3.283431  0  0  -0.152278  -0.145852  0  3.315948  0
N  N41  1  0.92953842  0.05620987  0.02732150  1  0  -0.156776  0  3.002795  0  0  -0.133704  0  3.30256  0  0  -0.115171  0  3.283524  0  0  -0.152428  -0.14601  0  3.315998  0
Cl  Cl42  1  0.56029333  0.99998996  0.75002519  1  0  -0.598522  0  1.050975  0  0  -0.551387  0  1.369169  0  0  -0.577026  0  1.358011  0  0  -0.377856  -0.531353  0  1.375965  0
Cl  Cl43  1  0.43970552  0.99999628  0.25000660  1  0  -0.598463  0  1.050986  0  0  -0.551361  0  1.369232  0  0  -0.576999  0  1.358063  0  0  -0.377823  -0.531316  0  1.376056  0
