# generated using pymatgen
data_CdH22C18(NO)6
_symmetry_space_group_name_H-M   'P 1'
_cell_length_a   7.49558895
_cell_length_b   16.29676405
_cell_length_c   18.95411147
_cell_angle_alpha   90.00016046
_cell_angle_beta   100.33261001
_cell_angle_gamma   89.99988758
_symmetry_Int_Tables_number   1
_chemical_formula_structural   CdH22C18(NO)6
_chemical_formula_sum   'Cd4 H88 C72 N24 O24'
_cell_volume   2277.77034012
_cell_formula_units_Z   4
loop_
 _symmetry_equiv_pos_site_id
 _symmetry_equiv_pos_as_xyz
  1  'x, y, z'
loop_
 _atom_site_type_symbol
 _atom_site_label
 _atom_site_symmetry_multiplicity
 _atom_site_fract_x
 _atom_site_fract_y
 _atom_site_fract_z
 _atom_site_occupancy
 _atom_site_pbe_bader_charge
 _atom_site_pbe_bader_spin_density
 _atom_site_pbe_cm5_charge
 _atom_site_pbe_ddec_charge
 _atom_site_pbe_ddec_spin_density
 _atom_site_pbe_ddec_sum_bond_order
 _atom_site_pbe_magmom
Cd  Cd0  1  0.71851480  0.87876864  0.01619834  1  1.287257  0  0.763347  0.913978  0  2.161501  0
Cd  Cd1  1  0.78148977  0.37876643  0.48380324  1  1.287165  0  0.763361  0.914028  0  2.161436  0
Cd  Cd2  1  0.28148431  0.12123351  0.98379959  1  1.287266  0  0.763372  0.914027  0  2.161464  0
Cd  Cd3  1  0.21851488  0.62123266  0.51619875  1  1.287238  0  0.763381  0.91403  0  2.161449  0
H  H4  1  0.21445221  0.72010576  0.95277581  1  0.04908  0  0.096613  0.12042  0  0.9832  0
H  H5  1  0.28554802  0.22010826  0.54722336  1  0.049125  0  0.096628  0.120469  0  0.98318  0
H  H6  1  0.78554020  0.27989333  0.04722431  1  0.049082  0  0.096619  0.120437  0  0.983156  0
H  H7  1  0.71445514  0.77989205  0.45277431  1  0.049132  0  0.096641  0.120467  0  0.983183  0
H  H8  1  0.27824730  0.82113495  0.93116913  1  0.063439  0  0.09794  0.120721  0  1.026654  0
H  H9  1  0.22175810  0.32114004  0.56883326  1  0.063083  0  0.097958  0.120726  0  1.026601  0
H  H10  1  0.72175326  0.17886045  0.06883206  1  0.063074  0  0.097971  0.120731  0  1.026561  0
H  H11  1  0.77824785  0.67885905  0.43116723  1  0.063027  0  0.097951  0.120753  0  1.026534  0
H  H12  1  0.14351784  0.88632998  0.81613718  1  0.085908  0  0.09945  0.107303  0  1.008794  0
H  H13  1  0.35648864  0.38633041  0.68386333  1  0.085858  0  0.099446  0.107257  0  1.008889  0
H  H14  1  0.85648001  0.11367033  0.18386383  1  0.085929  0  0.099476  0.107349  0  1.008776  0
H  H15  1  0.64351594  0.61366868  0.31613654  1  0.085914  0  0.099448  0.107285  0  1.00886  0
H  H16  1  0.98484502  0.86832951  0.69089484  1  0.040566  0  0.090143  0.080426  0  1.064592  0
H  H17  1  0.51515555  0.36833065  0.80910582  1  0.040265  0  0.090126  0.080394  0  1.064631  0
H  H18  1  0.01514873  0.13166958  0.30910484  1  0.0403  0  0.090105  0.080353  0  1.06463  0
H  H19  1  0.48484769  0.63166844  0.19089449  1  0.040245  0  0.090129  0.080382  0  1.064571  0
H  H20  1  0.84390695  0.62143953  0.73798341  1  0.056212  0  0.09385  0.093588  0  1.051706  0
H  H21  1  0.65609036  0.12143793  0.76201591  1  0.056179  0  0.093852  0.093627  0  1.051663  0
H  H22  1  0.15608813  0.37856017  0.26201530  1  0.056223  0  0.093872  0.093646  0  1.051637  0
H  H23  1  0.34391151  0.87855870  0.23798378  1  0.056227  0  0.093871  0.093631  0  1.051697  0
H  H24  1  0.99802926  0.63984945  0.86411426  1  0.062447  0  0.094844  0.096999  0  1.007509  0
H  H25  1  0.50197203  0.13985066  0.63588485  1  0.062521  0  0.094841  0.097015  0  1.007498  0
H  H26  1  0.00196852  0.36014963  0.13588464  1  0.062424  0  0.094838  0.096972  0  1.007483  0
H  H27  1  0.49803118  0.86014597  0.36411441  1  0.062526  0  0.09486  0.097033  0  1.007521  0
H  H28  1  0.78623809  0.79235854  0.60145237  1  0.010107  0  0.094964  0.11279  0  0.992402  0
H  H29  1  0.71376270  0.29235734  0.89854706  1  0.010151  0  0.094917  0.112703  0  0.992454  0
H  H30  1  0.21376110  0.20764177  0.39854820  1  0.010115  0  0.094915  0.112657  0  0.992452  0
H  H31  1  0.28624051  0.70764052  0.10145219  1  0.010082  0  0.094954  0.112734  0  0.992471  0
H  H32  1  0.67947022  0.70143935  0.62564229  1  0.077817  0  0.100436  0.129099  0  0.999315  0
H  H33  1  0.82052952  0.20143429  0.87435686  1  0.077751  0  0.100405  0.129057  0  0.999281  0
H  H34  1  0.32052350  0.29856219  0.37435633  1  0.077849  0  0.100425  0.129078  0  0.999284  0
H  H35  1  0.17946690  0.79856234  0.12564142  1  0.07798  0  0.100417  0.129038  0  0.999329  0
H  H36  1  0.07440215  0.99239472  0.11660340  1  0.141263  0  0.138458  0.10988  0  0.998981  0
H  H37  1  0.42559305  0.49239328  0.38339567  1  0.141228  0  0.138427  0.109831  0  0.998923  0
H  H38  1  0.92559688  0.00760928  0.88339189  1  0.141394  0  0.138415  0.109695  0  0.998965  0
H  H39  1  0.57440485  0.50760765  0.61660693  1  0.14129  0  0.138474  0.109862  0  0.99911  0
H  H40  1  0.75448557  0.81812682  0.20032981  1  0.156336  0  0.143541  0.11477  0  1.004055  0
H  H41  1  0.74551105  0.31812650  0.29967057  1  0.156375  0  0.143524  0.114772  0  1.003976  0
H  H42  1  0.24551493  0.18186858  0.79966927  1  0.156241  0  0.143522  0.114787  0  1.004071  0
H  H43  1  0.25448272  0.68187136  0.70032964  1  0.156344  0  0.143521  0.114751  0  1.004101  0
H  H44  1  0.08289548  0.88309794  0.35366591  1  0.06057  0  0.123617  0.112114  0  0.956636  0
H  H45  1  0.41710414  0.38309880  0.14633319  1  0.060584  0  0.123633  0.112143  0  0.956556  0
H  H46  1  0.91709959  0.11690237  0.64633281  1  0.060705  0  0.123643  0.112116  0  0.956519  0
H  H47  1  0.58290046  0.61690151  0.85366721  1  0.060526  0  0.123647  0.112135  0  0.956517  0
H  H48  1  0.85453159  0.84666087  0.32985693  1  0.113376  0  0.121437  0.106297  0  1.003853  0
H  H49  1  0.64547442  0.34666022  0.17014361  1  0.113335  0  0.121436  0.106277  0  1.003842  0
H  H50  1  0.14546885  0.15334128  0.67014003  1  0.113407  0  0.121435  0.106303  0  1.003785  0
H  H51  1  0.35452621  0.65333948  0.82985969  1  0.113415  0  0.121431  0.106313  0  1.003798  0
H  H52  1  0.86899121  0.96356642  0.41292929  1  0.050807  0  0.100108  0.062637  0  0.967016  0
H  H53  1  0.63101161  0.46356551  0.08706869  1  0.050758  0  0.100102  0.062596  0  0.966999  0
H  H54  1  0.13100522  0.03643451  0.58706952  1  0.050781  0  0.100097  0.062642  0  0.966988  0
H  H55  1  0.36899297  0.53643419  0.91293119  1  0.050801  0  0.100102  0.062661  0  0.96701  0
H  H56  1  0.97841844  0.02590467  0.35559968  1  0.03669  0  0.098205  0.056535  0  1.012718  0
H  H57  1  0.52158720  0.52590318  0.14439796  1  0.036505  0  0.098202  0.056516  0  1.012774  0
H  H58  1  0.02157665  0.97409626  0.64439957  1  0.036677  0  0.098216  0.056564  0  1.01274  0
H  H59  1  0.47842007  0.47409836  0.85560103  1  0.036729  0  0.098201  0.056543  0  1.012782  0
H  H60  1  0.72041463  0.12271048  0.33986947  1  0.079051  0  0.104217  0.075017  0  0.988773  0
H  H61  1  0.77958801  0.62270819  0.16012926  1  0.079101  0  0.104213  0.075046  0  0.988822  0
H  H62  1  0.27958182  0.87729045  0.66012987  1  0.07905  0  0.104215  0.075072  0  0.988746  0
H  H63  1  0.22041396  0.37729150  0.83987360  1  0.07911  0  0.104233  0.075083  0  0.988797  0
H  H64  1  0.61750311  0.05957723  0.39838252  1  0.0605  0  0.100769  0.066197  0  0.961518  0
H  H65  1  0.88249299  0.55957650  0.10161668  1  0.060475  0  0.100789  0.066236  0  0.961595  0
H  H66  1  0.38249192  0.94042431  0.60161461  1  0.060392  0  0.100792  0.066216  0  0.961575  0
H  H67  1  0.11750898  0.44042626  0.89838619  1  0.06048  0  0.100802  0.066219  0  0.96168  0
H  H68  1  0.36555289  0.02597234  0.29255943  1  0.111097  0  0.11711  0.100112  0  1.004575  0
H  H69  1  0.13445074  0.52597034  0.20744277  1  0.111037  0  0.117097  0.100068  0  1.004573  0
H  H70  1  0.63443681  0.97403227  0.70744052  1  0.111196  0  0.117107  0.100127  0  1.004568  0
H  H71  1  0.86555662  0.47403120  0.79255940  1  0.111211  0  0.117097  0.100076  0  1.00459  0
H  H72  1  0.37460788  0.12931437  0.32373359  1  0.096228  0  0.12418  0.114333  0  0.98628  0
H  H73  1  0.12538987  0.62931351  0.17626478  1  0.096179  0  0.124204  0.114387  0  0.986233  0
H  H74  1  0.62538993  0.87068655  0.67626637  1  0.09618  0  0.124202  0.114338  0  0.986315  0
H  H75  1  0.87461200  0.37068680  0.82373492  1  0.096267  0  0.124185  0.114313  0  0.986351  0
H  H76  1  0.42400902  0.00443837  0.15795011  1  0.206709  0  0.141889  0.130089  0  1.02768  0
H  H77  1  0.07599059  0.50443870  0.34205124  1  0.206692  0  0.141872  0.130065  0  1.027716  0
H  H78  1  0.57598203  0.99555949  0.84204992  1  0.20673  0  0.141891  0.130078  0  1.027712  0
H  H79  1  0.92401543  0.49556161  0.65795136  1  0.206721  0  0.141889  0.130074  0  1.027725  0
H  H80  1  0.40743350  0.25622019  0.11136040  1  0.119281  0  0.133459  0.098006  0  0.999977  0
H  H81  1  0.09256787  0.75621882  0.38863745  1  0.119094  0  0.133483  0.098056  0  0.999994  0
H  H82  1  0.59257502  0.74378074  0.88863551  1  0.119161  0  0.133478  0.098019  0  1.000034  0
H  H83  1  0.90742867  0.24378150  0.61136506  1  0.119102  0  0.133492  0.098043  0  0.999996  0
H  H84  1  0.63208812  0.04353939  0.97353935  1  0.632742  0  0.2835  0.375742  0  0.97391  0
H  H85  1  0.86791078  0.54354027  0.52645937  1  0.632742  0  0.283481  0.375704  0  0.973988  0
H  H86  1  0.36790427  0.95645786  0.02646025  1  0.63274  0  0.283484  0.375676  0  0.974012  0
H  H87  1  0.13209521  0.45645820  0.47354218  1  0.632756  0  0.283492  0.37568  0  0.973989  0
H  H88  1  0.81637684  0.05012374  0.02724184  1  0.665507  0  0.281118  0.379692  0  0.967163  0
H  H89  1  0.68362606  0.55012378  0.47275726  1  0.665521  0  0.281118  0.379711  0  0.967161  0
H  H90  1  0.18361551  0.94987596  0.97275617  1  0.665507  0  0.281121  0.379712  0  0.967132  0
H  H91  1  0.31638124  0.44987469  0.52724280  1  0.665509  0  0.281114  0.379647  0  0.96721  0
C  C92  1  0.01709858  0.81275309  0.96426410  1  1.548123  0  0.196152  0.630962  0  4.145562  0
C  C93  1  0.48290002  0.31275661  0.53573624  1  1.548092  0  0.196113  0.630823  0  4.145888  0
C  C94  1  0.98289924  0.18724783  0.03573585  1  1.548146  0  0.196149  0.630952  0  4.145658  0
C  C95  1  0.51710322  0.68724248  0.46426407  1  1.548134  0  0.196095  0.630824  0  4.145896  0
C  C96  1  0.16489227  0.77786874  0.92663341  1  -0.038308  0  -0.168656  -0.350645  0  3.93656  0
C  C97  1  0.33511049  0.27787067  0.57336607  1  -0.037997  0  -0.1687  -0.350725  0  3.936483  0
C  C98  1  0.83510418  0.22213035  0.07336592  1  -0.038044  0  -0.168655  -0.350619  0  3.93652  0
C  C99  1  0.66489545  0.72212842  0.42663390  1  -0.037995  0  -0.168714  -0.350726  0  3.936487  0
C  C100  1  0.08189013  0.76426227  0.84903531  1  0.008646  0  -0.017439  0.124262  0  3.992406  0
C  C101  1  0.41811401  0.26426560  0.65096370  1  0.008765  0  -0.017431  0.124296  0  3.992302  0
C  C102  1  0.91811305  0.23573620  0.15096289  1  0.008843  0  -0.017512  0.124103  0  3.992309  0
C  C103  1  0.58188786  0.73573532  0.34903599  1  0.008758  0  -0.017468  0.124216  0  3.992437  0
C  C104  1  0.07833058  0.82794538  0.79926090  1  -0.094875  0  -0.098287  -0.13353  0  3.981092  0
C  C105  1  0.42166934  0.32794642  0.70074009  1  -0.094839  0  -0.098313  -0.13348  0  3.981163  0
C  C106  1  0.92166737  0.17205370  0.20074328  1  -0.095013  0  -0.098309  -0.133542  0  3.9812  0
C  C107  1  0.57833387  0.67205450  0.29925916  1  -0.094893  0  -0.098282  -0.133503  0  3.981204  0
C  C108  1  0.98916900  0.81764527  0.72868112  1  -0.04875  0  -0.103568  -0.154098  0  4.025011  0
C  C109  1  0.51083176  0.31764629  0.77131996  1  -0.048476  0  -0.103563  -0.154095  0  4.024997  0
C  C110  1  0.01082740  0.18235443  0.27131663  1  -0.048513  0  -0.103445  -0.153938  0  4.025443  0
C  C111  1  0.48917010  0.68235463  0.22867920  1  -0.04849  0  -0.103521  -0.15399  0  4.025137  0
C  C112  1  0.90236406  0.74387909  0.70553818  1  -0.041177  0  -0.015769  0.124459  0  3.992676  0
C  C113  1  0.59763963  0.24388011  0.79446239  1  -0.040841  0  -0.015778  0.124445  0  3.992729  0
C  C114  1  0.09763517  0.25611754  0.29446398  1  -0.04079  0  -0.015818  0.1243  0  3.992776  0
C  C115  1  0.40236495  0.75611897  0.20553748  1  -0.040817  0  -0.015807  0.124344  0  3.992875  0
C  C116  1  0.90894403  0.67964679  0.75512937  1  0.007348  0  -0.100788  -0.140105  0  3.997485  0
C  C117  1  0.59105449  0.17964826  0.74487175  1  0.007052  0  -0.100768  -0.140151  0  3.997469  0
C  C118  1  0.09104969  0.32035168  0.24486925  1  0.007037  0  -0.100809  -0.140144  0  3.997648  0
C  C119  1  0.40895147  0.82035143  0.25512874  1  0.007032  0  -0.100814  -0.140138  0  3.997531  0
C  C120  1  0.99601792  0.69006856  0.82587621  1  -0.119935  0  -0.101395  -0.149037  0  4.01744  0
C  C121  1  0.50398185  0.19007050  0.67412291  1  -0.120034  0  -0.101391  -0.149073  0  4.017187  0
C  C122  1  0.00398537  0.30992868  0.17412569  1  -0.119982  0  -0.101419  -0.149026  0  4.017596  0
C  C123  1  0.49602000  0.80992858  0.32587625  1  -0.120032  0  -0.101402  -0.149079  0  4.017367  0
C  C124  1  0.81018184  0.73281976  0.62854303  1  0.002678  0  -0.165571  -0.34411  0  3.928602  0
C  C125  1  0.68982318  0.23281849  0.87145549  1  0.002661  0  -0.165482  -0.343913  0  3.928453  0
C  C126  1  0.18981596  0.26718055  0.37145639  1  0.002629  0  -0.165492  -0.343771  0  3.928536  0
C  C127  1  0.31017728  0.76717998  0.12854253  1  0.002471  0  -0.165547  -0.343932  0  3.92857  0
C  C128  1  0.93187341  0.68076145  0.58944242  1  1.547836  0  0.199968  0.629151  0  4.162797  0
C  C129  1  0.56813044  0.18076042  0.91055643  1  1.54779  0  0.199874  0.629004  0  4.162874  0
C  C130  1  0.06812308  0.31923518  0.41055850  1  1.5478  0  0.199779  0.628873  0  4.163175  0
C  C131  1  0.43187141  0.81923621  0.08944274  1  1.548017  0  0.199867  0.629034  0  4.162836  0
C  C132  1  0.01515738  0.95504506  0.15383641  1  0.981849  0  0.153418  0.154366  0  3.968584  0
C  C133  1  0.48484601  0.45504528  0.34616100  1  0.981964  0  0.153415  0.154387  0  3.968642  0
C  C134  1  0.98484988  0.04496078  0.84616259  1  0.98201  0  0.153516  0.154708  0  3.968485  0
C  C135  1  0.51515165  0.54495503  0.65383366  1  0.981881  0  0.153403  0.154376  0  3.968568  0
C  C136  1  0.85036232  0.86628111  0.19411800  1  1.013052  0  0.174779  0.109304  0  3.885528  0
C  C137  1  0.64963548  0.36628396  0.30588204  1  1.013095  0  0.174799  0.109256  0  3.885635  0
C  C138  1  0.14963674  0.13371490  0.80587834  1  1.013247  0  0.174799  0.109296  0  3.885765  0
C  C139  1  0.35035972  0.63371696  0.69412090  1  1.01307  0  0.17467  0.109138  0  3.885709  0
C  C140  1  0.94597758  0.89808514  0.32498420  1  0.329792  0  -0.041759  -0.123853  0  3.895171  0
C  C141  1  0.55402286  0.39808336  0.17501715  1  0.329406  0  -0.041729  -0.123841  0  3.894966  0
C  C142  1  0.05402016  0.10191762  0.67501311  1  0.329522  0  -0.041759  -0.123765  0  3.894781  0
C  C143  1  0.44598041  0.60191757  0.82498422  1  0.329804  0  -0.041778  -0.123857  0  3.894905  0
C  C144  1  0.87958718  0.97577304  0.35631350  1  0.431932  0  -0.063497  0.012335  0  3.959538  0
C  C145  1  0.62041699  0.47577109  0.14368565  1  0.432181  0  -0.063537  0.012374  0  3.959499  0
C  C146  1  0.12040650  0.02422850  0.64368407  1  0.431883  0  -0.063527  0.012178  0  3.959596  0
C  C147  1  0.37958767  0.52422860  0.85631687  1  0.431856  0  -0.063475  0.01225  0  3.959539  0
C  C148  1  0.63249800  0.06867525  0.34183484  1  0.413187  0  -0.063772  0.012442  0  3.932713  0
C  C149  1  0.86750077  0.56867350  0.15816403  1  0.41317  0  -0.063796  0.012293  0  3.9329  0
C  C150  1  0.36749845  0.93132567  0.65816449  1  0.413244  0  -0.063779  0.012325  0  3.932832  0
C  C151  1  0.13250118  0.43132804  0.84183831  1  0.413087  0  -0.063845  0.012222  0  3.933057  0
C  C152  1  0.44570892  0.08279647  0.29745280  1  0.296602  0  -0.045452  -0.125996  0  3.891751  0
C  C153  1  0.05429307  0.58279453  0.20254626  1  0.296676  0  -0.045413  -0.125926  0  3.89176  0
C  C154  1  0.55428753  0.91720629  0.70254653  1  0.296569  0  -0.045459  -0.126013  0  3.891996  0
C  C155  1  0.94571022  0.41720639  0.79745564  1  0.2964  0  -0.045351  -0.125786  0  3.891919  0
C  C156  1  0.42518041  0.07105160  0.16267471  1  0.973852  0  0.165892  0.094976  0  3.843229  0
C  C157  1  0.07481617  0.57105008  0.33732344  1  0.973858  0  0.165913  0.094978  0  3.843315  0
C  C158  1  0.57481058  0.92894932  0.83732321  1  0.973819  0  0.165893  0.094988  0  3.843168  0
C  C159  1  0.92518713  0.42894962  0.66267899  1  0.973807  0  0.165986  0.095151  0  3.843529  0
C  C160  1  0.42108407  0.19940588  0.14140093  1  1.03927  0  0.141544  0.135954  0  4.029675  0
C  C161  1  0.07890939  0.69940443  0.35859732  1  1.039494  0  0.141474  0.135867  0  4.029795  0
C  C162  1  0.57891367  0.80059504  0.85859638  1  1.039416  0  0.141561  0.135943  0  4.029703  0
C  C163  1  0.92108310  0.30059589  0.64140545  1  1.039576  0  0.141483  0.135875  0  4.029648  0
N  N164  1  0.88857067  0.89547452  0.13275664  1  -1.189001  0  -0.343818  -0.323573  0  3.444777  0
N  N165  1  0.61143109  0.39547638  0.36724321  1  -1.189021  0  -0.343853  -0.323637  0  3.444812  0
N  N166  1  0.11143388  0.10452947  0.86724218  1  -1.189142  0  -0.343808  -0.323635  0  3.444806  0
N  N167  1  0.38856813  0.60452884  0.63275842  1  -1.189008  0  -0.343734  -0.323418  0  3.444641  0
N  N168  1  0.95069523  0.90656584  0.24915431  1  -0.808101  0  -0.135671  0.170818  0  3.746408  0
N  N169  1  0.54930519  0.40656370  0.25084706  1  -0.807781  0  -0.135641  0.17091  0  3.746461  0
N  N170  1  0.04929983  0.09343570  0.75084388  1  -0.808581  0  -0.135639  0.170825  0  3.746443  0
N  N171  1  0.45069680  0.59343416  0.74915633  1  -0.808281  0  -0.135626  0.170879  0  3.746508  0
N  N172  1  0.05737073  0.96379597  0.22461996  1  -0.700929  0  -0.223254  -0.282658  0  3.118523  0
N  N173  1  0.44263134  0.46379539  0.27537949  1  -0.700984  0  -0.22324  -0.282648  0  3.118546  0
N  N174  1  0.94262849  0.03620557  0.77538167  1  -0.700688  0  -0.223355  -0.28283  0  3.118694  0
N  N175  1  0.55737458  0.53620554  0.72461994  1  -0.700874  0  -0.223248  -0.282676  0  3.118529  0
N  N176  1  0.40941794  0.12467137  0.10846384  1  -1.212821  0  -0.344432  -0.327724  0  3.453133  0
N  N177  1  0.09057984  0.62467001  0.39153504  1  -1.212749  0  -0.34442  -0.327702  0  3.453187  0
N  N178  1  0.59057712  0.87532894  0.89153434  1  -1.212701  0  -0.344421  -0.327681  0  3.453059  0
N  N179  1  0.90942755  0.37533092  0.60846819  1  -1.212525  0  -0.344438  -0.32776  0  3.453489  0
N  N180  1  0.44500886  0.11307844  0.22496166  1  -0.815867  0  -0.131751  0.172503  0  3.710268  0
N  N181  1  0.05499708  0.61307796  0.27503721  1  -0.81593  0  -0.131787  0.172467  0  3.710316  0
N  N182  1  0.55499027  0.88692310  0.77503679  1  -0.815859  0  -0.131819  0.172448  0  3.710317  0
N  N183  1  0.94500485  0.38692296  0.72496460  1  -0.815866  0  -0.131892  0.172284  0  3.710442  0
N  N184  1  0.44389761  0.19558805  0.21230625  1  -0.73474  0  -0.228129  -0.281081  0  3.118487  0
N  N185  1  0.05610265  0.69558823  0.28769296  1  -0.734751  0  -0.228112  -0.281068  0  3.118446  0
N  N186  1  0.55610691  0.80441287  0.78769151  1  -0.734856  0  -0.228127  -0.281058  0  3.118386  0
N  N187  1  0.94389798  0.30441331  0.71231034  1  -0.734947  0  -0.228147  -0.281078  0  3.11838  0
O  O188  1  0.90643426  0.76409951  0.98551318  1  -1.174608  0  -0.346314  -0.576229  0  2.116626  0
O  O189  1  0.59356535  0.26409962  0.51448875  1  -1.174516  0  -0.346362  -0.576207  0  2.116701  0
O  O190  1  0.09355550  0.23590203  0.01448888  1  -1.174574  0  -0.346318  -0.576225  0  2.116759  0
O  O191  1  0.40643790  0.73589823  0.48551156  1  -1.174482  0  -0.346322  -0.57619  0  2.116675  0
O  O192  1  0.00461979  0.89120242  0.96936319  1  -1.181467  0  -0.331843  -0.583033  0  2.219936  0
O  O193  1  0.49538396  0.39120468  0.53063715  1  -1.181582  0  -0.331723  -0.582891  0  2.220165  0
O  O194  1  0.99537522  0.10879666  0.03063341  1  -1.181491  0  -0.331825  -0.58302  0  2.219774  0
O  O195  1  0.50462740  0.60879502  0.46936317  1  -1.181584  0  -0.331739  -0.582934  0  2.220166  0
O  O196  1  0.93530352  0.60372163  0.59952700  1  -1.184434  0  -0.330363  -0.592401  0  2.216189  0
O  O197  1  0.56469113  0.10372303  0.90047210  1  -1.184371  0  -0.33032  -0.592373  0  2.216295  0
O  O198  1  0.06468895  0.39627438  0.40047523  1  -1.184763  0  -0.330282  -0.592273  0  2.216165  0
O  O199  1  0.43530669  0.89627483  0.09952785  1  -1.184794  0  -0.33029  -0.592314  0  2.216153  0
O  O200  1  0.02923863  0.71830913  0.55092404  1  -1.168667  0  -0.34261  -0.565572  0  2.179328  0
O  O201  1  0.47076848  0.21831093  0.94907875  1  -1.168653  0  -0.342583  -0.565513  0  2.179267  0
O  O202  1  0.97076464  0.28168137  0.44907733  1  -1.168271  0  -0.342504  -0.565494  0  2.179514  0
O  O203  1  0.52923347  0.78168570  0.05092359  1  -1.168467  0  -0.342583  -0.565568  0  2.17936  0
O  O204  1  0.70832488  0.99710919  0.31547882  1  -1.058882  0  -0.231411  -0.228149  0  2.506869  0
O  O205  1  0.79167383  0.49710845  0.18452107  1  -1.058914  0  -0.231391  -0.228097  0  2.506847  0
O  O206  1  0.29166876  0.00289358  0.68451716  1  -1.058763  0  -0.231424  -0.228067  0  2.506907  0
O  O207  1  0.20832544  0.50289371  0.81548214  1  -1.058842  0  -0.231433  -0.228072  0  2.506912  0
O  O208  1  0.69811990  0.01918389  0.01894187  1  -1.28457  0  -0.599384  -0.766427  0  2.119364  0
O  O209  1  0.80188584  0.51918509  0.48105840  1  -1.28458  0  -0.599381  -0.766445  0  2.119329  0
O  O210  1  0.30187523  0.98081396  0.98105896  1  -1.284543  0  -0.599396  -0.766446  0  2.119334  0
O  O211  1  0.19812288  0.48081461  0.51894386  1  -1.284577  0  -0.599387  -0.766371  0  2.119402  0
