# generated using pymatgen
data_ZnH16C33(NO3)2
_symmetry_space_group_name_H-M   'P 1'
_cell_length_a   16.49083494
_cell_length_b   17.89108590
_cell_length_c   28.11902743
_cell_angle_alpha   90.23039526
_cell_angle_beta   89.88676798
_cell_angle_gamma   90.28025306
_symmetry_Int_Tables_number   1
_chemical_formula_structural   ZnH16C33(NO3)2
_chemical_formula_sum   'Zn2 H32 C66 N4 O12'
_cell_volume   8296.02597318
_cell_formula_units_Z   2
loop_
 _symmetry_equiv_pos_site_id
 _symmetry_equiv_pos_as_xyz
  1  'x, y, z'
loop_
 _atom_site_type_symbol
 _atom_site_label
 _atom_site_symmetry_multiplicity
 _atom_site_fract_x
 _atom_site_fract_y
 _atom_site_fract_z
 _atom_site_occupancy
 _atom_site_pbe_bader_charge
 _atom_site_pbe_bader_spin_density
 _atom_site_pbe_cm5_charge
 _atom_site_pbe_ddec_charge
 _atom_site_pbe_ddec_spin_density
 _atom_site_pbe_ddec_sum_bond_order
 _atom_site_pbe_magmom
Zn  Zn0  1  0.41623211  0.49961859  0.49980789  1  1.247707  0  0.662571  0.810167  0  2.446531  0
Zn  Zn1  1  0.58387576  0.50031895  0.49966003  1  1.265122  0  0.662472  0.810655  0  2.445409  0
H  H2  1  0.62995247  0.50393283  0.34761409  1  0.127959  0  0.104819  0.10718  0  1.002111  0
H  H3  1  0.86485214  0.41438225  0.44546917  1  0.107199  0  0.119267  0.128458  0  0.97588  0
H  H4  1  0.28717160  0.41804715  0.44766186  1  0.131138  0  0.133929  0.109656  0  0.962917  0
H  H5  1  0.71252771  0.58203163  0.55194245  1  0.130496  0  0.133939  0.114212  0  0.959453  0
H  H6  1  0.28828687  0.58120198  0.55211367  1  0.134174  0  0.133446  0.10944  0  0.964838  0
H  H7  1  0.71221121  0.41856761  0.44767375  1  0.135401  0  0.134068  0.110321  0  0.962805  0
H  H8  1  0.63038170  0.50421268  0.25828543  1  0.062171  0  0.108457  0.115263  0  0.980895  0
H  H9  1  0.36945868  0.50540644  0.74131166  1  0.069386  0  0.108227  0.115213  0  0.981216  0
H  H10  1  0.44860749  0.31799609  0.12162674  1  0.131399  0  0.116548  0.122167  0  0.978438  0
H  H11  1  0.57924070  0.67336694  0.87805975  1  0.133294  0  0.116814  0.122506  0  0.979263  0
H  H12  1  0.62973305  0.49546018  0.65188063  1  0.121163  0  0.104484  0.106861  0  1.001957  0
H  H13  1  0.37006655  0.50513844  0.65202061  1  0.120223  0  0.104119  0.106148  0  1.002865  0
H  H14  1  0.37013688  0.49561969  0.34785191  1  0.123947  0  0.104137  0.106007  0  1.00303  0
H  H15  1  0.62994559  0.49547520  0.74117352  1  0.076589  0  0.108361  0.115372  0  0.981545  0
H  H16  1  0.36979261  0.49529689  0.25852438  1  0.06456  0  0.108325  0.114913  0  0.981327  0
H  H17  1  0.42002017  0.32731923  0.87708988  1  0.111728  0  0.116941  0.122547  0  0.979089  0
H  H18  1  0.55155720  0.68149985  0.12270040  1  0.116829  0  0.117002  0.122728  0  0.979055  0
H  H19  1  0.42192905  0.32406175  0.96506178  1  0.052426  0  0.108091  0.107575  0  1.003358  0
H  H20  1  0.55469793  0.68314132  0.03470160  1  0.07866  0  0.107831  0.106758  0  1.003806  0
H  H21  1  0.44516188  0.31673093  0.03363123  1  0.079544  0  0.107793  0.107282  0  1.003233  0
H  H22  1  0.57764318  0.67615585  0.96605533  1  0.067124  0  0.107737  0.106715  0  1.003629  0
H  H23  1  0.36940670  0.87724739  0.51521707  1  0.061534  0  0.103215  0.105231  0  0.993508  0
H  H24  1  0.37017738  0.73779615  0.50736411  1  0.100138  0  0.102957  0.106465  0  1.003694  0
H  H25  1  0.63067409  0.12311025  0.51518236  1  0.061596  0  0.103207  0.105005  0  0.993353  0
H  H26  1  0.36919688  0.12190767  0.51519469  1  0.052064  0  0.103477  0.105893  0  0.992233  0
H  H27  1  0.63087569  0.87838530  0.51532019  1  0.047829  0  0.103536  0.105877  0  0.992595  0
H  H28  1  0.62991951  0.26240917  0.50698075  1  0.097343  0  0.103264  0.106698  0  1.002829  0
H  H29  1  0.36999584  0.26121754  0.50704796  1  0.123612  0  0.103672  0.107581  0  1.002857  0
H  H30  1  0.63010242  0.73893279  0.50750270  1  0.07506  0  0.103203  0.107099  0  1.00381  0
H  H31  1  0.13450121  0.41446018  0.44526937  1  0.108912  0  0.119342  0.128526  0  0.976353  0
H  H32  1  0.86520864  0.58567732  0.55468249  1  0.105731  0  0.119405  0.128852  0  0.975734  0
H  H33  1  0.13562727  0.58542201  0.55469139  1  0.099698  0  0.119316  0.128715  0  0.976441  0
C  C34  1  0.49997433  0.35317482  0.50143549  1  1.591471  0  0.213146  0.590954  0  4.175173  0
C  C35  1  0.47091952  0.43702773  0.87275952  1  -0.008724  0  -0.01174  -0.072094  0  4.002181  0
C  C36  1  0.50005698  0.49931307  0.35282102  1  -0.064347  0  -0.014169  -0.029793  0  3.95361  0
C  C37  1  0.49992521  0.50068824  0.64685479  1  -0.030813  0  -0.014846  -0.03005  0  3.956774  0
C  C38  1  0.47338334  0.43461923  0.97370007  1  0.028579  0  0.005238  0.042576  0  3.974168  0
C  C39  1  0.52227607  0.56669074  0.02604570  1  -0.09203  0  0.005069  0.040278  0  3.978342  0
C  C40  1  0.52628108  0.56553280  0.97407036  1  0.053917  0  0.00497  0.039725  0  3.977459  0
C  C41  1  0.47756179  0.43321933  0.02565290  1  -0.051106  0  0.005091  0.039064  0  3.977  0
C  C42  1  0.49980515  0.50012989  0.94906013  1  -0.119681  0  0.004389  0.000789  0  3.914326  0
C  C43  1  0.49996783  0.49989840  0.05066424  1  0.104751  0  0.004734  0.002134  0  3.91469  0
C  C44  1  0.44440095  0.37382477  0.94707957  1  0.03369  0  -0.080891  -0.123466  0  3.970092  0
C  C45  1  0.50014380  0.64677731  0.50288398  1  1.536941  0  0.212818  0.590886  0  4.175605  0
C  C46  1  0.53967397  0.63108597  0.05268574  1  -0.036608  0  -0.081264  -0.12218  0  3.971637  0
C  C47  1  0.44284191  0.37493514  0.89743297  1  -0.091155  0  -0.068369  -0.066647  0  3.972437  0
C  C48  1  0.53802474  0.63099442  0.10234200  1  -0.056597  0  -0.067959  -0.066584  0  3.973651  0
C  C49  1  0.50004356  0.49920508  0.40620892  1  1.592332  0  0.215569  0.595029  0  4.170538  0
C  C50  1  0.50001718  0.50069301  0.59347447  1  1.573943  0  0.214562  0.592079  0  4.172858  0
C  C51  1  0.46025914  0.36871110  0.05191561  1  -0.066907  0  -0.080793  -0.121869  0  3.970542  0
C  C52  1  0.55514042  0.62647876  0.94779318  1  -0.037  0  -0.080673  -0.120658  0  3.970523  0
C  C53  1  0.42637166  0.84668069  0.51370878  1  0.006789  0  -0.085901  -0.13108  0  3.959502  0
C  C54  1  0.57370915  0.15359102  0.51333260  1  -0.070001  0  -0.085542  -0.130508  0  3.959049  0
C  C55  1  0.42618242  0.15289615  0.51334464  1  0.003223  0  -0.085604  -0.131229  0  3.957183  0
C  C56  1  0.50005945  0.49978718  0.10156513  1  -0.10796  0  0.00437  0.036356  0  4.001992  0
C  C57  1  0.57389760  0.84734605  0.51376711  1  0.00664  0  -0.086002  -0.131672  0  3.95912  0
C  C58  1  0.42673406  0.76935947  0.50937864  1  -0.058037  0  -0.085027  -0.090833  0  3.999804  0
C  C59  1  0.57336496  0.23080830  0.50868818  1  -0.049529  0  -0.085411  -0.090046  0  3.998177  0
C  C60  1  0.42653861  0.23012124  0.50872148  1  -0.057147  0  -0.08484  -0.089906  0  3.998161  0
C  C61  1  0.57355109  0.77002154  0.50945412  1  -0.018871  0  -0.085051  -0.091246  0  3.998781  0
C  C62  1  0.50015256  0.73021083  0.50719385  1  -0.007933  0  -0.016336  -0.028082  0  3.957548  0
C  C63  1  0.49995095  0.26985034  0.50613895  1  -0.005775  0  -0.016304  -0.02934  0  3.959554  0
C  C64  1  0.50012558  0.88708771  0.51575979  1  0.077244  0  0.000825  0.144382  0  4.118661  0
C  C65  1  0.49994781  0.11320745  0.51541871  1  0.071269  0  0.000333  0.143008  0  4.120172  0
C  C66  1  0.50008728  0.96603663  0.51827767  1  -0.30131  0  -0.047189  -0.111987  0  4.130452  0
C  C67  1  0.49973176  0.50025792  0.89816174  1  0.108167  0  0.004091  0.036969  0  4.002724  0
C  C68  1  0.49997458  0.03431067  0.51818170  1  -0.077416  0  -0.04635  -0.11102  0  4.131005  0
C  C69  1  0.16635355  0.45213271  0.46940553  1  -0.032458  0  -0.068711  -0.170272  0  3.90832  0
C  C70  1  0.83352961  0.54793638  0.53051160  1  -0.013306  0  -0.068841  -0.170882  0  3.909962  0
C  C71  1  0.16698208  0.54760826  0.53052227  1  0.003869  0  -0.068594  -0.170665  0  3.908444  0
C  C72  1  0.83333462  0.45228093  0.46950803  1  -0.008199  0  -0.068351  -0.169294  0  3.907635  0
C  C73  1  0.25046380  0.45382254  0.47055947  1  0.509164  0  0.065785  0.107321  0  3.919755  0
C  C74  1  0.74942447  0.54623173  0.52916523  1  0.507876  0  0.065422  0.103782  0  3.920875  0
C  C75  1  0.25107118  0.54556936  0.52928108  1  0.490356  0  0.065531  0.107288  0  3.920231  0
C  C76  1  0.74924095  0.45430886  0.47054579  1  0.497827  0  0.065207  0.106471  0  3.920049  0
C  C77  1  0.12274370  0.49994646  0.49999960  1  0.0364  0  0.02154  0.177264  0  4.106663  0
C  C78  1  0.48084501  0.43346046  0.12660685  1  0.016683  0  -0.01193  -0.073578  0  4.00384  0
C  C79  1  0.87735316  0.50006971  0.50006203  1  0.150225  0  0.021668  0.176705  0  4.106882  0
C  C80  1  0.03701102  0.50003342  0.50007415  1  -0.234796  0  -0.027313  -0.089635  0  4.080306  0
C  C81  1  0.96308756  0.50002041  0.50011914  1  -0.123443  0  -0.026853  -0.089989  0  4.080182  0
C  C82  1  0.48084447  0.43177389  0.17921007  1  1.278984  0  0.239947  0.433353  0  4.109441  0
C  C83  1  0.52923042  0.56512300  0.82052171  1  1.372457  0  0.239913  0.43694  0  4.107503  0
C  C84  1  0.51951146  0.56748609  0.17960243  1  1.381791  0  0.239532  0.431049  0  4.108235  0
C  C85  1  0.46998056  0.43582854  0.82015640  1  1.338572  0  0.240354  0.436597  0  4.107056  0
C  C86  1  0.42653388  0.49723422  0.27830281  1  -0.027893  0  -0.085071  -0.152818  0  3.98089  0
C  C87  1  0.57325482  0.49759311  0.72139707  1  0.05884  0  -0.084629  -0.152087  0  3.979827  0
C  C88  1  0.42669742  0.49714660  0.32780110  1  -0.020124  0  -0.079597  -0.075433  0  3.972842  0
C  C89  1  0.52845299  0.56362690  0.87311583  1  -0.013655  0  -0.011708  -0.072123  0  4.001261  0
C  C90  1  0.57318556  0.49779721  0.67190250  1  0.015438  0  -0.08044  -0.076792  0  3.974897  0
C  C91  1  0.57342686  0.50180904  0.32766802  1  -0.016762  0  -0.080051  -0.07567  0  3.972981  0
C  C92  1  0.42655540  0.50337250  0.67198528  1  -0.10589  0  -0.080228  -0.076034  0  3.973544  0
C  C93  1  0.57363564  0.50189639  0.27816772  1  -0.03479  0  -0.085147  -0.153633  0  3.979847  0
C  C94  1  0.42625208  0.50354260  0.72148257  1  -0.022974  0  -0.08493  -0.152808  0  3.978927  0
C  C95  1  0.50010051  0.49951706  0.25379760  1  0.330982  0  0.091402  0.19736  0  4.012196  0
C  C96  1  0.49970674  0.50061634  0.74589885  1  0.254239  0  0.09102  0.202076  0  4.010162  0
C  C97  1  0.46208995  0.36858511  0.10156924  1  0.05425  0  -0.068287  -0.066501  0  3.972518  0
C  C98  1  0.55655010  0.62562012  0.89813669  1  -0.075397  0  -0.068343  -0.067549  0  3.973208  0
C  C99  1  0.51935223  0.56600362  0.12698867  1  -0.012293  0  -0.011911  -0.07211  0  4.003043  0
N  N100  1  0.50011134  0.49959539  0.20245950  1  -1.220204  0  -0.231252  -0.210228  0  3.569159  0
N  N101  1  0.49963889  0.50052277  0.79722166  1  -1.16384  0  -0.230891  -0.225406  0  3.586189  0
N  N102  1  0.29186298  0.49960229  0.49990430  1  -1.209966  0  -0.313082  -0.184978  0  3.505189  0
N  N103  1  0.70824352  0.50038809  0.49975434  1  -1.209041  0  -0.313008  -0.185962  0  3.507151  0
O  O104  1  0.43118205  0.38533949  0.50012990  1  -1.171523  0  -0.320643  -0.551886  0  2.324466  0
O  O105  1  0.55374576  0.61927674  0.79770606  1  -1.103928  0  -0.284151  -0.44323  0  2.063207  0
O  O106  1  0.44529830  0.38183858  0.79702205  1  -1.107669  0  -0.283228  -0.441436  0  2.062402  0
O  O107  1  0.53534034  0.62412184  0.20280327  1  -1.09985  0  -0.283251  -0.441156  0  2.063774  0
O  O108  1  0.56893947  0.61459267  0.50151980  1  -1.170841  0  -0.320469  -0.552393  0  2.326559  0
O  O109  1  0.43133935  0.61406933  0.50112364  1  -1.16956  0  -0.320381  -0.552274  0  2.326255  0
O  O110  1  0.56878440  0.38585382  0.49944457  1  -1.170874  0  -0.32072  -0.552882  0  2.325979  0
O  O111  1  0.43124773  0.49854636  0.42691605  1  -1.165556  0  -0.320015  -0.552933  0  2.32368  0
O  O112  1  0.56883211  0.50030379  0.57278774  1  -1.165808  0  -0.319902  -0.552659  0  2.322133  0
O  O113  1  0.43126346  0.50098024  0.57287749  1  -1.164925  0  -0.319769  -0.552101  0  2.321899  0
O  O114  1  0.56881741  0.49988708  0.42678746  1  -1.162527  0  -0.319803  -0.552899  0  2.323106  0
O  O115  1  0.46518663  0.37499971  0.20207984  1  -1.101628  0  -0.284734  -0.443932  0  2.063925  0
