# generated using pymatgen
data_Cu2H8C14N2O9
_symmetry_space_group_name_H-M   'P 1'
_cell_length_a   6.86156390
_cell_length_b   10.74072191
_cell_length_c   11.08829426
_cell_angle_alpha   86.34560639
_cell_angle_beta   87.28360499
_cell_angle_gamma   87.85480896
_symmetry_Int_Tables_number   1
_chemical_formula_structural   Cu2H8C14N2O9
_chemical_formula_sum   'Cu4 H16 C28 N4 O18'
_cell_volume   814.12329450
_cell_formula_units_Z   2
loop_
 _symmetry_equiv_pos_site_id
 _symmetry_equiv_pos_as_xyz
  1  'x, y, z'
loop_
 _atom_site_type_symbol
 _atom_site_label
 _atom_site_symmetry_multiplicity
 _atom_site_fract_x
 _atom_site_fract_y
 _atom_site_fract_z
 _atom_site_occupancy
 _atom_site_hle17_ddec_charge
 _atom_site_hle17_ddec_spin_density
 _atom_site_hle17_ddec_sum_bond_order
 _atom_site_hle17_magmom
 _atom_site_hse06_10hf_ddec_charge
 _atom_site_hse06_10hf_ddec_spin_density
 _atom_site_hse06_10hf_ddec_sum_bond_order
 _atom_site_hse06_10hf_magmom
 _atom_site_hse06_ddec_charge
 _atom_site_hse06_ddec_spin_density
 _atom_site_hse06_ddec_sum_bond_order
 _atom_site_hse06_magmom
 _atom_site_pbe_cm5_charge
 _atom_site_pbe_ddec_charge
 _atom_site_pbe_ddec_spin_density
 _atom_site_pbe_ddec_sum_bond_order
 _atom_site_pbe_magmom
Cu  Cu0  1  0.80670445  0.00602945  0.31298448  1  0.973766  -0.682047  1.743152  -0.509  0.968431  -0.785023  2.140446  -0.642  1.063086  -0.869391  2.072397  -0.737  0.722471  0.894171  -0.703549  2.202596  -0.561
Cu  Cu1  1  0.19330284  0.99396500  0.68701350  1  0.973802  0.682061  1.743195  0.509  0.968456  0.785027  2.14038  0.642  1.063076  0.869391  2.072402  0.737  0.722505  0.894262  0.703562  2.202453  0.561
Cu  Cu2  1  0.49803330  0.86072939  0.48351622  1  1.022227  -0.638636  1.748111  -0.477  1.036186  -0.790274  2.143668  -0.646  1.128685  -0.877214  2.072116  -0.744  0.693829  0.967679  -0.659359  2.205244  -0.527
Cu  Cu3  1  0.50195339  0.13927170  0.51647284  1  1.022255  0.63862  1.748048  0.477  1.036277  0.790266  2.143403  0.646  1.128615  0.87719  2.072014  0.744  0.693859  0.967727  0.659306  2.204997  0.527
H  H4  1  0.84190214  0.83603906  0.89246089  1  0.119223  -0.00059  0.937835  -0.001  0.131206  -0.000453  0.994057  0.0  0.134271  -0.000303  0.9932  0.0  0.114818  0.128  -0.000411  0.99609  0.0
H  H5  1  0.15808740  0.16396199  0.10753262  1  0.11918  0.000589  0.937869  0.001  0.131144  0.000453  0.994115  0.0  0.134206  0.000303  0.993263  0.0  0.114835  0.127938  0.000412  0.996146  0.0
H  H6  1  0.16403222  0.29007495  0.26899860  1  0.131752  -0.000124  0.943426  0.0  0.133377  -8.6e-05  1.015401  0.0  0.137332  -6.3e-05  1.010961  0.0  0.118751  0.130673  -8.3e-05  1.018462  0.0
H  H7  1  0.83599249  0.70988861  0.73100792  1  0.131784  0.000122  0.943832  0.0  0.133438  8.6e-05  1.015708  0.0  0.137393  6.3e-05  1.011271  0.0  0.118838  0.130742  8.2e-05  1.018762  0.0
H  H8  1  0.69252978  0.50896366  0.42883480  1  0.122219  2.8e-05  0.922119  0.0  0.130855  -7.2e-05  0.982389  0.0  0.134592  -3.7e-05  0.979596  0.0  0.117007  0.128014  -1e-06  0.984917  0.0
H  H9  1  0.30747338  0.49102899  0.57115345  1  0.122125  -2.9e-05  0.922175  0.0  0.13078  7.2e-05  0.98244  0.0  0.134519  3.7e-05  0.979646  0.0  0.116937  0.127939  0.0  0.984969  0.0
H  H10  1  0.61085102  0.21337754  0.91166147  1  0.124866  -0.000665  0.952046  -0.001  0.133426  -0.000491  1.01204  -0.001  0.137091  -0.000312  1.010043  0.0  0.112102  0.129889  -0.000469  1.01473  -0.001
H  H11  1  0.38915401  0.78663277  0.08833838  1  0.124904  0.000662  0.952119  0.001  0.13342  0.000491  1.012142  0.001  0.137084  0.000312  1.010146  0.0  0.112085  0.129884  0.000469  1.014831  0.001
H  H12  1  0.66871771  0.19544284  0.13346158  1  0.099154  -0.001033  0.96335  -0.002  0.106519  -0.000822  1.026659  -0.002  0.10956  -0.000524  1.023195  -0.001  0.118666  0.103336  -0.00086  1.029933  -0.002
H  H13  1  0.33127179  0.80455725  0.86653740  1  0.099138  0.001037  0.963357  0.002  0.106492  0.000823  1.026677  0.002  0.109534  0.000524  1.023214  0.001  0.118678  0.103309  0.00086  1.029947  0.002
H  H14  1  0.87285985  0.82877250  0.11776844  1  0.0918  -0.000987  0.943543  -0.002  0.102548  -0.000748  1.000192  -0.002  0.104905  -0.000468  0.998686  -0.001  0.120484  0.099881  -0.000781  1.00195  -0.002
H  H15  1  0.12711954  0.17122575  0.88222997  1  0.091922  0.000988  0.943497  0.002  0.102583  0.000748  1.000248  0.002  0.104937  0.000467  0.998747  0.001  0.120517  0.099912  0.000781  1.002007  0.002
H  H16  1  0.20309622  0.69070315  0.27224361  1  0.137844  -0.000206  0.943885  0.0  0.139022  -0.000183  1.015287  0.0  0.142605  -0.000121  1.012  0.0  0.119505  0.13666  -0.00021  1.017299  0.0
H  H17  1  0.79689171  0.30926800  0.72775972  1  0.137874  0.000206  0.943501  0.0  0.139118  0.000182  1.014855  0.0  0.142696  0.00012  1.011583  0.0  0.119423  0.136753  0.000209  1.016866  0.0
H  H18  1  0.76109870  0.98438041  0.55432248  1  0.409025  0.000538  0.904867  0.002  0.381664  -0.000102  0.970567  0.0  0.397984  -5.1e-05  0.947883  0.0  0.274115  0.369847  -0.000201  0.986964  0.0
H  H19  1  0.23888024  0.01562908  0.44566991  1  0.408925  -0.000538  0.904905  -0.002  0.381541  0.000101  0.970708  0.0  0.397854  5.1e-05  0.94803  0.0  0.274071  0.369731  0.000201  0.987095  0.0
C  C20  1  0.80107630  0.27248777  0.37637445  1  0.665112  -0.000992  3.86142  -0.001  0.626966  -0.001343  4.15331  -0.001  0.669531  -0.001127  4.144745  -0.001  0.223236  0.596482  -0.001691  4.158985  -0.001
C  C21  1  0.19893943  0.72751604  0.62361470  1  0.664842  0.000989  3.860714  0.001  0.626548  0.001341  4.15294  0.001  0.669115  0.001127  4.14439  0.001  0.223156  0.596062  0.001691  4.158611  0.001
C  C22  1  0.79861542  0.91659018  0.94346971  1  -0.119058  -0.007219  3.704646  -0.008  -0.1414  -0.003436  3.950961  -0.004  -0.147439  -0.002983  3.971786  -0.004  -0.075487  -0.137592  -0.00341  3.93824  -0.004
C  C23  1  0.20137409  0.08340991  0.05652836  1  -0.118899  0.007282  3.704893  0.008  -0.141185  0.003436  3.951178  0.004  -0.147251  0.002984  3.971986  0.004  -0.075412  -0.137376  0.003411  3.93845  0.004
C  C24  1  0.09932101  0.38024186  0.29139638  1  -0.062174  0.002358  3.647176  0.002  -0.102549  0.001046  3.900682  0.001  -0.096633  0.000827  3.91661  0.001  -0.058859  -0.104917  0.000237  3.888713  0.0
C  C25  1  0.90067704  0.61975908  0.70861227  1  -0.062275  -0.002328  3.648544  -0.002  -0.102722  -0.001046  3.902114  -0.001  -0.096801  -0.000824  3.918045  -0.001  -0.058961  -0.105098  -0.000237  3.890153  0.0
C  C26  1  0.72566017  0.02629239  0.88447534  1  0.001596  0.0028  3.710348  0.003  0.019073  0.00119  3.940969  0.001  0.017407  0.001815  3.961005  0.002  0.005529  0.019646  0.000412  3.928102  0.0
C  C27  1  0.27433346  0.97371424  0.11551957  1  0.001549  -0.002858  3.710755  -0.003  0.018895  -0.00119  3.941457  -0.001  0.017313  -0.001816  3.961377  -0.002  0.00545  0.01947  -0.000412  3.928588  0.0
C  C28  1  0.91479722  0.38806324  0.34973145  1  -0.048444  -0.00068  3.72842  0.0  -0.023835  -0.000291  3.963777  0.0  -0.036278  -0.00031  3.986909  0.0  -0.007155  -0.015716  -0.001071  3.949474  -0.001
C  C29  1  0.08517517  0.61192469  0.65028033  1  -0.048245  0.000668  3.727556  0.0  -0.02374  0.000292  3.963304  0.0  -0.036181  0.000309  3.98643  0.0  -0.007121  -0.015618  0.001072  3.948996  0.001
C  C30  1  0.83508628  0.50347184  0.38171171  1  -0.025578  -0.002757  3.642483  -0.002  -0.070862  -0.002375  3.897664  -0.002  -0.064929  -0.001456  3.915345  -0.001  -0.056656  -0.076334  -0.002651  3.888049  -0.003
C  C31  1  0.16492131  0.49651702  0.61828477  1  -0.025394  0.002772  3.642121  0.002  -0.070721  0.002376  3.897377  0.002  -0.064786  0.00146  3.915053  0.001  -0.05655  -0.076198  0.002653  3.88776  0.003
C  C32  1  0.67292193  0.12737438  0.95378834  1  -0.11969  -0.007153  3.692536  -0.008  -0.13752  -0.003389  3.931388  -0.004  -0.143362  -0.002966  3.95147  -0.004  -0.07513  -0.134153  -0.003376  3.919799  -0.004
C  C33  1  0.32707759  0.87262942  0.04621110  1  -0.119752  0.007219  3.692637  0.008  -0.137503  0.003389  3.931479  0.004  -0.143373  0.002968  3.951538  0.004  -0.075051  -0.134138  0.003377  3.919891  0.004
C  C34  1  0.70294520  0.03726869  0.74959368  1  0.644328  -0.000468  3.89903  0.0  0.598925  -0.000754  4.200316  -0.001  0.634167  -0.000548  4.190494  -0.001  0.206861  0.575279  -0.000894  4.204577  -0.001
C  C35  1  0.29704415  0.96273609  0.25040053  1  0.64433  0.000475  3.898929  0.0  0.599056  0.000751  4.200046  0.001  0.634277  0.000547  4.190224  0.001  0.206888  0.57541  0.000894  4.204306  0.001
C  C36  1  0.70211415  0.11739675  0.07717533  1  0.117589  0.003285  3.688241  0.004  0.090582  -9.3e-05  3.942272  0.0  0.099034  0.001002  3.960105  0.002  0.043595  0.084942  -0.000828  3.93068  -0.001
C  C37  1  0.29787669  0.88260614  0.92282256  1  0.117625  -0.003346  3.688286  -0.004  0.09062  9.1e-05  3.942297  0.0  0.099069  -0.001003  3.960131  -0.002  0.043523  0.084979  0.000827  3.930714  0.001
C  C38  1  0.19952665  0.48997576  0.26547139  1  0.059173  -0.000207  3.69149  0.0  0.057677  5e-05  3.945073  0.0  0.050854  -5e-06  3.969027  0.0  0.078425  0.061917  0.000184  3.927829  0.0
C  C39  1  0.80048932  0.51004660  0.73453656  1  0.059189  0.000181  3.691647  0.0  0.057907  -4.7e-05  3.944972  0.0  0.051063  5e-06  3.968964  0.0  0.078347  0.062143  -0.000185  3.927731  0.0
C  C40  1  0.81805094  0.91215490  0.06766862  1  0.128505  0.002946  3.691664  0.003  0.100028  -9e-05  3.949822  0.001  0.108692  0.001097  3.967995  0.002  0.046871  0.094659  -0.000541  3.937347  0.0
C  C41  1  0.18193258  0.08784895  0.93232848  1  0.128457  -0.002995  3.691635  -0.003  0.100037  9.1e-05  3.949794  -0.001  0.108696  -0.001097  3.96797  -0.002  0.046813  0.094671  0.000542  3.937319  0.0
C  C42  1  0.12071057  0.60688316  0.29313807  1  -0.065236  0.000775  3.640111  0.001  -0.105655  -0.000533  3.894875  0.0  -0.099467  -0.000219  3.910922  0.0  -0.058346  -0.108214  -0.001856  3.882791  -0.002
C  C43  1  0.87931677  0.39311870  0.70685993  1  -0.065201  -0.000761  3.639215  -0.001  -0.105715  0.000532  3.893815  0.0  -0.09952  0.000221  3.909866  0.0  -0.058165  -0.108267  0.001857  3.881725  0.002
C  C44  1  0.83824225  0.73552709  0.37936644  1  0.669694  0.00443  3.833809  0.01  0.632512  -0.0015  4.122155  0.003  0.6752  -0.000676  4.114958  0.002  0.227804  0.601829  -0.002221  4.126839  0.002
C  C45  1  0.16176433  0.26447754  0.62064452  1  0.669727  -0.004418  3.83405  -0.01  0.632523  0.001499  4.122308  -0.003  0.675214  0.000677  4.115074  -0.002  0.227684  0.601839  0.002222  4.127009  -0.002
C  C46  1  0.93567760  0.61276124  0.35150048  1  -0.054364  -0.014188  3.724818  -0.015  -0.029048  -0.008828  3.960211  -0.01  -0.042281  -0.006372  3.983863  -0.008  -0.007646  -0.020211  -0.010272  3.945558  -0.012
C  C47  1  0.06435518  0.38721915  0.64849679  1  -0.054733  0.014161  3.725457  0.015  -0.029324  0.008822  3.960765  0.01  -0.042558  0.006366  3.984407  0.008  -0.007768  -0.020479  0.010265  3.946102  0.012
N  N48  1  0.77437606  0.01173569  0.13324320  1  -0.319997  -0.060739  3.348979  -0.078  -0.273858  -0.043706  3.653405  -0.06  -0.30409  -0.036129  3.674984  -0.052  -0.348132  -0.254301  -0.045461  3.639352  -0.059
N  N49  1  0.22561192  0.98826438  0.86675942  1  -0.320027  0.060797  3.349084  0.078  -0.273915  0.043715  3.653529  0.06  -0.304139  0.036138  3.675115  0.052  -0.348111  -0.254368  0.045474  3.639475  0.059
N  N50  1  0.39565467  0.48157223  0.20574529  1  0.502659  -3.5e-05  3.907194  0.0  0.534551  -2.3e-05  4.200723  0.0  0.555716  -7e-06  4.210092  0.0  0.06195  0.52008  3e-05  4.194575  0.0
N  N51  1  0.60434902  0.51843147  0.79426668  1  0.502479  4.6e-05  3.907159  0.0  0.534319  2e-05  4.200681  0.0  0.555496  8e-06  4.210038  0.0  0.061866  0.519845  -3e-05  4.194542  0.0
O  O52  1  0.68386669  0.27152033  0.46866505  1  -0.5751  0.058208  2.079628  0.079  -0.553059  0.040615  2.357209  0.06  -0.593294  0.032095  2.344629  0.05  -0.31066  -0.522886  0.041699  2.364939  0.059
O  O53  1  0.31613440  0.72848825  0.53131334  1  -0.57475  -0.058201  2.079489  -0.079  -0.552644  -0.040613  2.35718  -0.06  -0.592911  -0.032096  2.34461  -0.05  -0.310479  -0.522482  -0.041692  2.36491  -0.059
O  O54  1  0.83220109  0.18784651  0.30195018  1  -0.599495  -0.069736  2.160383  -0.094  -0.577347  -0.04796  2.455576  -0.07  -0.620516  -0.037122  2.443607  -0.057  -0.312259  -0.544056  -0.055082  2.463601  -0.078
O  O55  1  0.16779988  0.81215632  0.69805289  1  -0.599477  0.069762  2.160363  0.094  -0.577135  0.047975  2.455506  0.07  -0.620307  0.037135  2.443573  0.057  -0.312177  -0.543856  0.055098  2.46353  0.078
O  O56  1  0.68543400  0.99942471  0.47476515  1  -0.895042  -0.089984  2.087692  -0.125  -0.917002  -0.048035  2.451354  -0.072  -0.995462  -0.035546  2.418182  -0.056  -0.57694  -0.856973  -0.057369  2.474334  -0.083
O  O57  1  0.31455417  0.00057448  0.52522850  1  -0.894919  0.089964  2.087504  0.125  -0.916857  0.048037  2.451269  0.072  -0.995301  0.035556  2.418122  0.056  -0.576941  -0.856844  0.057379  2.474232  0.083
O  O58  1  0.81386661  0.96624935  0.68564525  1  -0.622124  -0.006102  2.002451  -0.008  -0.578012  -0.002195  2.245624  -0.003  -0.60364  -0.000946  2.228704  -0.001  -0.31605  -0.559457  -0.003597  2.257057  -0.005
O  O59  1  0.18613012  0.03375354  0.31434890  1  -0.622083  0.006099  2.002607  0.008  -0.577984  0.002196  2.245735  0.003  -0.603608  0.000947  2.228799  0.001  -0.316034  -0.559429  0.003596  2.257171  0.005
O  O60  1  0.57503446  0.11591618  0.71118056  1  -0.637738  -0.008442  2.014109  -0.01  -0.61097  -0.002854  2.281579  -0.003  -0.638713  -0.001846  2.266345  -0.001  -0.324623  -0.5893  -0.004029  2.290677  -0.005
O  O61  1  0.42495370  0.88408111  0.28881951  1  -0.63784  0.008437  2.013966  0.01  -0.61106  0.002854  2.281351  0.003  -0.638846  0.001847  2.266145  0.001  -0.324643  -0.589371  0.00403  2.290409  0.005
O  O62  1  0.47889571  0.58013411  0.17583963  1  -0.35266  0.000298  1.727605  0.0  -0.340681  0.000188  1.923405  0.0  -0.352302  0.000135  1.919092  0.0  -0.128933  -0.332537  0.0003  1.926597  0.0
O  O63  1  0.52110726  0.41987977  0.82418622  1  -0.352552  -0.000283  1.728027  0.0  -0.340611  -0.000192  1.923888  0.0  -0.35224  -0.000132  1.919585  0.0  -0.128845  -0.332468  -0.0003  1.92708  0.0
O  O64  1  0.46714374  0.37575100  0.18872555  1  -0.363555  -0.000301  1.736337  0.0  -0.3505  -0.000183  1.937811  0.0  -0.364093  -0.000143  1.933647  0.0  -0.1323  -0.340993  -0.00025  1.940968  0.0
O  O65  1  0.53289148  0.62426952  0.81127033  1  -0.363468  0.000278  1.73588  0.0  -0.350425  0.000186  1.937374  0.0  -0.364026  0.000136  1.933215  0.0  -0.132284  -0.340906  0.00025  1.940517  0.0
O  O66  1  0.90058484  0.83118096  0.31745632  1  -0.584949  -0.070202  2.120851  -0.096  -0.557504  -0.048719  2.40192  -0.073  -0.602443  -0.036833  2.392734  -0.058  -0.306627  -0.523387  -0.057058  2.408713  -0.082
O  O67  1  0.09944500  0.16882548  0.68255400  1  -0.585041  0.070175  2.121016  0.096  -0.557591  0.048708  2.402061  0.073  -0.602508  0.036825  2.392856  0.058  -0.306629  -0.523482  0.057048  2.408854  0.082
O  O68  1  0.70049962  0.73145873  0.46019866  1  -0.575418  -0.060249  2.090272  -0.083  -0.553896  -0.041816  2.369085  -0.063  -0.595813  -0.032218  2.3571  -0.051  -0.310257  -0.522111  -0.043354  2.376457  -0.063
O  O69  1  0.29948972  0.26854130  0.53981025  1  -0.57536  0.060246  2.090079  0.083  -0.553874  0.041816  2.368897  0.063  -0.595761  0.03222  2.356901  0.051  -0.310262  -0.522079  0.043357  2.376267  0.063
