# generated using pymatgen
data_Zn4H8C40O13F12
_symmetry_space_group_name_H-M   'P 1'
_cell_length_a   23.81676730
_cell_length_b   23.81812085
_cell_length_c   23.81662906
_cell_angle_alpha   66.55501671
_cell_angle_beta   72.48330092
_cell_angle_gamma   107.52445936
_symmetry_Int_Tables_number   1
_chemical_formula_structural   Zn4H8C40O13F12
_chemical_formula_sum   'Zn8 H16 C80 O26 F24'
_cell_volume   10362.83270842
_cell_formula_units_Z   2
loop_
 _symmetry_equiv_pos_site_id
 _symmetry_equiv_pos_as_xyz
  1  'x, y, z'
loop_
 _atom_site_type_symbol
 _atom_site_label
 _atom_site_symmetry_multiplicity
 _atom_site_fract_x
 _atom_site_fract_y
 _atom_site_fract_z
 _atom_site_occupancy
 _atom_site_pbe_bader_charge
 _atom_site_pbe_bader_spin_density
 _atom_site_pbe_cm5_charge
 _atom_site_pbe_ddec_charge
 _atom_site_pbe_ddec_spin_density
 _atom_site_pbe_ddec_sum_bond_order
 _atom_site_pbe_magmom
Zn  Zn0  1  0.05763293  0.95754575  0.48483105  1  1.320965  0  0.676821  0.96619  0  2.37649  0
Zn  Zn1  1  0.05763174  0.10008639  0.45754856  1  1.318651  0  0.67685  0.966287  0  2.376529  0
Zn  Zn2  1  0.94236165  0.98482721  0.45754048  1  1.32094  0  0.676828  0.966233  0  2.376508  0
Zn  Zn3  1  0.94237787  0.95754227  0.60008967  1  1.318652  0  0.67678  0.96617  0  2.37679  0
Zn  Zn4  1  0.94236641  0.54245321  0.01517073  1  1.321072  0  0.67688  0.966313  0  2.376411  0
Zn  Zn5  1  0.05763989  0.51517395  0.04245934  1  1.321058  0  0.676846  0.966265  0  2.376499  0
Zn  Zn6  1  0.94236758  0.39991255  0.04245642  1  1.318587  0  0.676799  0.966174  0  2.376831  0
Zn  Zn7  1  0.05761935  0.54245121  0.89991124  1  1.318796  0  0.676816  0.966189  0  2.376505  0
H  H8  1  0.92312867  0.65228231  0.11235627  1  0.140182  0  0.122444  0.157199  0  0.972769  0
H  H9  1  0.07686567  0.61234612  0.15232162  1  0.140094  0  0.122428  0.157159  0  0.972764  0
H  H10  1  0.92312951  0.88764815  0.34768453  1  0.140189  0  0.122442  0.157147  0  0.972778  0
H  H11  1  0.07681824  0.84765002  0.38771168  1  0.139734  0  0.122414  0.157108  0  0.972729  0
H  H12  1  0.07688207  0.46448925  0.77085749  1  0.146724  0  0.122445  0.157151  0  0.972869  0
H  H13  1  0.92314078  0.27081753  0.96452645  1  0.145766  0  0.122461  0.157205  0  0.972832  0
H  H14  1  0.07682043  0.22916915  0.53548491  1  0.145058  0  0.122385  0.156938  0  0.972896  0
H  H15  1  0.92312885  0.03548449  0.72917046  1  0.146012  0  0.122434  0.157199  0  0.972704  0
H  H16  1  0.73534750  0.46450645  0.11232872  1  0.140985  0  0.122407  0.157111  0  0.972815  0
H  H17  1  0.73534175  0.27082103  0.15232408  1  0.134163  0  0.122424  0.157149  0  0.972802  0
H  H18  1  0.26465737  0.22917720  0.34767200  1  0.13396  0  0.122392  0.157066  0  0.972828  0
H  H19  1  0.26465081  0.03550516  0.38760226  1  0.141437  0  0.122473  0.157174  0  0.97284  0
H  H20  1  0.26466109  0.61230980  0.96450786  1  0.14062  0  0.122419  0.157018  0  0.972977  0
H  H21  1  0.26464756  0.65231374  0.77081464  1  0.134369  0  0.122468  0.15726  0  0.972855  0
H  H22  1  0.73535521  0.84767902  0.72918405  1  0.134042  0  0.122483  0.157275  0  0.972724  0
H  H23  1  0.73533817  0.88762149  0.53550577  1  0.141199  0  0.122528  0.157258  0  0.972775  0
C  C24  1  0.18228575  0.09115218  0.40884813  1  1.554825  0  0.229651  0.603348  0  4.165354  0
C  C25  1  0.99999782  0.13706870  0.36292887  1  1.617378  0  0.231501  0.640878  0  4.157885  0
C  C26  1  0.99998857  0.90885329  0.40886541  1  1.532731  0  0.2296  0.603274  0  4.165217  0
C  C27  1  0.81771588  0.90884582  0.59115519  1  1.553868  0  0.229567  0.603269  0  4.1654  0
C  C28  1  0.00000390  0.86292731  0.63707101  1  1.617117  0  0.231659  0.641111  0  4.158159  0
C  C29  1  0.99999218  0.09113871  0.59114766  1  1.564867  0  0.229664  0.603394  0  4.16536  0
C  C30  1  0.00000302  0.59113373  0.09114890  1  1.532245  0  0.229524  0.603302  0  4.16533  0
C  C31  1  0.00000398  0.36293117  0.13707121  1  1.617426  0  0.231555  0.640855  0  4.158154  0
C  C32  1  0.81771422  0.40885267  0.09113625  1  1.554769  0  0.229594  0.603201  0  4.165677  0
C  C33  1  0.99999569  0.40884201  0.90887127  1  1.564426  0  0.229586  0.603187  0  4.165565  0
C  C34  1  0.99999772  0.63707056  0.86292977  1  1.61704  0  0.231463  0.640797  0  4.158133  0
C  C35  1  0.18228251  0.59113681  0.90884716  1  1.554031  0  0.229619  0.603219  0  4.165157  0
C  C36  1  0.00000000  0.80535688  0.69464108  1  0.061325  0  -0.020658  -0.208142  0  3.955972  0
C  C37  1  0.00000156  0.69464275  0.80535879  1  0.061558  0  -0.020637  -0.208081  0  3.955989  0
C  C38  1  0.95766215  0.77671843  0.76561257  1  0.577133  0  0.100818  0.169384  0  4.062048  0
C  C39  1  0.04233991  0.72327988  0.73438791  1  0.578017  0  0.100938  0.169492  0  4.061863  0
C  C40  1  0.95766263  0.72327443  0.81905928  1  0.574202  0  0.100934  0.169695  0  4.061826  0
C  C41  1  0.04233988  0.77672433  0.68094089  1  0.573691  0  0.100907  0.169527  0  4.061683  0
C  C42  1  0.00000007  0.19464010  0.30535891  1  0.061477  0  -0.020639  -0.208064  0  3.956061  0
C  C43  1  0.00000281  0.30536137  0.19464105  1  0.061678  0  -0.02066  -0.208052  0  3.956218  0
C  C44  1  0.95766405  0.18094394  0.27671586  1  0.572801  0  0.100874  0.169347  0  4.062177  0
C  C45  1  0.04233932  0.31905697  0.22328418  1  0.572188  0  0.100755  0.169098  0  4.062298  0
C  C46  1  0.95766568  0.23439215  0.22326978  1  0.578836  0  0.100909  0.169645  0  4.06177  0
C  C47  1  0.04233744  0.26560904  0.27673064  1  0.579432  0  0.100986  0.169768  0  4.061829  0
C  C48  1  0.00000244  0.62858790  0.12860132  1  0.007249  0  -0.009649  0.019818  0  3.997621  0
C  C49  1  0.95661274  0.65719082  0.13471168  1  0.052846  0  -0.094659  -0.241004  0  3.98085  0
C  C50  1  0.95737207  0.69168038  0.16960449  1  0.45031  0  0.114035  0.274497  0  4.038725  0
C  C51  1  0.99999060  0.69945026  0.19947934  1  0.220384  0  -0.008818  -0.073528  0  4.124808  0
C  C52  1  0.04261566  0.66958925  0.19171121  1  0.450044  0  0.113951  0.274107  0  4.038679  0
C  C53  1  0.04338160  0.63469843  0.15721960  1  0.053319  0  -0.094627  -0.240814  0  3.980964  0
C  C54  1  0.99998640  0.73468315  0.23472031  1  -0.238347  0  -0.030135  -0.050579  0  4.124091  0
C  C55  1  0.99998318  0.76527635  0.26532018  1  -0.029272  0  -0.030076  -0.050362  0  4.124054  0
C  C56  1  0.99997617  0.80051060  0.30055977  1  0.211585  0  -0.008722  -0.073542  0  4.124926  0
C  C57  1  0.95736724  0.83039167  0.30830856  1  0.450477  0  0.113942  0.274122  0  4.038633  0
C  C58  1  0.95660507  0.86528575  0.34279607  1  0.053102  0  -0.094665  -0.240907  0  3.980516  0
C  C59  1  0.99997952  0.87138842  0.37142350  1  0.006495  0  -0.009685  0.020137  0  3.997099  0
C  C60  1  0.04334847  0.84276106  0.36533538  1  0.054294  0  -0.094592  -0.240971  0  3.980745  0
C  C61  1  0.04258885  0.80827279  0.33044215  1  0.459492  0  0.113906  0.274165  0  4.038629  0
C  C62  1  0.00000442  0.37138579  0.87142118  1  0.017919  0  -0.009643  0.019729  0  3.997734  0
C  C63  1  0.04339609  0.40865587  0.79942989  1  0.042823  0  -0.094786  -0.24096  0  3.980818  0
C  C64  1  0.04263319  0.37300495  0.76570002  1  0.448931  0  0.11407  0.274286  0  4.038711  0
C  C65  1  0.00000701  0.30051914  0.80054955  1  0.209987  0  -0.008719  -0.073344  0  4.125146  0
C  C66  1  0.95738527  0.26567053  0.87303457  1  0.44876  0  0.113928  0.27398  0  4.038923  0
C  C67  1  0.95662422  0.29939591  0.90869071  1  0.04253  0  -0.094664  -0.240721  0  3.981059  0
C  C68  1  0.99999789  0.26528574  0.76530967  1  -0.237568  0  -0.030241  -0.050594  0  4.124425  0
C  C69  1  0.99998925  0.23469582  0.73470830  1  -0.030189  0  -0.030034  -0.050587  0  4.124281  0
C  C70  1  0.99998011  0.19946317  0.69946790  1  0.210193  0  -0.00866  -0.0731  0  4.124489  0
C  C71  1  0.04259195  0.23431755  0.62697812  1  0.448865  0  0.113935  0.274111  0  4.038701  0
C  C72  1  0.04334992  0.20058909  0.59132455  1  0.043455  0  -0.09459  -0.240702  0  3.980643  0
C  C73  1  0.99997987  0.12859316  0.62859846  1  0.017966  0  -0.009768  0.019966  0  3.997331  0
C  C74  1  0.95660459  0.09132120  0.70059185  1  0.043056  0  -0.094732  -0.241082  0  3.980788  0
C  C75  1  0.95736784  0.12697456  0.73431939  1  0.448301  0  0.11395  0.274096  0  4.038632  0
C  C76  1  0.74280815  0.37139594  0.12859172  1  -0.009898  0  -0.009784  0.019898  0  3.997407  0
C  C77  1  0.70808724  0.40867065  0.13469306  1  0.048079  0  -0.094656  -0.240992  0  3.980833  0
C  C78  1  0.63870527  0.37301828  0.16958375  1  0.454699  0  0.114073  0.274308  0  4.038548  0
C  C79  1  0.60106851  0.30053000  0.19946093  1  0.223075  0  -0.008721  -0.073172  0  4.12486  0
C  C80  1  0.63870375  0.26567620  0.19170597  1  0.399571  0  0.113965  0.274114  0  4.038705  0
C  C81  1  0.70808547  0.29940229  0.15721624  1  0.124745  0  -0.094656  -0.240875  0  3.980884  0
C  C82  1  0.53059616  0.26529672  0.23468931  1  -0.313516  0  -0.030216  -0.050933  0  4.124269  0
C  C83  1  0.46940310  0.23470901  0.26527479  1  0.003926  0  -0.030049  -0.050244  0  4.12409  0
C  C84  1  0.39893006  0.19947557  0.30050050  1  0.223268  0  -0.008501  -0.073268  0  4.12486  0
C  C85  1  0.36129504  0.23432433  0.30827671  1  0.399678  0  0.113842  0.274019  0  4.038794  0
C  C86  1  0.29191356  0.20059797  0.34276604  1  0.124765  0  -0.094588  -0.2407  0  3.98086  0
C  C87  1  0.25719139  0.12860850  0.37137658  1  -0.010128  0  -0.009621  0.019849  0  3.997354  0
C  C88  1  0.29191213  0.09133781  0.36525522  1  0.047905  0  -0.094885  -0.241066  0  3.980543  0
C  C89  1  0.36129277  0.12698886  0.33036462  1  0.454047  0  0.114003  0.274275  0  4.038479  0
C  C90  1  0.25718843  0.62858138  0.87139404  1  -0.00954  0  -0.009777  0.020108  0  3.997124  0
C  C91  1  0.29191562  0.63467953  0.90866854  1  0.048533  0  -0.094639  -0.24087  0  3.980876  0
C  C92  1  0.36129795  0.66957133  0.87301505  1  0.454223  0  0.113968  0.274172  0  4.038738  0
C  C93  1  0.39892976  0.69944535  0.80052594  1  0.223821  0  -0.008685  -0.073338  0  4.124826  0
C  C94  1  0.36128857  0.69169172  0.76567202  1  0.399527  0  0.114023  0.274299  0  4.038583  0
C  C95  1  0.29190562  0.65720503  0.79939817  1  0.123784  0  -0.094791  -0.241202  0  3.980756  0
C  C96  1  0.46940394  0.73468412  0.76529441  1  -0.313386  0  -0.030182  -0.05079  0  4.124137  0
C  C97  1  0.53059594  0.76527494  0.73471600  1  0.004503  0  -0.03007  -0.050191  0  4.124096  0
C  C98  1  0.60106968  0.80051327  0.69948267  1  0.222816  0  -0.008648  -0.073582  0  4.125143  0
C  C99  1  0.63871223  0.80828811  0.73433197  1  0.399425  0  0.114031  0.274331  0  4.038803  0
C  C100  1  0.70809349  0.84277676  0.70060513  1  0.124015  0  -0.094866  -0.241109  0  3.980971  0
C  C101  1  0.74280956  0.87138937  0.62861146  1  -0.010137  0  -0.009636  0.019812  0  3.997548  0
C  C102  1  0.70808233  0.86527133  0.59134108  1  0.048625  0  -0.094731  -0.241059  0  3.980539  0
C  C103  1  0.63870131  0.83038085  0.62699449  1  0.454437  0  0.113964  0.274404  0  4.038603  0
O  O104  1  0.00000005  0.00000072  0.49999996  1  -1.233289  0  -0.571685  -1.03506  0  2.536251  0
O  O105  1  0.15336360  0.02573124  0.43343399  1  -1.165479  0  -0.312045  -0.540617  0  2.337712  0
O  O106  1  0.04035064  0.15565230  0.38469635  1  -1.153979  0  -0.309226  -0.53511  0  2.360547  0
O  O107  1  0.95914676  0.93343722  0.41320019  1  -1.163394  0  -0.31213  -0.540704  0  2.337547  0
O  O108  1  0.15336436  0.12764940  0.41320399  1  -1.163347  0  -0.312086  -0.540615  0  2.337778  0
O  O109  1  0.04083668  0.91320506  0.43343944  1  -1.163506  0  -0.311975  -0.540543  0  2.338004  0
O  O110  1  0.95964208  0.07495626  0.38469439  1  -1.157723  0  -0.309133  -0.535037  0  2.360686  0
O  O111  1  0.84663256  0.93342454  0.52573737  1  -1.165253  0  -0.312096  -0.54059  0  2.33799  0
O  O112  1  0.95965704  0.88469440  0.65565725  1  -1.153839  0  -0.30923  -0.535131  0  2.360591  0
O  O113  1  0.84664275  0.91319080  0.62765943  1  -1.162429  0  -0.312027  -0.540589  0  2.33743  0
O  O114  1  0.04035235  0.88469345  0.57495883  1  -1.157601  0  -0.30924  -0.535156  0  2.360748  0
O  O115  1  0.04083659  0.12763725  0.52572867  1  -1.178634  0  -0.312022  -0.540609  0  2.337897  0
O  O116  1  0.95915880  0.02571342  0.62764944  1  -1.179029  0  -0.312148  -0.540766  0  2.337735  0
O  O117  1  0.00000042  0.49999858  0.00000094  1  -1.233327  0  -0.571696  -1.035114  0  2.536287  0
O  O118  1  0.95915570  0.58678484  0.06657139  1  -1.163318  0  -0.312031  -0.540662  0  2.337846  0
O  O119  1  0.04035856  0.42504401  0.11530631  1  -1.157737  0  -0.309141  -0.535032  0  2.3607  0
O  O120  1  0.84663648  0.37235159  0.08679384  1  -1.163273  0  -0.312063  -0.540604  0  2.337874  0
O  O121  1  0.04084950  0.56655865  0.08680584  1  -1.163086  0  -0.312052  -0.540618  0  2.337702  0
O  O122  1  0.84663466  0.47427085  0.06655452  1  -1.165653  0  -0.312045  -0.540548  0  2.337957  0
O  O123  1  0.95965004  0.34434697  0.11530599  1  -1.153905  0  -0.309268  -0.535064  0  2.360734  0
O  O124  1  0.95914921  0.37234374  0.97429180  1  -1.17889  0  -0.312036  -0.540536  0  2.33778  0
O  O125  1  0.04034150  0.61530039  0.84434358  1  -1.154053  0  -0.309167  -0.535057  0  2.360509  0
O  O126  1  0.04083067  0.47426237  0.87237031  1  -1.178337  0  -0.312071  -0.540526  0  2.337808  0
O  O127  1  0.95965055  0.61530674  0.92504190  1  -1.157356  0  -0.309131  -0.534988  0  2.360709  0
O  O128  1  0.15336673  0.56656369  0.97426458  1  -1.165517  0  -0.312016  -0.540586  0  2.337843  0
O  O129  1  0.15335469  0.58679767  0.87234340  1  -1.162753  0  -0.312086  -0.540615  0  2.337494  0
F  F130  1  0.91476545  0.79932085  0.78589838  1  -0.605149  0  -0.082916  -0.094355  0  1.398409  0
F  F131  1  0.08523573  0.70067658  0.71410229  1  -0.604565  0  -0.082932  -0.094347  0  1.3983  0
F  F132  1  0.91476781  0.70066476  0.88455813  1  -0.602481  0  -0.082936  -0.094451  0  1.398296  0
F  F133  1  0.08523401  0.79933383  0.61544189  1  -0.602592  0  -0.082963  -0.094394  0  1.398209  0
F  F134  1  0.91477096  0.11544788  0.29931402  1  -0.602971  0  -0.082933  -0.094306  0  1.398395  0
F  F135  1  0.08523192  0.38455359  0.20068552  1  -0.602907  0  -0.082927  -0.094256  0  1.398337  0
F  F136  1  0.91477228  0.21410921  0.20065654  1  -0.604825  0  -0.082894  -0.094418  0  1.398246  0
F  F137  1  0.08523041  0.28589154  0.29934418  1  -0.604662  0  -0.082931  -0.094437  0  1.398296  0
F  F138  1  0.08421433  0.67595064  0.21962951  1  -0.626638  0  -0.094242  -0.131363  0  1.321535  0
F  F139  1  0.91577037  0.71959041  0.17596039  1  -0.626348  0  -0.094289  -0.131503  0  1.321482  0
F  F140  1  0.08417528  0.78034433  0.32410279  1  -0.626927  0  -0.094257  -0.131378  0  1.321254  0
F  F141  1  0.91578081  0.82404463  0.28037542  1  -0.626979  0  -0.094244  -0.131374  0  1.32171  0
F  F142  1  0.91578266  0.19616034  0.90827025  1  -0.621874  0  -0.094262  -0.131369  0  1.321484  0
F  F143  1  0.08423080  0.40824352  0.69618845  1  -0.6218  0  -0.094293  -0.131427  0  1.321553  0
F  F144  1  0.91578151  0.09173528  0.80383288  1  -0.621635  0  -0.094206  -0.131366  0  1.321648  0
F  F145  1  0.08418158  0.30383042  0.59173857  1  -0.621522  0  -0.094238  -0.131407  0  1.321515  0
F  F146  1  0.60442723  0.19616220  0.21963180  1  -0.628149  0  -0.094211  -0.131347  0  1.321407  0
F  F147  1  0.60443433  0.40826182  0.17592932  1  -0.625951  0  -0.094292  -0.131426  0  1.321288  0
F  F148  1  0.39556622  0.09175099  0.32400512  1  -0.625535  0  -0.094369  -0.131506  0  1.3215  0
F  F149  1  0.39557076  0.30383544  0.28036569  1  -0.62806  0  -0.094282  -0.131414  0  1.321414  0
F  F150  1  0.39555796  0.71961760  0.69615754  1  -0.628084  0  -0.094273  -0.131444  0  1.32159  0
F  F151  1  0.39557385  0.67591844  0.90825945  1  -0.626048  0  -0.094285  -0.131424  0  1.321346  0
F  F152  1  0.60442438  0.82402069  0.59175432  1  -0.625688  0  -0.094274  -0.131443  0  1.321663  0
F  F153  1  0.60444348  0.78037383  0.80384458  1  -0.628085  0  -0.094308  -0.131481  0  1.321424  0
