# generated using pymatgen
data_CuH7C7N3ClO
_symmetry_space_group_name_H-M   'P 1'
_cell_length_a   7.02377647
_cell_length_b   11.23345936
_cell_length_c   11.42295141
_cell_angle_alpha   69.96108858
_cell_angle_beta   87.07458163
_cell_angle_gamma   86.18418449
_symmetry_Int_Tables_number   1
_chemical_formula_structural   CuH7C7N3ClO
_chemical_formula_sum   'Cu4 H28 C28 N12 Cl4 O4'
_cell_volume   844.46173214
_cell_formula_units_Z   4
loop_
 _symmetry_equiv_pos_site_id
 _symmetry_equiv_pos_as_xyz
  1  'x, y, z'
loop_
 _atom_site_type_symbol
 _atom_site_label
 _atom_site_symmetry_multiplicity
 _atom_site_fract_x
 _atom_site_fract_y
 _atom_site_fract_z
 _atom_site_occupancy
 _atom_site_hle17_bader_spin_density
 _atom_site_hle17_ddec_charge
 _atom_site_hle17_ddec_spin_density
 _atom_site_hle17_ddec_sum_bond_order
 _atom_site_hle17_magmom
 _atom_site_hse06_10hf_bader_spin_density
 _atom_site_hse06_10hf_ddec_charge
 _atom_site_hse06_10hf_ddec_spin_density
 _atom_site_hse06_10hf_ddec_sum_bond_order
 _atom_site_hse06_10hf_magmom
 _atom_site_hse06_bader_spin_density
 _atom_site_hse06_ddec_charge
 _atom_site_hse06_ddec_spin_density
 _atom_site_hse06_ddec_sum_bond_order
 _atom_site_hse06_magmom
 _atom_site_pbe_bader_spin_density
 _atom_site_pbe_cm5_charge
 _atom_site_pbe_ddec_charge
 _atom_site_pbe_ddec_spin_density
 _atom_site_pbe_ddec_sum_bond_order
 _atom_site_pbe_magmom
Cu  Cu0  1  0.82892561  0.91710775  0.37303628  1  0  0.720867  0  1.950359  0  0  0.658655  0  2.378679  0  0  0.676252  0  2.334972  0  0  0.630634  0.6481  0  2.408559  0
Cu  Cu1  1  0.17108387  0.08290033  0.62695199  1  0  0.720773  0  1.950324  0  0  0.658397  0  2.378618  0  0  0.676281  0  2.334814  0  0  0.630581  0.648109  0  2.408371  0
Cu  Cu2  1  0.36126376  0.83311060  0.53688824  1  0  0.740263  0  1.925176  0  0  0.671379  0  2.359716  0  0  0.693501  0  2.314142  0  0  0.638621  0.658507  0  2.391086  0
Cu  Cu3  1  0.63874474  0.16688697  0.46312106  1  0  0.740132  0  1.925014  0  0  0.671052  0  2.359655  0  0  0.693385  0  2.313974  0  0  0.638529  0.658362  0  2.390911  0
H  H4  1  0.99958782  0.70965909  0.27083502  1  0  0.081663  0  0.96301  0  0  0.089601  0  1.027932  0  0  0.091853  0  1.025897  0  0  0.109037  0.087808  0  1.029551  0
H  H5  1  0.00043646  0.29033950  0.72916660  1  0  0.08172  0  0.962848  0  0  0.089637  0  1.0278  0  0  0.091887  0  1.025764  0  0  0.109059  0.087847  0  1.02941  0
H  H6  1  0.98184143  0.67313309  0.06492851  1  0  0.106493  0  0.970944  0  0  0.114355  0  1.036288  0  0  0.117725  0  1.035373  0  0  0.106442  0.111853  0  1.037241  0
H  H7  1  0.01818250  0.32686930  0.93507273  1  0  0.106544  0  0.970985  0  0  0.114481  0  1.036232  0  0  0.117849  0  1.035317  0  0  0.106502  0.111979  0  1.037185  0
H  H8  1  0.81566538  0.84026072  0.88982437  1  0  0.100722  0  0.934657  0  0  0.115936  0  0.988766  0  0  0.117406  0  0.988004  0  0  0.111892  0.114717  0  0.989473  0
H  H9  1  0.18433782  0.15973305  0.11018368  1  0  0.100678  0  0.934861  0  0  0.115931  0  0.988942  0  0  0.117391  0  0.988177  0  0  0.111941  0.114715  0  0.989641  0
H  H10  1  0.68952998  0.04237004  0.92029919  1  0  0.119895  0  0.938928  0  0  0.12649  0  1.005556  0  0  0.129644  0  1.004855  0  0  0.108001  0.124099  0  1.006343  0
H  H11  1  0.31046814  0.95761803  0.07970562  1  0  0.119963  0  0.938841  0  0  0.126498  0  1.005537  0  0  0.129681  0  1.004804  0  0  0.107996  0.124108  0  1.006327  0
H  H12  1  0.37346728  0.37057290  0.52331279  1  0  0.083233  0  0.971391  0  0  0.089129  0  1.037465  0  0  0.091346  0  1.035834  0  0  0.10545  0.087385  0  1.03883  0
H  H13  1  0.62652480  0.62943700  0.47668050  1  0  0.083184  0  0.971378  0  0  0.089109  0  1.037434  0  0  0.091329  0  1.035795  0  0  0.105418  0.08736  0  1.038806  0
H  H14  1  0.25696523  0.59484870  0.40441600  1  0  0.112561  0  0.965999  0  0  0.119675  0  1.030436  0  0  0.122734  0  1.029642  0  0  0.098768  0.117373  0  1.031243  0
H  H15  1  0.74303545  0.40516123  0.59557534  1  0  0.112572  0  0.966035  0  0  0.119668  0  1.030478  0  0  0.122725  0  1.029678  0  0  0.09877  0.117364  0  1.031282  0
H  H16  1  0.35902633  0.69004470  0.17842974  1  0  0.097517  0  0.947374  0  0  0.104318  0  1.013755  0  0  0.107133  0  1.011583  0  0  0.104486  0.102231  0  1.015353  0
H  H17  1  0.64096903  0.30996239  0.82155741  1  0  0.09745  0  0.947475  0  0  0.104306  0  1.013785  0  0  0.107123  0  1.011611  0  0  0.104517  0.102215  0  1.015384  0
H  H18  1  0.55325805  0.55459475  0.07809486  1  0  0.114704  0  0.972312  0  0  0.115792  0  1.048027  0  0  0.120059  0  1.045285  0  0  0.107077  0.112741  0  1.05009  0
H  H19  1  0.44673375  0.44540186  0.92190287  1  0  0.114698  0  0.972244  0  0  0.115802  0  1.047944  0  0  0.12007  0  1.045202  0  0  0.107097  0.112741  0  1.050013  0
H  H20  1  0.73883673  0.97019510  0.68884332  1  0  0.081587  0  0.995895  0  0  0.096287  0  1.066065  0  0  0.097469  0  1.06567  0  0  0.075691  0.09548  0  1.066327  0
H  H21  1  0.26116112  0.02981964  0.31112985  1  0  0.081586  0  0.995833  0  0  0.096233  0  1.066091  0  0  0.097419  0  1.065677  0  0  0.07561  0.095424  0  1.066361  0
H  H22  1  0.71340021  0.82745341  0.65686427  1  0  0.061716  0  0.9751  0  0  0.07057  0  1.058509  0  0  0.072575  0  1.056694  0  0  0.072877  0.069214  0  1.059815  0
H  H23  1  0.28659975  0.17254414  0.34314522  1  0  0.061722  0  0.975129  0  0  0.070581  0  1.058536  0  0  0.072581  0  1.056724  0  0  0.072897  0.06922  0  1.05984  0
H  H24  1  0.94240365  0.89304060  0.63864778  1  0  0.064055  0  1.008421  0  0  0.072153  0  1.091177  0  0  0.074359  0  1.088456  0  0  0.074805  0.070599  0  1.093187  0
H  H25  1  0.05759958  0.10695221  0.36136234  1  0  0.063978  0  1.008568  0  0  0.072142  0  1.091283  0  0  0.074356  0  1.08854  0  0  0.074801  0.07059  0  1.093285  0
H  H26  1  0.09847799  0.42175463  0.11651899  1  0  0.098461  0  0.927998  0  0  0.117443  0  0.989724  0  0  0.118292  0  0.989031  0  0  0.102651  0.116776  0  0.990241  0
H  H27  1  0.90151810  0.57823912  0.88348835  1  0  0.098445  0  0.928094  0  0  0.117411  0  0.989834  0  0  0.118261  0  0.989141  0  0  0.102628  0.116745  0  0.990352  0
H  H28  1  0.02369862  0.31958836  0.26866648  1  0  0.091797  0  0.987839  0  0  0.107882  0  1.055526  0  0  0.107605  0  1.057017  0  0  0.088363  0.107953  0  1.054568  0
H  H29  1  0.97628571  0.68040818  0.73134456  1  0  0.091825  0  0.987782  0  0  0.107888  0  1.055466  0  0  0.10761  0  1.056957  0  0  0.088336  0.10796  0  1.054512  0
H  H30  1  0.92014541  0.47713463  0.20695672  1  0  0.076693  0  0.949997  0  0  0.093548  0  1.016877  0  0  0.093915  0  1.017203  0  0  0.09112  0.093268  0  1.016669  0
H  H31  1  0.07984326  0.52286385  0.79304483  1  0  0.076767  0  0.949943  0  0  0.093598  0  1.016837  0  0  0.093967  0  1.017164  0  0  0.09113  0.093322  0  1.016626  0
C  C32  1  0.71993755  0.09362493  0.13898406  1  0  0.153309  0  3.811093  0  0  0.125535  0  4.097334  0  0  0.126607  0  4.114737  0  0  0.200759  0.124272  0  4.086211  0
C  C33  1  0.28006146  0.90636883  0.86102059  1  0  0.153536  0  3.811154  0  0  0.125685  0  4.097471  0  0  0.126767  0  4.114876  0  0  0.20082  0.124421  0  4.086347  0
C  C34  1  0.67022880  0.30464755  0.19144537  1  0  0.357179  0  3.743153  0  0  0.330399  0  4.001535  0  0  0.34338  0  4.009469  0  0  0.250768  0.321855  0  3.99625  0
C  C35  1  0.32976454  0.69534716  0.80855470  1  0  0.357202  0  3.743296  0  0  0.33037  0  4.001732  0  0  0.343354  0  4.009651  0  0  0.250693  0.321808  0  3.996491  0
C  C36  1  0.78342899  0.98088297  0.10978581  1  0  0.164917  0  3.812434  0  0  0.165241  0  4.052288  0  0  0.172628  0  4.074096  0  0  0.116968  0.160459  0  4.037841  0
C  C37  1  0.21656275  0.01911171  0.89022132  1  0  0.164844  0  3.812494  0  0  0.165179  0  4.052327  0  0  0.172564  0  4.074151  0  0  0.116944  0.160401  0  4.037894  0
C  C38  1  0.93476071  0.78003957  0.18940894  1  0  0.138144  0  3.700006  0  0  0.110373  0  3.949702  0  0  0.118249  0  3.966993  0  0  0.046257  0.105183  0  3.938484  0
C  C39  1  0.06525249  0.21995519  0.81059420  1  0  0.138081  0  3.700105  0  0  0.110302  0  3.949844  0  0  0.118181  0  3.967144  0  0  0.046197  0.105116  0  3.938627  0
C  C40  1  0.92081959  0.76005852  0.07656281  1  0  -0.128531  0  3.720832  0  0  -0.146947  0  3.980653  0  0  -0.154603  0  4.001121  0  0  -0.089451  -0.142231  0  3.967372  0
C  C41  1  0.07919167  0.23994385  0.92343258  1  0  -0.128654  0  3.720862  0  0  -0.147138  0  3.980685  0  0  -0.154791  0  4.001144  0  0  -0.089496  -0.142418  0  3.967397  0
C  C42  1  0.83068347  0.85438156  0.97845008  1  0  0.019473  0  3.702857  0  0  -0.004222  0  3.962879  0  0  0.001927  0  3.979321  0  0  -0.063141  -0.008203  0  3.951946  0
C  C43  1  0.16932591  0.14562266  0.02155612  1  0  0.019548  0  3.70273  0  0  -0.004213  0  3.962812  0  0  0.001949  0  3.979245  0  0  -0.063242  -0.008192  0  3.951875  0
C  C44  1  0.76076928  0.96665397  0.99461144  1  0  -0.129489  0  3.682756  0  0  -0.153511  0  3.939404  0  0  -0.161175  0  3.960272  0  0  -0.079142  -0.148698  0  3.925738  0
C  C45  1  0.23923368  0.03334361  0.00539185  1  0  -0.129615  0  3.682736  0  0  -0.153534  0  3.939283  0  0  -0.161224  0  3.960135  0  0  -0.07911  -0.148722  0  3.925622  0
C  C46  1  0.56615766  0.39392946  0.24926129  1  0  0.130019  0  3.73528  0  0  0.129033  0  3.973594  0  0  0.134659  0  3.993282  0  0  0.115018  0.125273  0  3.960528  0
C  C47  1  0.43382861  0.60606428  0.75074014  1  0  0.130017  0  3.735682  0  0  0.129027  0  3.973978  0  0  0.134652  0  3.993669  0  0  0.115037  0.12527  0  3.960899  0
C  C48  1  0.40862616  0.41603531  0.42479631  1  0  0.144004  0  3.682181  0  0  0.116154  0  3.930423  0  0  0.123228  0  3.948429  0  0  0.048256  0.111405  0  3.918724  0
C  C49  1  0.59137087  0.58396702  0.57519853  1  0  0.144111  0  3.682066  0  0  0.116225  0  3.930269  0  0  0.123299  0  3.948272  0  0  0.048282  0.111479  0  3.918568  0
C  C50  1  0.34523393  0.53985073  0.35780795  1  0  -0.110696  0  3.70166  0  0  -0.119796  0  3.942755  0  0  -0.127361  0  3.964364  0  0  -0.080143  -0.115005  0  3.928555  0
C  C51  1  0.65476106  0.46015823  0.64218647  1  0  -0.110763  0  3.701999  0  0  -0.119859  0  3.943139  0  0  -0.127418  0  3.964738  0  0  -0.080226  -0.115068  0  3.928931  0
C  C52  1  0.40061372  0.59209236  0.23251542  1  0  0.01184  0  3.69326  0  0  -0.004318  0  3.936265  0  0  -4.9e-05  0  3.954618  0  0  -0.062558  -0.006984  0  3.923879  0
C  C53  1  0.59939609  0.40791000  0.76748087  1  0  0.011974  0  3.693109  0  0  -0.004225  0  3.936125  0  0  5.3e-05  0  3.954464  0  0  -0.062495  -0.006895  0  3.923755  0
C  C54  1  0.51158204  0.51743346  0.17668631  1  0  -0.129939  0  3.697705  0  0  -0.14989  0  3.944821  0  0  -0.156741  0  3.964997  0  0  -0.081663  -0.145512  0  3.931377  0
C  C55  1  0.48841341  0.48257076  0.82330792  1  0  -0.129948  0  3.697617  0  0  -0.149941  0  3.944805  0  0  -0.156795  0  3.964976  0  0  -0.081763  -0.145558  0  3.931366  0
C  C56  1  0.78871350  0.91641985  0.62815260  1  0  -0.074558  0  3.745955  0  0  -0.166975  0  4.029114  0  0  -0.160662  0  4.028949  0  0  -0.197983  -0.171221  0  4.029231  0
C  C57  1  0.21129391  0.08357777  0.37184358  1  0  -0.074554  0  3.745999  0  0  -0.167016  0  4.029125  0  0  -0.160717  0  4.029007  0  0  -0.197978  -0.17126  0  4.02925  0
C  C58  1  0.97748193  0.39452894  0.18298112  1  0  -0.076744  0  3.605206  0  0  -0.170784  0  3.864939  0  0  -0.164483  0  3.869573  0  0  -0.152743  -0.174837  0  3.861409  0
C  C59  1  0.02251109  0.60546764  0.81702447  1  0  -0.076742  0  3.605172  0  0  -0.170762  0  3.864935  0  0  -0.164463  0  3.869555  0  0  -0.152654  -0.174812  0  3.861408  0
N  N60  1  0.70586045  0.18378650  0.29020029  1  0  -0.237717  0  3.236823  0  0  -0.199557  0  3.543383  0  0  -0.213089  0  3.554457  0  0  -0.234861  -0.192551  0  3.538221  0
N  N61  1  0.29414287  0.81621017  0.70979279  1  0  -0.237688  0  3.236332  0  0  -0.199569  0  3.542973  0  0  -0.21313  0  3.554068  0  0  -0.234912  -0.192569  0  3.537825  0
N  N62  1  0.74907958  0.08850318  0.25647598  1  0  -0.111356  0  3.442466  0  0  -0.073831  0  3.739168  0  0  -0.071663  0  3.749333  0  0  -0.21033  -0.076052  0  3.734114  0
N  N63  1  0.25091574  0.91150006  0.74352647  1  0  -0.111537  0  3.442103  0  0  -0.073989  0  3.738852  0  0  -0.07183  0  3.749036  0  0  -0.210309  -0.076206  0  3.73378  0
N  N64  1  0.59655462  0.18533571  0.07040135  1  0  -0.11063  0  3.128071  0  0  -0.088791  0  3.421566  0  0  -0.091234  0  3.435025  0  0  -0.139505  -0.086357  0  3.411936  0
N  N65  1  0.40344816  0.81466472  0.92959837  1  0  -0.110691  0  3.128097  0  0  -0.088839  0  3.421613  0  0  -0.091284  0  3.435071  0  0  -0.139535  -0.086409  0  3.411988  0
N  N66  1  0.54415341  0.28163855  0.10148005  1  0  -0.209587  0  2.807512  0  0  -0.201034  0  3.100676  0  0  -0.204586  0  3.109671  0  0  -0.154417  -0.198733  0  3.094347  0
N  N67  1  0.45584562  0.71835810  0.89851313  1  0  -0.209621  0  2.807344  0  0  -0.201045  0  3.100512  0  0  -0.204605  0  3.109506  0  0  -0.154435  -0.19875  0  3.094196  0
N  N68  1  0.86811170  0.88808831  0.20557147  1  0  -0.334481  0  3.333538  0  0  -0.276315  0  3.60505  0  0  -0.293328  0  3.619901  0  0  -0.342734  -0.265666  0  3.595637  0
N  N69  1  0.13189171  0.11190452  0.79443164  1  0  -0.3344  0  3.333526  0  0  -0.276208  0  3.604963  0  0  -0.293227  0  3.619844  0  0  -0.342676  -0.265572  0  3.595572  0
N  N70  1  0.51954246  0.34510782  0.37176788  1  0  -0.320424  0  3.31823  0  0  -0.263206  0  3.597026  0  0  -0.279113  0  3.610352  0  0  -0.336391  -0.253264  0  3.588897  0
N  N71  1  0.48044302  0.65489445  0.62823335  1  0  -0.320505  0  3.318177  0  0  -0.263213  0  3.596902  0  0  -0.27914  0  3.610234  0  0  -0.336353  -0.253276  0  3.588773  0
Cl  Cl72  1  0.46858354  0.84199953  0.34799751  1  0  -0.523027  0  1.108759  0  0  -0.49358  0  1.419933  0  0  -0.506162  0  1.39503  0  0  -0.28333  -0.48413  0  1.436961  0
Cl  Cl73  1  0.53140338  0.15799891  0.65201723  1  0  -0.522999  0  1.108615  0  0  -0.49353  0  1.419758  0  0  -0.506134  0  1.394846  0  0  -0.283337  -0.484108  0  1.436805  0
Cl  Cl74  1  0.99405127  0.74349376  0.48657076  1  0  -0.537347  0  1.033571  0  0  -0.511129  0  1.335732  0  0  -0.523378  0  1.309766  0  0  -0.293623  -0.501987  0  1.353521  0
Cl  Cl75  1  0.00592786  0.25651704  0.51342427  1  0  -0.537352  0  1.033483  0  0  -0.511132  0  1.335626  0  0  -0.523411  0  1.309662  0  0  -0.293612  -0.502011  0  1.35341  0
O  O76  1  0.75050409  0.99179038  0.50196766  1  0  -0.521093  0  2.190711  0  0  -0.466035  0  2.535058  0  0  -0.476862  0  2.513146  0  0  -0.394368  -0.458552  0  2.550486  0
O  O77  1  0.24951003  0.00821104  0.49803061  1  0  -0.521055  0  2.190768  0  0  -0.465908  0  2.534895  0  0  -0.476757  0  2.513011  0  0  -0.394333  -0.458452  0  2.550357  0
O  O78  1  0.83728712  0.35165177  0.12032592  1  0  -0.315318  0  2.228925  0  0  -0.24971  0  2.473273  0  0  -0.267931  0  2.476234  0  0  -0.207451  -0.236417  0  2.470429  0
O  O79  1  0.16271195  0.64834104  0.87967992  1  0  -0.315403  0  2.229146  0  0  -0.249724  0  2.47345  0  0  -0.267933  0  2.476399  0  0  -0.207424  -0.236428  0  2.470609  0
