# generated using pymatgen
data_FeH24C34S2(N7O)2
_symmetry_space_group_name_H-M   'P 1'
_cell_length_a   9.24869886
_cell_length_b   9.04948916
_cell_length_c   11.54055401
_cell_angle_alpha   101.85887134
_cell_angle_beta   101.24794234
_cell_angle_gamma   103.01811650
_symmetry_Int_Tables_number   1
_chemical_formula_structural   FeH24C34S2(N7O)2
_chemical_formula_sum   'Fe1 H24 C34 S2 N14 O2'
_cell_volume   890.99710786
_cell_formula_units_Z   1
loop_
 _symmetry_equiv_pos_site_id
 _symmetry_equiv_pos_as_xyz
  1  'x, y, z'
loop_
 _atom_site_type_symbol
 _atom_site_label
 _atom_site_symmetry_multiplicity
 _atom_site_fract_x
 _atom_site_fract_y
 _atom_site_fract_z
 _atom_site_occupancy
 _atom_site_hle17_bader_spin_density
 _atom_site_hle17_ddec_charge
 _atom_site_hle17_ddec_spin_density
 _atom_site_hle17_ddec_sum_bond_order
 _atom_site_hle17_magmom
 _atom_site_hse06_10hf_bader_spin_density
 _atom_site_hse06_10hf_ddec_charge
 _atom_site_hse06_10hf_ddec_spin_density
 _atom_site_hse06_10hf_ddec_sum_bond_order
 _atom_site_hse06_10hf_magmom
 _atom_site_hse06_bader_spin_density
 _atom_site_hse06_ddec_charge
 _atom_site_hse06_ddec_spin_density
 _atom_site_hse06_ddec_sum_bond_order
 _atom_site_hse06_magmom
 _atom_site_pbe_bader_spin_density
 _atom_site_pbe_cm5_charge
 _atom_site_pbe_ddec_charge
 _atom_site_pbe_ddec_spin_density
 _atom_site_pbe_ddec_sum_bond_order
 _atom_site_pbe_magmom
Fe  Fe0  1  0.01785507  0.01318605  0.49977227  1  0  0.572383  0  3.060687  0  0  0.533453  0  3.556225  0  0  0.587263  0  3.491764  0  0  0.727987  0.503714  0  3.594225  0
H  H1  1  0.03005861  0.65521522  0.51546715  1  0  0.099356  0  0.9269  0  0  0.110197  0  0.985466  0  0  0.111395  0  0.98397  0  0  0.140028  0.1092  0  0.986686  0
H  H2  1  0.97047778  0.36420899  0.48389135  1  0  0.097244  0  0.928598  0  0  0.107457  0  0.98935  0  0  0.108628  0  0.987817  0  0  0.138507  0.106434  0  0.99069  0
H  H3  1  0.09979972  0.88627785  0.24200372  1  0  0.111417  0  0.924194  0  0  0.121014  0  0.986682  0  0  0.123101  0  0.98307  0  0  0.147674  0.119271  0  0.989738  0
H  H4  1  0.92618773  0.12792010  0.75819560  1  0  0.111195  0  0.928337  0  0  0.120471  0  0.992342  0  0  0.122273  0  0.989337  0  0  0.146659  0.118951  0  0.994955  0
H  H5  1  0.28954303  0.82400804  0.14836870  1  0  0.104262  0  0.933181  0  0  0.119289  0  0.983992  0  0  0.122073  0  0.982503  0  0  0.109228  0.117174  0  0.985282  0
H  H6  1  0.71816058  0.17351340  0.84936988  1  0  0.105432  0  0.929818  0  0  0.120247  0  0.980383  0  0  0.122958  0  0.979109  0  0  0.108506  0.118087  0  0.981678  0
H  H7  1  0.35818622  0.71829460  0.95934499  1  0  0.117017  0  0.962367  0  0  0.12634  0  1.021259  0  0  0.129536  0  1.019905  0  0  0.105547  0.124117  0  1.022049  0
H  H8  1  0.64873649  0.27268719  0.04011129  1  0  0.114334  0  0.96723  0  0  0.123083  0  1.027527  0  0  0.12626  0  1.026171  0  0  0.103208  0.120891  0  1.028365  0
H  H9  1  0.13132428  0.24687217  0.96326158  1  0  0.109958  0  0.978134  0  0  0.113806  0  1.051822  0  0  0.116865  0  1.050405  0  0  0.096359  0.111395  0  1.053239  0
H  H10  1  0.86368047  0.74893608  0.03974582  1  0  0.110757  0  0.977525  0  0  0.114693  0  1.050715  0  0  0.11773  0  1.049341  0  0  0.095583  0.112267  0  1.052164  0
H  H11  1  0.05219683  0.35394161  0.14894609  1  0  0.101075  0  0.976931  0  0  0.104176  0  1.052615  0  0  0.106944  0  1.051166  0  0  0.096827  0.10201  0  1.053904  0
H  H12  1  0.94267628  0.64888870  0.85215800  1  0  0.098897  0  0.986992  0  0  0.101615  0  1.0637  0  0  0.104654  0  1.061891  0  0  0.093688  0.099215  0  1.06535  0
H  H13  1  0.18286425  0.63159457  0.74897301  1  0  0.112204  0  0.969233  0  0  0.117815  0  1.038095  0  0  0.120117  0  1.037958  0  0  0.101768  0.115888  0  1.038717  0
H  H14  1  0.81350733  0.35788156  0.25603583  1  0  0.113075  0  0.967129  0  0  0.118523  0  1.036244  0  0  0.120979  0  1.035714  0  0  0.103229  0.116448  0  1.037221  0
H  H15  1  0.31870875  0.77842025  0.62395859  1  0  0.106441  0  0.966603  0  0  0.112021  0  1.037078  0  0  0.114579  0  1.035959  0  0  0.105338  0.109989  0  1.038319  0
H  H16  1  0.67346057  0.21569403  0.38162096  1  0  0.109997  0  0.961306  0  0  0.115587  0  1.031009  0  0  0.118439  0  1.029628  0  0  0.106984  0.113284  0  1.032522  0
H  H17  1  0.65509822  0.51673733  0.65318662  1  0  0.103569  0  0.974108  0  0  0.105979  0  1.051799  0  0  0.109331  0  1.049409  0  0  0.103558  0.103279  0  1.054025  0
H  H18  1  0.34180377  0.48215890  0.34512517  1  0  0.103785  0  0.97008  0  0  0.106373  0  1.047271  0  0  0.109525  0  1.045037  0  0  0.1033  0.103881  0  1.049215  0
H  H19  1  0.52272493  0.37644115  0.78399650  1  0  0.109418  0  0.972357  0  0  0.118684  0  1.035006  0  0  0.121046  0  1.034974  0  0  0.104801  0.117014  0  1.03513  0
H  H20  1  0.47854986  0.61761576  0.21432241  1  0  0.107418  0  0.972932  0  0  0.116037  0  1.03651  0  0  0.118382  0  1.036474  0  0  0.104088  0.114344  0  1.036667  0
H  H21  1  0.61163431  0.94910638  0.37619189  1  0  0.097352  0  0.919117  0  0  0.109469  0  0.974772  0  0  0.110628  0  0.973203  0  0  0.139826  0.10869  0  0.976095  0
H  H22  1  0.37150678  0.04140262  0.61959775  1  0  0.105167  0  0.920453  0  0  0.114547  0  0.978089  0  0  0.116141  0  0.975681  0  0  0.142023  0.113165  0  0.980399  0
H  H23  1  0.81219871  0.74240506  0.63584302  1  0  0.112764  0  0.931058  0  0  0.121177  0  0.996507  0  0  0.123185  0  0.993527  0  0  0.145165  0.119734  0  0.998556  0
H  H24  1  0.18072086  0.26033534  0.36396128  1  0  0.119725  0  0.930498  0  0  0.126894  0  0.996061  0  0  0.129463  0  0.991646  0  0  0.148654  0.124759  0  0.999715  0
C  C25  1  0.05701275  0.68032251  0.43305756  1  0  0.198719  0  3.672495  0  0  0.144802  0  3.971235  0  0  0.158502  0  3.982468  0  0  0.15133  0.135634  0  3.963881  0
C  C26  1  0.94723303  0.33577329  0.56640408  1  0  0.198868  0  3.676667  0  0  0.147178  0  3.972269  0  0  0.16066  0  3.983974  0  0  0.152557  0.138429  0  3.96425  0
C  C27  1  0.09473597  0.80261275  0.29703521  1  0  0.179583  0  3.569185  0  0  0.100997  0  3.838739  0  0  0.119331  0  3.846121  0  0  0.168737  0.088415  0  3.834657  0
C  C28  1  0.92332033  0.21104546  0.70297302  1  0  0.185576  0  3.573294  0  0  0.10513  0  3.845197  0  0  0.12291  0  3.853684  0  0  0.171528  0.092877  0  3.840176  0
C  C29  1  0.16461646  0.59613694  0.15955528  1  0  0.130735  0  3.805517  0  0  0.108183  0  4.059501  0  0  0.110885  0  4.082937  0  0  0.083149  0.106306  0  4.043346  0
C  C30  1  0.83660639  0.40448155  0.83975162  1  0  0.128503  0  3.805498  0  0  0.107045  0  4.058191  0  0  0.109876  0  4.081442  0  0  0.083656  0.105014  0  4.042254  0
C  C31  1  0.25149005  0.69771593  0.10673833  1  0  -0.121746  0  3.767714  0  0  -0.14173  0  4.024201  0  0  -0.143508  0  4.044183  0  0  -0.088389  -0.140294  0  4.010727  0
C  C32  1  0.75297951  0.29956199  0.89200637  1  0  -0.118196  0  3.765607  0  0  -0.138188  0  4.022045  0  0  -0.139687  0  4.041727  0  0  -0.08722  -0.136957  0  4.008879  0
C  C33  1  0.29125075  0.63804650  0.00005353  1  0  -0.178076  0  3.766351  0  0  -0.197826  0  4.017212  0  0  -0.20243  0  4.036514  0  0  -0.102121  -0.194697  0  4.003855  0
C  C34  1  0.71280310  0.35547811  0.99959803  1  0  -0.180629  0  3.761876  0  0  -0.199692  0  4.012633  0  0  -0.204599  0  4.032194  0  0  -0.103048  -0.196425  0  3.999084  0
C  C35  1  0.24394546  0.47587561  0.94734104  1  0  0.279774  0  3.770134  0  0  0.267743  0  4.033052  0  0  0.278955  0  4.048152  0  0  0.087653  0.260029  0  4.021719  0
C  C36  1  0.75707737  0.51720328  0.05389292  1  0  0.283572  0  3.767053  0  0  0.27192  0  4.030371  0  0  0.282977  0  4.045625  0  0  0.088086  0.264412  0  4.018696  0
C  C37  1  0.16197392  0.37356827  0.00303301  1  0  -0.160012  0  3.733164  0  0  -0.179601  0  3.983812  0  0  -0.184623  0  4.004334  0  0  -0.097486  -0.175956  0  3.969619  0
C  C38  1  0.83569825  0.62272284  0.99869862  1  0  -0.160696  0  3.732409  0  0  -0.180572  0  3.983985  0  0  -0.185637  0  4.004537  0  0  -0.097936  -0.176936  0  3.969727  0
C  C39  1  0.12087887  0.43374856  0.10858837  1  0  -0.107459  0  3.751309  0  0  -0.126679  0  4.00513  0  0  -0.128434  0  4.026875  0  0  -0.085642  -0.125155  0  3.990333  0
C  C40  1  0.87673264  0.56644183  0.89223300  1  0  -0.105346  0  3.750079  0  0  -0.124474  0  4.00167  0  0  -0.126263  0  4.023142  0  0  -0.085665  -0.122961  0  3.98718  0
C  C41  1  0.34680363  0.49587378  0.77406029  1  0  0.268103  0  3.770792  0  0  0.26016  0  4.027485  0  0  0.268883  0  4.044314  0  0  0.084231  0.254204  0  4.015692  0
C  C42  1  0.65200488  0.49515806  0.22709784  1  0  0.268053  0  3.768486  0  0  0.258432  0  4.027611  0  0  0.267433  0  4.044034  0  0  0.08221  0.251963  0  4.016499  0
C  C43  1  0.28634670  0.60690155  0.72837822  1  0  -0.169079  0  3.766656  0  0  -0.187085  0  4.014062  0  0  -0.192001  0  4.036923  0  0  -0.096728  -0.183816  0  3.998806  0
C  C44  1  0.70973522  0.38392241  0.27479254  1  0  -0.165864  0  3.7602  0  0  -0.183732  0  4.009393  0  0  -0.188655  0  4.031959  0  0  -0.095469  -0.180658  0  3.99495  0
C  C45  1  0.36259807  0.68980397  0.65866488  1  0  -0.119054  0  3.746208  0  0  -0.14051  0  4.002254  0  0  -0.143521  0  4.023953  0  0  -0.086921  -0.138392  0  3.987742  0
C  C46  1  0.63110100  0.30380006  0.34488163  1  0  -0.122948  0  3.744595  0  0  -0.145744  0  4.002713  0  0  -0.148509  0  4.024108  0  0  -0.090435  -0.144024  0  3.988861  0
C  C47  1  0.49614451  0.65860967  0.63350692  1  0  0.145031  0  3.800388  0  0  0.123634  0  4.049859  0  0  0.127402  0  4.073054  0  0  0.086216  0.120951  0  4.0339  0
C  C48  1  0.49780136  0.33779409  0.36835817  1  0  0.145251  0  3.791002  0  0  0.123724  0  4.040726  0  0  0.126929  0  4.063907  0  0  0.087871  0.121563  0  4.024898  0
C  C49  1  0.55365450  0.54430559  0.67613620  1  0  -0.128643  0  3.758898  0  0  -0.151204  0  4.021642  0  0  -0.154292  0  4.043244  0  0  -0.092357  -0.148839  0  4.007028  0
C  C50  1  0.44290095  0.45215852  0.32354848  1  0  -0.127525  0  3.752937  0  0  -0.150728  0  4.016363  0  0  -0.153355  0  4.037955  0  0  -0.091378  -0.148858  0  4.001918  0
C  C51  1  0.47912682  0.46418834  0.74786277  1  0  -0.145273  0  3.752007  0  0  -0.16903  0  4.002795  0  0  -0.172652  0  4.024135  0  0  -0.097518  -0.166159  0  3.987949  0
C  C52  1  0.51987149  0.52949658  0.25165906  1  0  -0.140228  0  3.745567  0  0  -0.163671  0  3.997648  0  0  -0.167085  0  4.018519  0  0  -0.095248  -0.16118  0  3.983683  0
C  C53  1  0.62544814  0.88366283  0.44444774  1  0  0.198804  0  3.70344  0  0  0.147109  0  4.002375  0  0  0.15916  0  4.014691  0  0  0.149654  0.138674  0  3.994032  0
C  C54  1  0.36114808  0.10981615  0.55330039  1  0  0.205592  0  3.654398  0  0  0.151376  0  3.954026  0  0  0.165415  0  3.964252  0  0  0.154787  0.141319  0  3.948053  0
C  C55  1  0.73092128  0.77852897  0.57419350  1  0  0.160605  0  3.622394  0  0  0.091491  0  3.882715  0  0  0.105348  0  3.895439  0  0  0.166223  0.082957  0  3.873446  0
C  C56  1  0.26013171  0.22198207  0.42514476  1  0  0.162533  0  3.568048  0  0  0.090257  0  3.827761  0  0  0.108334  0  3.836578  0  0  0.163639  0.077653  0  3.822849  0
C  C57  1  0.89006586  0.05388009  0.24473050  1  0  0.249129  0  4.06582  0  0  0.24177  0  4.371109  0  0  0.266427  0  4.381528  0  0  0.119016  0.225327  0  4.363097  0
C  C58  1  0.11858652  0.95263573  0.75262251  1  0  0.25392  0  4.061046  0  0  0.246028  0  4.366554  0  0  0.271028  0  4.37602  0  0  0.122441  0.229257  0  4.359511  0
S  S59  1  0.83827436  0.05506587  0.10277299  1  0  -0.377588  0  1.994254  0  0  -0.368275  0  2.263496  0  0  -0.379085  0  2.254637  0  0  -0.199004  -0.359745  0  2.269237  0
S  S60  1  0.15154304  0.93674666  0.89189401  1  0  -0.382529  0  1.991929  0  0  -0.372047  0  2.263076  0  0  -0.3825  0  2.253843  0  0  -0.202371  -0.364047  0  2.269285  0
N  N61  1  0.11916539  0.66006475  0.26503225  1  0  0.022234  0  3.606985  0  0  0.13628  0  3.790939  0  0  0.127158  0  3.812144  0  0  -0.115624  0.140866  0  3.778958  0
N  N62  1  0.88408247  0.34601571  0.73359929  1  0  0.01944  0  3.597615  0  0  0.134642  0  3.780611  0  0  0.124779  0  3.802795  0  0  -0.115533  0.139826  0  3.768165  0
N  N63  1  0.09474189  0.57991236  0.35091820  1  0  -0.274481  0  2.844315  0  0  -0.276029  0  3.122049  0  0  -0.284999  0  3.133738  0  0  -0.218642  -0.268994  0  3.114054  0
N  N64  1  0.89937335  0.42772579  0.64717979  1  0  -0.278045  0  2.846866  0  0  -0.278873  0  3.122245  0  0  -0.287725  0  3.134198  0  0  -0.222399  -0.272144  0  3.114179  0
N  N65  1  0.05616728  0.81929231  0.40396687  1  0  -0.290104  0  3.301601  0  0  -0.245429  0  3.607747  0  0  -0.27149  0  3.620234  0  0  -0.334364  -0.228655  0  3.598845  0
N  N66  1  0.96337871  0.20112033  0.59682161  1  0  -0.298023  0  3.27392  0  0  -0.253367  0  3.579385  0  0  -0.279222  0  3.592097  0  0  -0.331785  -0.236648  0  3.570268  0
N  N67  1  0.57857523  0.74631524  0.56672057  1  0  0.011611  0  3.619379  0  0  0.128762  0  3.79565  0  0  0.117684  0  3.820755  0  0  -0.117822  0.135492  0  3.779578  0
N  N68  1  0.41256524  0.25206152  0.43485178  1  0  0.016182  0  3.617968  0  0  0.133857  0  3.794842  0  0  0.123889  0  3.817698  0  0  -0.115323  0.138974  0  3.782326  0
N  N69  1  0.50944146  0.81363886  0.48408640  1  0  -0.272627  0  2.849351  0  0  -0.273671  0  3.120996  0  0  -0.282709  0  3.135674  0  0  -0.220623  -0.266607  0  3.110807  0
N  N70  1  0.47817938  0.18092566  0.51598795  1  0  -0.259817  0  2.850725  0  0  -0.266427  0  3.126206  0  0  -0.274961  0  3.139055  0  0  -0.218641  -0.259983  0  3.117914  0
N  N71  1  0.76307942  0.86504969  0.49740353  1  0  -0.321239  0  3.117874  0  0  -0.27754  0  3.407995  0  0  -0.30115  0  3.423778  0  0  -0.302943  -0.261027  0  3.396652  0
N  N72  1  0.22364874  0.13061355  0.49906367  1  0  -0.288597  0  3.336996  0  0  -0.244348  0  3.644173  0  0  -0.27349  0  3.659097  0  0  -0.34462  -0.225381  0  3.633538  0
N  N73  1  0.93132346  0.05368125  0.34916783  1  0  -0.501943  0  3.201505  0  0  -0.475805  0  3.513109  0  0  -0.49789  0  3.513826  0  0  -0.436174  -0.461552  0  3.510974  0
N  N74  1  0.08985244  0.96410342  0.65018293  1  0  -0.505214  0  3.199623  0  0  -0.478858  0  3.512417  0  0  -0.500227  0  3.511964  0  0  -0.436464  -0.465285  0  3.511362  0
O  O75  1  0.27572185  0.40523514  0.84127088  1  0  -0.282733  0  2.344718  0  0  -0.21392  0  2.565947  0  0  -0.232384  0  2.569464  0  0  -0.147831  -0.200616  0  2.562821  0
O  O76  1  0.72646835  0.58541542  0.16127570  1  0  -0.282348  0  2.342223  0  0  -0.214408  0  2.564785  0  0  -0.232372  0  2.567754  0  0  -0.147795  -0.20135  0  2.562011  0
