# generated using pymatgen
data_Cu3H21(C5N2)4
_symmetry_space_group_name_H-M   'P 1'
_cell_length_a   11.27356711
_cell_length_b   11.66229048
_cell_length_c   12.91800000
_cell_angle_alpha   63.90719600
_cell_angle_beta   89.78001161
_cell_angle_gamma   71.32437034
_symmetry_Int_Tables_number   1
_chemical_formula_structural   Cu3H21(C5N2)4
_chemical_formula_sum   'Cu6 H42 C40 N16'
_cell_volume   1426.13694629
_cell_formula_units_Z   2
loop_
 _symmetry_equiv_pos_site_id
 _symmetry_equiv_pos_as_xyz
  1  'x, y, z'
loop_
 _atom_site_type_symbol
 _atom_site_label
 _atom_site_symmetry_multiplicity
 _atom_site_fract_x
 _atom_site_fract_y
 _atom_site_fract_z
 _atom_site_occupancy
 _atom_site_hle17_bader_spin_density
 _atom_site_hle17_ddec_charge
 _atom_site_hle17_ddec_spin_density
 _atom_site_hle17_ddec_sum_bond_order
 _atom_site_hle17_magmom
 _atom_site_hse06_10hf_bader_spin_density
 _atom_site_hse06_10hf_ddec_charge
 _atom_site_hse06_10hf_ddec_spin_density
 _atom_site_hse06_10hf_ddec_sum_bond_order
 _atom_site_hse06_10hf_magmom
 _atom_site_hse06_bader_spin_density
 _atom_site_hse06_ddec_charge
 _atom_site_hse06_ddec_spin_density
 _atom_site_hse06_ddec_sum_bond_order
 _atom_site_hse06_magmom
 _atom_site_pbe_bader_charge
 _atom_site_pbe_bader_spin_density
 _atom_site_pbe_cm5_charge
 _atom_site_pbe_ddec_charge
 _atom_site_pbe_ddec_spin_density
 _atom_site_pbe_ddec_sum_bond_order
 _atom_site_pbe_magmom
Cu  Cu0  1  0.37459009  0.17298081  0.07684634  1  0  0.39353  0  2.2346  0  0  0.295266  0  2.730209  0  0  0.292434  0  2.688177  0  0.65042  0  0.496813  0.299444  0  2.756844  0
Cu  Cu1  1  0.62540604  0.82702016  0.92315267  1  0  0.393617  0  2.234513  0  0  0.295369  0  2.730147  0  0  0.292547  0  2.688123  0  0.650744  0  0.496841  0.299539  0  2.75683  0
Cu  Cu2  1  0.53793423  0.87455600  0.49330568  1  0  0.369049  0  2.303488  0  0  0.272366  0  2.808697  0  0  0.273947  0  2.75529  0  0.646331  0  0.479926  0.273436  0  2.844592  0
Cu  Cu3  1  0.46205222  0.12545824  0.50669196  1  0  0.369116  0  2.303449  0  0  0.272436  0  2.808694  0  0  0.274008  0  2.755202  0  0.646945  0  0.479937  0.273504  0  2.844601  0
Cu  Cu4  1  0.31171093  0.64225419  0.79292537  1  0  0.408214  0  2.266407  0  0  0.316381  0  2.752014  0  0  0.31129  0  2.710245  0  0.658461  0  0.508872  0.323568  0  2.777061  0
Cu  Cu5  1  0.68827487  0.35775393  0.20705923  1  0  0.407998  0  2.266481  0  0  0.316189  0  2.752135  0  0  0.311083  0  2.710364  0  0.658545  0  0.508868  0.323403  0  2.777214  0
H  H6  1  0.88013100  0.53709551  0.94660047  1  0  0.123372  0  0.945475  0  0  0.142616  0  1.008833  0  0  0.143664  0  1.009621  0  0.066637  0  0.095834  0.141921  0  1.008197  0
H  H7  1  0.11986915  0.46290136  0.05339782  1  0  0.123449  0  0.945521  0  0  0.142702  0  1.008851  0  0  0.14375  0  1.00964  0  0.066519  0  0.095867  0.142004  0  1.008217  0
H  H8  1  0.97954827  0.43545677  0.88811857  1  0  0.118372  0  0.93427  0  0  0.140445  0  0.990936  0  0  0.142023  0  0.990701  0  0.053145  0  0.097592  0.139408  0  0.990937  0
H  H9  1  0.02044744  0.56454011  0.11187355  1  0  0.118378  0  0.934314  0  0  0.140462  0  0.990957  0  0  0.142041  0  0.990723  0  0.053293  0  0.097599  0.139425  0  0.990956  0
H  H10  1  0.81976666  0.44374958  0.89828881  1  0  0.119513  0  0.939586  0  0  0.142189  0  0.994715  0  0  0.143404  0  0.995473  0  0.042061  0  0.096881  0.141253  0  0.994318  0
H  H11  1  0.18022926  0.55624934  0.10170946  1  0  0.119478  0  0.939559  0  0  0.142178  0  0.994674  0  0  0.143395  0  0.995429  0  0.042126  0  0.096875  0.141231  0  0.994288  0
H  H12  1  0.64810491  0.64173135  0.72040338  1  0  0.297505  0  0.876272  0  0  0.285217  0  0.928526  0  0  0.290498  0  0.926063  0  0.510526  0  0.336129  0.281446  0  0.93046  0
H  H13  1  0.35189025  0.35826450  0.27959456  1  0  0.29751  0  0.876265  0  0  0.285199  0  0.928557  0  0  0.290479  0  0.926094  0  0.510429  0  0.336125  0.281428  0  0.930491  0
H  H14  1  0.41215800  0.88687625  0.22320265  1  0  0.294888  0  0.877747  0  0  0.28348  0  0.927744  0  0  0.28904  0  0.924685  0  0.507683  0  0.336634  0.279565  0  0.930044  0
H  H15  1  0.58785964  0.11312675  0.77679239  1  0  0.294952  0  0.877578  0  0  0.283557  0  0.927554  0  0  0.289116  0  0.924494  0  0.507693  0  0.336668  0.279641  0  0.929856  0
H  H16  1  0.76784655  0.95236198  0.40723366  1  0  0.120916  0  0.943871  0  0  0.139737  0  1.008116  0  0  0.141619  0  1.007236  0  0.053364  0  0.09552  0.138306  0  1.008851  0
H  H17  1  0.23214234  0.04765021  0.59276943  1  0  0.120884  0  0.943862  0  0  0.139715  0  1.008086  0  0  0.141592  0  1.007212  0  0.053131  0  0.095517  0.138285  0  1.00882  0
H  H18  1  0.92945127  0.90188214  0.46845872  1  0  0.110979  0  0.937271  0  0  0.132348  0  0.994265  0  0  0.133661  0  0.994241  0  0.048274  0  0.092256  0.131434  0  0.994289  0
H  H19  1  0.07053753  0.09812495  0.53154562  1  0  0.110949  0  0.937165  0  0  0.132302  0  0.994195  0  0  0.13361  0  0.994175  0  0.048281  0  0.092249  0.131389  0  0.994216  0
H  H20  1  0.80448318  0.01424921  0.50063309  1  0  0.123545  0  0.930691  0  0  0.144944  0  0.988118  0  0  0.146064  0  0.988529  0  0.093234  0  0.096267  0.144111  0  0.987876  0
H  H21  1  0.19550672  0.98575992  0.49937354  1  0  0.123521  0  0.930806  0  0  0.144929  0  0.988224  0  0  0.146052  0  0.988632  0  0.093377  0  0.096228  0.144082  0  0.987997  0
H  H22  1  0.09719559  0.59209295  0.77609316  1  0  0.101483  0  0.928535  0  0  0.119227  0  0.986136  0  0  0.120956  0  0.984747  0  0.076743  0  0.103958  0.117909  0  0.987257  0
H  H23  1  0.90279633  0.40791006  0.22390583  1  0  0.101425  0  0.928652  0  0  0.119197  0  0.986221  0  0  0.120924  0  0.984832  0  0.076674  0  0.103953  0.117877  0  0.987347  0
H  H24  1  0.07735066  0.74065382  0.64574274  1  0  0.094672  0  0.917704  0  0  0.112272  0  0.976248  0  0  0.114577  0  0.973373  0  0.069851  0  0.104725  0.11038  0  0.978618  0
H  H25  1  0.92264037  0.25934918  0.35425857  1  0  0.09473  0  0.9177  0  0  0.11236  0  0.976211  0  0  0.114669  0  0.973334  0  0.069796  0  0.104738  0.11047  0  0.978581  0
H  H26  1  0.84138353  0.85065890  0.79904671  1  0  0.109236  0  0.973792  0  0  0.113127  0  1.046338  0  0  0.117564  0  1.043979  0  0.114038  0  0.101309  0.110125  0  1.047811  0
H  H27  1  0.15861169  0.14935023  0.20095525  1  0  0.109284  0  0.973634  0  0  0.113206  0  1.046156  0  0  0.117644  0  1.0438  0  0.114071  0  0.101335  0.110203  0  1.047633  0
H  H28  1  0.87121409  0.96492220  0.91613051  1  0  0.085114  0  0.983904  0  0  0.092872  0  1.050778  0  0  0.09529  0  1.048926  0  0.095331  0  0.100633  0.091022  0  1.052256  0
H  H29  1  0.12879104  0.03507570  0.08387433  1  0  0.085166  0  0.983715  0  0  0.092884  0  1.050654  0  0  0.095262  0  1.048845  0  0.095315  0  0.100618  0.091029  0  1.052143  0
H  H30  1  0.09266761  0.94871135  0.97206572  1  0  0.096301  0  0.992378  0  0  0.106484  0  1.056213  0  0  0.108712  0  1.057125  0  0.074696  0  0.098708  0.104981  0  1.055577  0
H  H31  1  0.90733734  0.05127634  0.02794704  1  0  0.096306  0  0.99233  0  0  0.106472  0  1.056183  0  0  0.108698  0  1.057101  0  0.074072  0  0.098664  0.10496  0  1.055557  0
H  H32  1  0.34848614  0.85518977  0.83400913  1  0  0.108893  0  0.923887  0  0  0.125893  0  0.985844  0  0  0.126926  0  0.985216  0  0.090445  0  0.106584  0.125186  0  0.986006  0
H  H33  1  0.65151428  0.14479281  0.16599252  1  0  0.108986  0  0.923989  0  0  0.125945  0  0.985923  0  0  0.126991  0  0.98528  0  0.090415  0  0.106576  0.125235  0  0.986092  0
H  H34  1  0.37077152  0.70123617  0.95847517  1  0  0.100894  0  0.923422  0  0  0.118255  0  0.98547  0  0  0.120589  0  0.982524  0  0.065132  0  0.102878  0.116606  0  0.987221  0
H  H35  1  0.62922688  0.29875254  0.04153412  1  0  0.100902  0  0.923423  0  0  0.118186  0  0.985513  0  0  0.120518  0  0.982567  0  0.065055  0  0.102856  0.11654  0  0.987258  0
H  H36  1  0.45804060  0.62975115  0.28139177  1  0  0.127566  0  0.920625  0  0  0.15206  0  0.969853  0  0  0.153891  0  0.969486  0  0.049628  0  0.104652  0.150655  0  0.970234  0
H  H37  1  0.54197325  0.37025798  0.71860781  1  0  0.127569  0  0.920542  0  0  0.152099  0  0.969743  0  0  0.153928  0  0.969381  0  0.049869  0  0.104712  0.150695  0  0.970124  0
H  H38  1  0.44761559  0.58936748  0.16583321  1  0  0.125481  0  0.966741  0  0  0.140996  0  1.0356  0  0  0.143092  0  1.034753  0  0.090536  0  0.094928  0.139185  0  1.036603  0
H  H39  1  0.55240508  0.41062633  0.83417398  1  0  0.125377  0  0.966748  0  0  0.140885  0  1.035631  0  0  0.142981  0  1.034782  0  0.090613  0  0.094893  0.139079  0  1.036633  0
H  H40  1  0.30884706  0.64171195  0.22462805  1  0  0.116265  0  0.928328  0  0  0.137099  0  0.985323  0  0  0.139045  0  0.984934  0  0.041461  0  0.095804  0.13574  0  0.985564  0
H  H41  1  0.69116783  0.35828595  0.77537753  1  0  0.116112  0  0.928271  0  0  0.136962  0  0.985277  0  0  0.138907  0  0.984888  0  0.041472  0  0.095742  0.135603  0  0.985519  0
H  H42  1  0.28993121  0.21767886  0.83978651  1  0  0.118854  0  0.950207  0  0  0.1367  0  1.01369  0  0  0.139121  0  1.011895  0  0.06723  0  0.094099  0.135017  0  1.014823  0
H  H43  1  0.71008680  0.78231496  0.16020288  1  0  0.118892  0  0.950056  0  0  0.136737  0  1.013561  0  0  0.139155  0  1.011768  0  0.067166  0  0.094096  0.135053  0  1.014693  0
H  H44  1  0.18524231  0.14967598  0.80293516  1  0  0.113353  0  0.929718  0  0  0.136179  0  0.983572  0  0  0.137394  0  0.983854  0  0.04611  0  0.093812  0.135361  0  0.983329  0
H  H45  1  0.81477404  0.85031477  0.19705778  1  0  0.113371  0  0.929579  0  0  0.136207  0  0.983433  0  0  0.137423  0  0.983712  0  0.045957  0  0.09384  0.135389  0  0.98319  0
H  H46  1  0.34366798  0.10456640  0.77666846  1  0  0.121138  0  0.957816  0  0  0.139779  0  1.021885  0  0  0.14099  0  1.021805  0  0.061336  0  0.092346  0.138914  0  1.021999  0
H  H47  1  0.65634752  0.89541618  0.22333004  1  0  0.121153  0  0.957744  0  0  0.139808  0  1.021798  0  0  0.141008  0  1.021729  0  0.06134  0  0.09236  0.138943  0  1.02191  0
C  C48  1  0.88228847  0.50341267  0.87915341  1  0  -0.347056  0  3.731629  0  0  -0.423457  0  3.967595  0  0  -0.426984  0  3.97654  0  -0.03604  0  -0.230097  -0.42083  0  3.96124  0
C  C49  1  0.11770336  0.49658522  0.12084296  1  0  -0.347083  0  3.731642  0  0  -0.423527  0  3.967569  0  0  -0.427054  0  3.976511  0  -0.035806  0  -0.230127  -0.420886  0  3.961225  0
C  C50  1  0.84085315  0.62229671  0.76019009  1  0  0.218623  0  3.738224  0  0  0.205129  0  4.010417  0  0  0.214899  0  4.029465  0  0.428171  0  0.101927  0.198873  0  3.997221  0
C  C51  1  0.15914076  0.37770834  0.23980576  1  0  0.218669  0  3.738046  0  0  0.205227  0  4.01023  0  0  0.214995  0  4.02928  0  0.428172  0  0.10203  0.198968  0  3.99704  0
C  C52  1  0.90400684  0.70754896  0.69126958  1  0  -0.14462  0  3.779215  0  0  -0.131448  0  4.027844  0  0  -0.142466  0  4.05602  0  -0.033079  0  -0.042293  -0.124283  0  4.008751  0
C  C53  1  0.09598386  0.29245507  0.30873288  1  0  -0.144415  0  3.779125  0  0  -0.13126  0  4.027813  0  0  -0.142278  0  4.055995  0  -0.034501  0  -0.042234  -0.124095  0  4.008724  0
C  C54  1  0.81704397  0.80512963  0.58767348  1  0  0.209142  0  3.744225  0  0  0.208667  0  4.004749  0  0  0.215902  0  4.026774  0  0.494306  0  0.097369  0.204061  0  3.989494  0
C  C55  1  0.18294305  0.19487746  0.41232855  1  0  0.209095  0  3.744194  0  0  0.208527  0  4.004848  0  0  0.215755  0  4.026882  0  0.494552  0  0.09733  0.203922  0  3.989587  0
C  C56  1  0.83123121  0.92410250  0.48555384  1  0  -0.343863  0  3.733389  0  0  -0.421961  0  3.969362  0  0  -0.424806  0  3.977621  0  -0.076535  0  -0.234199  -0.419757  0  3.963512  0
C  C57  1  0.16875937  0.07590459  0.51445127  1  0  -0.343736  0  3.733282  0  0  -0.421804  0  3.969235  0  0  -0.424639  0  3.977506  0  -0.076517  0  -0.234125  -0.419589  0  3.963393  0
C  C58  1  0.03388980  0.69951348  0.72432656  1  0  -0.189794  0  3.7694  0  0  -0.23759  0  4.011488  0  0  -0.237127  0  4.021568  0  -0.035523  0  -0.150733  -0.237862  0  4.004945  0
C  C59  1  0.96610313  0.30048646  0.27567751  1  0  -0.189951  0  3.769693  0  0  -0.23782  0  4.011795  0  0  -0.23736  0  4.02187  0  -0.03426  0  -0.150775  -0.238092  0  4.005248  0
C  C60  1  0.04146169  0.77340026  0.79396340  1  0  0.27435  0  3.680641  0  0  0.281367  0  3.915082  0  0  0.289426  0  3.935573  0  0.48137  0  0.121755  0.276045  0  3.901418  0
C  C61  1  0.95853035  0.22659968  0.20603913  1  0  0.274337  0  3.680834  0  0  0.281394  0  3.915163  0  0  0.28948  0  3.935641  0  0.481519  0  0.121696  0.276083  0  3.901509  0
C  C62  1  0.93552436  0.84564502  0.82502853  1  0  -0.17759  0  3.722076  0  0  -0.195044  0  3.965816  0  0  -0.204229  0  3.986385  0  -0.045253  0  -0.093786  -0.189355  0  3.952007  0
C  C63  1  0.06447334  0.15435390  0.17497438  1  0  -0.177779  0  3.722151  0  0  -0.195286  0  3.965861  0  0  -0.204474  0  3.986414  0  -0.045389  0  -0.093879  -0.189593  0  3.952048  0
C  C64  1  0.95282218  0.90953775  0.88998836  1  0  -0.002787  0  3.768104  0  0  -0.019844  0  4.017871  0  0  -0.013072  0  4.034192  0  -0.086087  0  -0.078052  -0.024046  0  4.006919  0
C  C65  1  0.04717974  0.09045913  0.11001767  1  0  -0.002716  0  3.768057  0  0  -0.019758  0  4.017844  0  0  -0.012956  0  4.034185  0  -0.086118  0  -0.078018  -0.023959  0  4.006889  0
C  C66  1  0.07483809  0.90044946  0.92141976  1  0  -0.189708  0  3.751799  0  0  -0.206788  0  3.993373  0  0  -0.21633  0  4.01637  0  -0.028014  0  -0.100249  -0.200846  0  3.978078  0
C  C67  1  0.92516606  0.09954333  0.07859098  1  0  -0.18971  0  3.751913  0  0  -0.206765  0  3.993467  0  0  -0.216303  0  4.016463  0  -0.027638  0  -0.100177  -0.200817  0  3.978165  0
C  C68  1  0.17717513  0.82676282  0.88796391  1  0  0.26968  0  3.702697  0  0  0.273937  0  3.944523  0  0  0.282015  0  3.96453  0  0.48016  0  0.117869  0.268456  0  3.931316  0
C  C69  1  0.82282725  0.17322997  0.11204297  1  0  0.269656  0  3.702926  0  0  0.273848  0  3.944675  0  0  0.281922  0  3.964722  0  0.479886  0  0.117813  0.268394  0  3.931452  0
C  C70  1  0.31293657  0.81115343  0.91710698  1  0  -0.198313  0  3.758684  0  0  -0.24747  0  4.000571  0  0  -0.24702  0  4.010636  0  -0.020923  0  -0.152298  -0.247397  0  3.993013  0
C  C71  1  0.68706715  0.18883528  0.08289842  1  0  -0.198533  0  3.759132  0  0  -0.247552  0  4.001006  0  0  -0.247102  0  4.011068  0  -0.020669  0  -0.152294  -0.247485  0  3.993446  0
C  C72  1  0.39787135  0.65874586  0.20092494  1  0  -0.353255  0  3.734731  0  0  -0.427342  0  3.967243  0  0  -0.431301  0  3.975904  0  -0.063583  0  -0.230945  -0.424328  0  3.961423  0
C  C73  1  0.60214553  0.34125408  0.79908138  1  0  -0.352945  0  3.734564  0  0  -0.427085  0  3.967068  0  0  -0.431041  0  3.975729  0  -0.063932  0  -0.230907  -0.424081  0  3.96125  0
C  C74  1  0.37299039  0.80308936  0.11387384  1  0  0.225633  0  3.729415  0  0  0.214189  0  3.996082  0  0  0.223353  0  4.016912  0  0.450932  0  0.10496  0.20795  0  3.982069  0
C  C75  1  0.62702340  0.19690650  0.88612482  1  0  0.225438  0  3.729695  0  0  0.214131  0  3.996261  0  0  0.223293  0  4.017087  0  0.450989  0  0.104896  0.20789  0  3.982249  0
C  C76  1  0.33500215  0.87152521  0.99262911  1  0  -0.144119  0  3.769671  0  0  -0.131353  0  4.027457  0  0  -0.140896  0  4.051705  0  0.004381  0  -0.038777  -0.125335  0  4.010879  0
C  C77  1  0.66500910  0.12846758  0.00737077  1  0  -0.143843  0  3.769796  0  0  -0.13123  0  4.027588  0  0  -0.140767  0  4.051831  0  0.003975  0  -0.038711  -0.125212  0  4.011007  0
C  C78  1  0.32372454  0.00870229  0.95698871  1  0  0.206821  0  3.749229  0  0  0.200839  0  4.024214  0  0  0.20977  0  4.041439  0  0.421366  0  0.096068  0.195264  0  4.01217  0
C  C79  1  0.67628603  0.99129254  0.04300726  1  0  0.206559  0  3.74922  0  0  0.200622  0  4.02422  0  0  0.209547  0  4.04145  0  0.421402  0  0.095978  0.195047  0  4.012174  0
C  C80  1  0.28362683  0.12677349  0.83763458  1  0  -0.347003  0  3.727319  0  0  -0.421329  0  3.958067  0  0  -0.42419  0  3.96563  0  -0.064046  0  -0.237463  -0.4192  0  3.952549  0
C  C81  1  0.71638999  0.87321318  0.16236230  1  0  -0.346994  0  3.726818  0  0  -0.421336  0  3.957565  0  0  -0.424188  0  3.965137  0  -0.063915  0  -0.237484  -0.419204  0  3.952047  0
C  C82  1  0.47912968  0.99672203  0.33967501  1  0  -0.118986  0  3.579834  0  0  -0.121938  0  3.967399  0  0  -0.103217  0  3.951601  0  0.702471  0  -0.068111  -0.136206  0  3.979148  0
C  C83  1  0.52087273  0.00329221  0.66032180  1  0  -0.118931  0  3.579877  0  0  -0.121882  0  3.967464  0  0  -0.103144  0  3.951626  0  0.702214  0  -0.068022  -0.13615  0  3.979225  0
C  C84  1  0.40021212  0.71091980  0.67563608  1  0  -0.145176  0  3.569452  0  0  -0.14913  0  3.94549  0  0  -0.13307  0  3.93898  0  0.692737  0  -0.072927  -0.161168  0  3.949389  0
C  C85  1  0.59977579  0.28908729  0.32435046  1  0  -0.144975  0  3.569621  0  0  -0.148922  0  3.945655  0  0  -0.132857  0  3.939142  0  0.69275  0  -0.072817  -0.160965  0  3.949573  0
C  C86  1  0.34258897  0.35084478  0.97202692  1  0  -0.127869  0  3.593616  0  0  -0.127115  0  3.974137  0  0  -0.110427  0  3.965167  0  0.71835  0  -0.073219  -0.139034  0  3.980054  0
C  C87  1  0.65739640  0.64915924  0.02797168  1  0  -0.127989  0  3.593412  0  0  -0.12729  0  3.974037  0  0  -0.110609  0  3.965064  0  0.718152  0  -0.073259  -0.139216  0  3.979973  0
N  N88  1  0.70807709  0.78002042  0.59259308  1  0  -0.232517  0  3.25309  0  0  -0.193935  0  3.568328  0  0  -0.202778  0  3.576602  0  -0.724876  0  -0.287286  -0.188324  0  3.562728  0
N  N89  1  0.29191517  0.21998157  0.40740864  1  0  -0.232498  0  3.253013  0  0  -0.193832  0  3.568233  0  0  -0.20267  0  3.5765  0  -0.724993  0  -0.287275  -0.188219  0  3.562638  0
N  N90  1  0.72495629  0.66949046  0.69702100  1  0  -0.203861  0  3.478793  0  0  -0.154868  0  3.716158  0  0  -0.167288  0  3.734636  0  -0.847924  0  -0.28783  -0.146712  0  3.703748  0
N  N91  1  0.27503221  0.33050948  0.30297844  1  0  -0.203988  0  3.47897  0  0  -0.155029  0  3.716389  0  0  -0.167453  0  3.734878  0  -0.848117  0  -0.287932  -0.146877  0  3.703984  0
N  N92  1  0.15979525  0.76402094  0.82579480  1  0  -0.372804  0  3.288053  0  0  -0.310618  0  3.562165  0  0  -0.32344  0  3.571279  0  -1.233201  0  -0.357131  -0.302786  0  3.555914  0
N  N93  1  0.84020333  0.23597798  0.17420811  1  0  -0.372605  0  3.28793  0  0  -0.310332  0  3.561926  0  0  -0.323193  0  3.571079  0  -1.232784  0  -0.356988  -0.302552  0  3.555736  0
N  N94  1  0.38342803  0.89753304  0.14367415  1  0  -0.213027  0  3.483693  0  0  -0.160289  0  3.718176  0  0  -0.173567  0  3.737121  0  -0.845902  0  -0.2903  -0.151538  0  3.705533  0
N  N95  1  0.61659197  0.10246282  0.85632217  1  0  -0.213107  0  3.483528  0  0  -0.160433  0  3.718027  0  0  -0.17371  0  3.736971  0  -0.845476  0  -0.290333  -0.151679  0  3.705381  0
N  N96  1  0.35435485  0.02281365  0.05043055  1  0  -0.249174  0  3.245215  0  0  -0.213081  0  3.569976  0  0  -0.22031  0  3.576291  0  -0.732725  0  -0.288839  -0.208684  0  3.565643  0
N  N97  1  0.64565915  0.97718425  0.94956343  1  0  -0.249004  0  3.244994  0  0  -0.212894  0  3.569719  0  0  -0.220127  0  3.576048  0  -0.732849  0  -0.288727  -0.208499  0  3.565395  0
N  N98  1  0.43816545  0.06867786  0.23938992  1  0  -0.398587  0  3.328551  0  0  -0.33835  0  3.663337  0  0  -0.352029  0  3.6652  0  -1.426336  0  -0.451595  -0.329703  0  3.662044  0
N  N99  1  0.56184329  0.93133331  0.76060577  1  0  -0.398674  0  3.328582  0  0  -0.33842  0  3.663314  0  0  -0.352132  0  3.665261  0  -1.426279  0  -0.451663  -0.32977  0  3.662029  0
N  N100  1  0.45527346  0.76095237  0.60096899  1  0  -0.39209  0  3.337571  0  0  -0.327566  0  3.657532  0  0  -0.343547  0  3.662043  0  -1.406035  0  -0.443282  -0.316952  0  3.654253  0
N  N101  1  0.54470808  0.23906595  0.39901467  1  0  -0.392274  0  3.337768  0  0  -0.32777  0  3.657734  0  0  -0.343738  0  3.662202  0  -1.406269  0  -0.443409  -0.317155  0  3.654463  0
N  N102  1  0.32987883  0.46397256  0.90444947  1  0  -0.411234  0  3.389197  0  0  -0.34961  0  3.722142  0  0  -0.363118  0  3.724034  0  -1.441005  0  -0.457721  -0.341331  0  3.72027  0
N  N103  1  0.67010278  0.53602943  0.09554299  1  0  -0.411079  0  3.388967  0  0  -0.349438  0  3.721948  0  0  -0.362926  0  3.723822  0  -1.44083  0  -0.457721  -0.341159  0  3.720084  0
