# generated using pymatgen
data_ZnH18C27(N2O3)2
_symmetry_space_group_name_H-M   'P 1'
_cell_length_a   9.50554378
_cell_length_b   11.03183895
_cell_length_c   27.93236382
_cell_angle_alpha   90.39134897
_cell_angle_beta   90.83671403
_cell_angle_gamma   91.07072956
_symmetry_Int_Tables_number   1
_chemical_formula_structural   ZnH18C27(N2O3)2
_chemical_formula_sum   'Zn2 H36 C54 N8 O12'
_cell_volume   2928.19137693
_cell_formula_units_Z   2
loop_
 _symmetry_equiv_pos_site_id
 _symmetry_equiv_pos_as_xyz
  1  'x, y, z'
loop_
 _atom_site_type_symbol
 _atom_site_label
 _atom_site_symmetry_multiplicity
 _atom_site_fract_x
 _atom_site_fract_y
 _atom_site_fract_z
 _atom_site_occupancy
 _atom_site_pbe_bader_charge
 _atom_site_pbe_bader_spin_density
 _atom_site_pbe_cm5_charge
 _atom_site_pbe_ddec_charge
 _atom_site_pbe_ddec_spin_density
 _atom_site_pbe_ddec_sum_bond_order
 _atom_site_pbe_magmom
Zn  Zn0  1  0.64009208  0.50259887  0.49696160  1  1.263787  0  0.661291  0.789291  0  2.487084  0
Zn  Zn1  1  0.36019539  0.49762290  0.50305207  1  1.262014  0  0.661122  0.789851  0  2.485251  0
H  H2  1  0.25285442  0.54783218  0.35690492  1  0.081081  0  0.099508  0.109718  0  1.020461  0
H  H3  1  0.74665778  0.45179970  0.64306601  1  0.084822  0  0.099415  0.109239  0  1.019836  0
H  H4  1  0.45429255  0.79836229  0.12489712  1  0.108075  0  0.114919  0.130576  0  0.985974  0
H  H5  1  0.54540912  0.20138075  0.87505982  1  0.104554  0  0.114984  0.128842  0  0.987717  0
H  H6  1  0.36161134  0.54161625  0.75311446  1  0.036158  0  0.102887  0.110104  0  0.997592  0
H  H7  1  0.63822225  0.45856385  0.24692632  1  0.034355  0  0.103104  0.110448  0  0.997901  0
H  H8  1  0.50130396  0.80481836  0.96508763  1  0.078723  0  0.099631  0.100216  0  1.071417  0
H  H9  1  0.49859722  0.19488306  0.03489063  1  0.077711  0  0.099485  0.099773  0  1.071586  0
H  H10  1  0.27569710  0.88218526  0.49179085  1  0.079171  0  0.100967  0.102871  0  1.006994  0
H  H11  1  0.72502599  0.11801488  0.50841142  1  0.077916  0  0.100899  0.102378  0  1.007391  0
H  H12  1  0.27647475  0.11052153  0.48940136  1  0.090789  0  0.10248  0.105959  0  1.004033  0
H  H13  1  0.72429949  0.88966177  0.51061282  1  0.091043  0  0.102542  0.106039  0  1.003732  0
H  H14  1  0.12683541  0.36896270  0.55504898  1  0.14661  0  0.141913  0.120813  0  0.959284  0
H  H15  1  0.87349410  0.63155877  0.44498457  1  0.15099  0  0.142079  0.121088  0  0.95913  0
H  H16  1  0.14415962  0.62898736  0.44881627  1  0.155493  0  0.139898  0.121865  0  0.96787  0
H  H17  1  0.85617270  0.37130745  0.55111965  1  0.159431  0  0.139693  0.121229  0  0.968386  0
H  H18  1  0.17843945  0.61197685  0.23512270  1  0.435492  0  0.294837  0.292121  0  0.973309  0
H  H19  1  0.10955954  0.58873541  0.28927539  1  0.413206  0  0.302319  0.293498  0  0.944459  0
H  H20  1  0.88987005  0.41043941  0.71065737  1  0.413322  0  0.302308  0.293494  0  0.943926  0
H  H21  1  0.82082119  0.38694135  0.76476385  1  0.431672  0  0.294661  0.292187  0  0.973669  0
H  H22  1  0.26493749  0.62023561  0.63636771  1  0.052221  0  0.094192  0.138937  0  0.988896  0
H  H23  1  0.21895949  0.46700579  0.64482220  1  0.032424  0  0.084307  0.117085  0  1.016247  0
H  H24  1  0.20382423  0.57156419  0.69340699  1  0.015928  0  0.084736  0.115114  0  1.009732  0
H  H25  1  0.73539458  0.37965875  0.36331678  1  0.056312  0  0.094272  0.138958  0  0.989427  0
H  H26  1  0.79629140  0.43007085  0.30648289  1  0.036063  0  0.084492  0.114349  0  1.010624  0
H  H27  1  0.78031042  0.53327352  0.35546693  1  0.026667  0  0.084223  0.116562  0  1.016423  0
H  H28  1  0.47784371  0.85658536  0.84755752  1  0.096914  0  0.102709  0.150518  0  0.980636  0
H  H29  1  0.54282368  0.91788149  0.90359400  1  0.008497  0  0.079376  0.104235  0  1.031164  0
H  H30  1  0.65871771  0.86469542  0.85856712  1  0.078732  0  0.104163  0.153144  0  0.976711  0
H  H31  1  0.52222657  0.14309176  0.15238429  1  0.09373  0  0.102783  0.150565  0  0.980746  0
H  H32  1  0.34132490  0.13484235  0.14142416  1  0.081019  0  0.104246  0.153186  0  0.97667  0
H  H33  1  0.45718844  0.08186690  0.09636336  1  0.011882  0  0.079334  0.104174  0  1.031175  0
H  H34  1  0.57379683  0.89203884  0.06775202  1  0.418222  0  0.307884  0.296803  0  0.94648  0
H  H35  1  0.62215653  0.83630588  0.01412286  1  0.442926  0  0.305244  0.295881  0  0.956338  0
H  H36  1  0.37770130  0.16337438  0.98586018  1  0.441098  0  0.305081  0.296277  0  0.956881  0
H  H37  1  0.42603790  0.10764577  0.93223234  1  0.432538  0  0.308226  0.297106  0  0.945646  0
C  C38  1  0.50049827  0.73802053  0.50195739  1  1.568591  0  0.215347  0.593354  0  4.166638  0
C  C39  1  0.50061010  0.26221586  0.49809750  1  1.556966  0  0.215568  0.593177  0  4.167035  0
C  C40  1  0.48366269  0.50544266  0.40519857  1  1.5364  0  0.216426  0.600145  0  4.143936  0
C  C41  1  0.51584090  0.49477705  0.59482204  1  1.540204  0  0.21669  0.600746  0  4.144108  0
C  C42  1  0.39759328  0.61131555  0.17707587  1  1.340952  0  0.238969  0.430871  0  4.116267  0
C  C43  1  0.60218278  0.38839393  0.82290717  1  1.339062  0  0.238879  0.430426  0  4.11636  0
C  C44  1  0.41180647  0.38621862  0.17830283  1  1.307374  0  0.240265  0.435574  0  4.081297  0
C  C45  1  0.58811189  0.61351394  0.82169273  1  1.309543  0  0.240214  0.435693  0  4.081553  0
C  C46  1  0.55439676  0.47927188  0.27181342  1  0.066915  0  -0.092713  -0.213817  0  3.990646  0
C  C47  1  0.44534708  0.52077853  0.72820565  1  0.062171  0  -0.092521  -0.213499  0  3.98969  0
C  C48  1  0.58380264  0.47923042  0.32094279  1  0.02288  0  -0.009293  0.153315  0  3.945334  0
C  C49  1  0.41589912  0.52092122  0.67908228  1  0.020875  0  -0.00914  0.153709  0  3.946078  0
C  C50  1  0.33723113  0.52884257  0.33206293  1  -0.040082  0  -0.098042  -0.201424  0  3.961214  0
C  C51  1  0.66233631  0.47094125  0.66791704  1  -0.041331  0  -0.09765  -0.200611  0  3.961633  0
C  C52  1  0.30962032  0.53229077  0.28268410  1  0.459694  0  0.094353  0.229946  0  4.098874  0
C  C53  1  0.68999710  0.46734026  0.71729414  1  0.460867  0  0.094238  0.229717  0  4.09881  0
C  C54  1  0.42209258  0.50448099  0.25271607  1  0.27883  0  0.078383  0.09197  0  3.989887  0
C  C55  1  0.57762423  0.49529702  0.74728143  1  0.279043  0  0.078091  0.091235  0  3.990078  0
C  C56  1  0.44243832  0.49591956  0.10043100  1  -0.019948  0  -0.006796  0.023372  0  4.025853  0
C  C57  1  0.55733141  0.50378806  0.89955379  1  -0.013869  0  -0.006724  0.022863  0  4.02694  0
C  C58  1  0.42910718  0.60715471  0.12553778  1  -0.060493  0  -0.015713  -0.058663  0  4.058627  0
C  C59  1  0.57066155  0.39255827  0.87443985  1  -0.056684  0  -0.015743  -0.058514  0  4.059116  0
C  C60  1  0.45885310  0.71551255  0.10336976  1  -0.00465  0  -0.082903  -0.191422  0  3.955707  0
C  C61  1  0.54091141  0.28420038  0.89660570  1  -0.006656  0  -0.08338  -0.190232  0  3.955065  0
C  C62  1  0.43047239  0.38494537  0.12582527  1  -0.032135  0  -0.018329  -0.146583  0  3.957161  0
C  C63  1  0.56935515  0.61475555  0.87416480  1  -0.039982  0  -0.01849  -0.147364  0  3.95749  0
C  C64  1  0.46987522  0.50349046  0.35153229  1  -0.006084  0  -0.016963  -0.076824  0  3.932377  0
C  C65  1  0.52972772  0.49656869  0.64848396  1  -0.007961  0  -0.016992  -0.076682  0  3.934356  0
C  C66  1  0.51957371  0.61246481  0.97513538  1  -0.032725  0  -0.002032  0.064262  0  3.991077  0
C  C67  1  0.48023567  0.38721055  0.02485207  1  -0.033277  0  -0.001969  0.064445  0  3.992392  0
C  C68  1  0.50417719  0.38586106  0.97335340  1  0.02976  0  -0.011542  -0.080271  0  3.916182  0
C  C69  1  0.49562283  0.61382510  0.02663438  1  0.031461  0  -0.011552  -0.079966  0  3.916763  0
C  C70  1  0.52965635  0.49937512  0.94981134  1  0.008902  0  0.00045  0.007296  0  3.932164  0
C  C71  1  0.47012674  0.50030007  0.05018171  1  0.006927  0  0.000532  0.006918  0  3.933497  0
C  C72  1  0.52579626  0.71919655  0.94807485  1  -0.022179  0  -0.105242  -0.227046  0  3.954497  0
C  C73  1  0.47409733  0.28048224  0.05191266  1  -0.023938  0  -0.105209  -0.226473  0  3.955312  0
C  C74  1  0.55162807  0.72462269  0.89882022  1  0.01182  0  0.00657  0.186672  0  3.95745  0
C  C75  1  0.44826582  0.27508512  0.10116803  1  0.011478  0  0.006681  0.186239  0  3.958257  0
C  C76  1  0.50262413  0.72093264  0.05551502  1  0.373348  0  0.101831  0.262029  0  4.043242  0
C  C77  1  0.49718964  0.27875996  0.94447032  1  0.373745  0  0.102242  0.262719  0  4.040887  0
C  C78  1  0.37337011  0.93490771  0.49537335  1  -0.062177  0  -0.085469  -0.096008  0  3.984643  0
C  C79  1  0.62738342  0.06529128  0.50477858  1  -0.064882  0  -0.08543  -0.095396  0  3.984718  0
C  C80  1  0.37361868  0.06088314  0.49417812  1  -0.046562  0  -0.085278  -0.096209  0  3.98403  0
C  C81  1  0.62716440  0.93933355  0.50590488  1  -0.05076  0  -0.085543  -0.096571  0  3.984726  0
C  C82  1  0.50060854  0.12674660  0.49892422  1  0.018143  0  -0.014828  -0.022979  0  3.962249  0
C  C83  1  0.50018081  0.87346398  0.50117742  1  0.023467  0  -0.014454  -0.022877  0  3.962974  0
C  C84  1  0.06851727  0.42702151  0.53070456  1  0.531071  0  0.082265  0.061447  0  3.872135  0
C  C85  1  0.93181993  0.57343266  0.46930030  1  0.537917  0  0.081962  0.060794  0  3.871872  0
C  C86  1  0.07801155  0.57234832  0.47142545  1  0.48188  0  0.080529  0.063999  0  3.865558  0
C  C87  1  0.92232194  0.42805567  0.52854998  1  0.485503  0  0.080733  0.064595  0  3.866173  0
C  C88  1  0.26796967  0.54667708  0.66259332  1  -0.022152  0  -0.242024  -0.401202  0  3.994395  0
C  C89  1  0.73188191  0.45382877  0.33737130  1  -0.040787  0  -0.241835  -0.399776  0  3.99547  0
C  C90  1  0.55766589  0.84770998  0.87607237  1  -0.077624  0  -0.236832  -0.413769  0  3.970928  0
C  C91  1  0.44232993  0.15198587  0.12390205  1  -0.081795  0  -0.237198  -0.414048  0  3.971469  0
N  N92  1  0.40753769  0.50140503  0.20120359  1  -1.192648  0  -0.232867  -0.191285  0  3.584034  0
N  N93  1  0.59221422  0.49830885  0.79878757  1  -1.194262  0  -0.232415  -0.190234  0  3.584517  0
N  N94  1  0.85608762  0.50124275  0.49786301  1  -1.198573  0  -0.292697  -0.132706  0  3.505546  0
N  N95  1  0.14424284  0.49917221  0.50212459  1  -1.195239  0  -0.293164  -0.133203  0  3.506497  0
N  N96  1  0.17626047  0.55697704  0.26423907  1  -1.181552  0  -0.606326  -0.620589  0  3.279881  0
N  N97  1  0.82327670  0.44221988  0.73572719  1  -1.175908  0  -0.606609  -0.621036  0  3.27823  0
N  N98  1  0.54904631  0.83438296  0.04025716  1  -1.174463  0  -0.590562  -0.602405  0  3.319439  0
N  N99  1  0.45081675  0.16529464  0.95972804  1  -1.190331  0  -0.59077  -0.603185  0  3.318311  0
O  O100  1  0.61952875  0.68704472  0.49965384  1  -1.16864  0  -0.31948  -0.547246  0  2.324808  0
O  O101  1  0.38149402  0.31340165  0.49925058  1  -1.162939  0  -0.319494  -0.54751  0  2.325622  0
O  O102  1  0.61979473  0.31680616  0.49646287  1  -1.170405  0  -0.319559  -0.5515  0  2.333522  0
O  O103  1  0.38161236  0.68328147  0.50469882  1  -1.171416  0  -0.31972  -0.551961  0  2.332593  0
O  O104  1  0.60694703  0.50585382  0.42394036  1  -1.156036  0  -0.312413  -0.53656  0  2.331199  0
O  O105  1  0.39247352  0.49110033  0.57611869  1  -1.160419  0  -0.312177  -0.537377  0  2.329876  0
O  O106  1  0.62956946  0.49662086  0.57109219  1  -1.173858  0  -0.323094  -0.561099  0  2.337357  0
O  O107  1  0.36996443  0.50694775  0.42892850  1  -1.176126  0  -0.322397  -0.56115  0  2.33789  0
O  O108  1  0.36948376  0.70600182  0.19850091  1  -1.122078  0  -0.291017  -0.460859  0  2.075941  0
O  O109  1  0.63033112  0.29369626  0.80148838  1  -1.121815  0  -0.290926  -0.46072  0  2.075653  0
O  O110  1  0.59666397  0.70562311  0.79724006  1  -1.100557  0  -0.266961  -0.421549  0  2.101984  0
O  O111  1  0.40348364  0.29409607  0.20276340  1  -1.101383  0  -0.266947  -0.421624  0  2.101871  0
