# generated using pymatgen
data_CdAgH17C25(SN2)3
_symmetry_space_group_name_H-M   'P 1'
_cell_length_a   9.98969956
_cell_length_b   10.78426258
_cell_length_c   13.01475435
_cell_angle_alpha   72.29878142
_cell_angle_beta   68.89270973
_cell_angle_gamma   86.54209622
_symmetry_Int_Tables_number   1
_chemical_formula_structural   CdAgH17C25(SN2)3
_chemical_formula_sum   'Cd2 Ag2 H34 C50 S6 N12'
_cell_volume   1244.19159908
_cell_formula_units_Z   2
loop_
 _symmetry_equiv_pos_site_id
 _symmetry_equiv_pos_as_xyz
  1  'x, y, z'
loop_
 _atom_site_type_symbol
 _atom_site_label
 _atom_site_symmetry_multiplicity
 _atom_site_fract_x
 _atom_site_fract_y
 _atom_site_fract_z
 _atom_site_occupancy
 _atom_site_hle17_bader_spin_density
 _atom_site_hle17_ddec_charge
 _atom_site_hle17_ddec_spin_density
 _atom_site_hle17_ddec_sum_bond_order
 _atom_site_hle17_magmom
 _atom_site_hse06_10hf_bader_spin_density
 _atom_site_hse06_10hf_ddec_charge
 _atom_site_hse06_10hf_ddec_spin_density
 _atom_site_hse06_10hf_ddec_sum_bond_order
 _atom_site_hse06_10hf_magmom
 _atom_site_hse06_bader_spin_density
 _atom_site_hse06_ddec_charge
 _atom_site_hse06_ddec_spin_density
 _atom_site_hse06_ddec_sum_bond_order
 _atom_site_hse06_magmom
 _atom_site_pbe_bader_spin_density
 _atom_site_pbe_cm5_charge
 _atom_site_pbe_ddec_charge
 _atom_site_pbe_ddec_spin_density
 _atom_site_pbe_ddec_sum_bond_order
 _atom_site_pbe_magmom
Cd  Cd0  1  0.34178032  0.60409202  0.72951399  1  0  1.072058  0  1.923732  0  0  0.875969  0  2.398432  0  0  0.924422  0  2.353471  0  0  0.835438  0.84224  0  2.428954  0
Cd  Cd1  1  0.65821854  0.39590826  0.27048452  1  0  1.072072  0  1.923807  0  0  0.875995  0  2.398514  0  0  0.924449  0  2.35355  0  0  0.835448  0.842268  0  2.429036  0
Ag  Ag2  1  0.09919673  0.65534998  0.42900113  1  0  0.330443  0  1.861513  0  0  0.229962  0  2.360957  0  0  0.245657  0  2.326454  0  0  0.301014  0.218373  0  2.383281  0
Ag  Ag3  1  0.90079812  0.34465431  0.57099058  1  0  0.330346  0  1.86167  0  0  0.229852  0  2.361136  0  0  0.245548  0  2.326634  0  0  0.300967  0.218262  0  2.383459  0
H  H4  1  0.12326222  0.40066420  0.95270126  1  0  0.079819  0  0.960012  0  0  0.087327  0  1.027911  0  0  0.089783  0  1.02595  0  0  0.115128  0.085072  0  1.030681  0
H  H5  1  0.87674157  0.59933012  0.04730118  1  0  0.079939  0  0.960001  0  0  0.087332  0  1.028019  0  0  0.089783  0  1.026066  0  0  0.11515  0.085079  0  1.030786  0
H  H6  1  0.04414334  0.32440978  0.16936469  1  0  0.109306  0  0.981604  0  0  0.1192  0  1.040588  0  0  0.121461  0  1.041168  0  0  0.105688  0.117714  0  1.040007  0
H  H7  1  0.95586353  0.67558255  0.83063815  1  0  0.109267  0  0.981604  0  0  0.119177  0  1.040578  0  0  0.121439  0  1.041157  0  0  0.105695  0.11769  0  1.039996  0
H  H8  1  0.16657042  0.42885848  0.26329510  1  0  0.094233  0  0.938351  0  0  0.102594  0  1.004343  0  0  0.105408  0  1.002282  0  0  0.102599  0.100868  0  1.005228  0
H  H9  1  0.83343189  0.57114466  0.73670405  1  0  0.094222  0  0.938334  0  0  0.102571  0  1.004343  0  0  0.105383  0  1.002283  0  0  0.102574  0.100846  0  1.005227  0
H  H10  1  0.35986219  0.60175676  0.13863204  1  0  0.098034  0  1.015162  0  0  0.105968  0  1.081115  0  0  0.10847  0  1.081009  0  0  0.096546  0.103944  0  1.081721  0
H  H11  1  0.64013183  0.39825039  0.86136688  1  0  0.098011  0  1.015147  0  0  0.105967  0  1.081074  0  0  0.108468  0  1.080967  0  0  0.096545  0.103943  0  1.081681  0
H  H12  1  0.52439332  0.73610444  0.02736076  1  0  0.112006  0  0.964106  0  0  0.121559  0  1.027585  0  0  0.124714  0  1.026487  0  0  0.106091  0.119175  0  1.028729  0
H  H13  1  0.47560655  0.26389481  0.97264155  1  0  0.112007  0  0.964143  0  0  0.121565  0  1.027619  0  0  0.12472  0  1.02652  0  0  0.106085  0.119182  0  1.028762  0
H  H14  1  0.56906557  0.91078772  0.05939347  1  0  0.085915  0  0.983392  0  0  0.093446  0  1.053723  0  0  0.09597  0  1.053142  0  0  0.091868  0.09185  0  1.053651  0
H  H15  1  0.43093223  0.08921256  0.94060609  1  0  0.085942  0  0.9834  0  0  0.09347  0  1.053735  0  0  0.095992  0  1.053151  0  0  0.09188  0.091876  0  1.053657  0
H  H16  1  0.69912213  0.05723237  0.10860237  1  0  0.089714  0  0.956594  0  0  0.103851  0  1.013286  0  0  0.105972  0  1.013658  0  0  0.097148  0.102439  0  1.012975  0
H  H17  1  0.30087438  0.94276498  0.89139981  1  0  0.08965  0  0.95666  0  0  0.103806  0  1.013339  0  0  0.10593  0  1.013711  0  0  0.097137  0.102392  0  1.013028  0
H  H18  1  0.97176283  0.29414012  0.90811113  1  0  0.113648  0  0.961998  0  0  0.134243  0  1.025793  0  0  0.134627  0  1.027159  0  0  0.08869  0.13377  0  1.025066  0
H  H19  1  0.02824089  0.70585322  0.09189234  1  0  0.113612  0  0.961964  0  0  0.134211  0  1.025741  0  0  0.134596  0  1.027106  0  0  0.088647  0.13374  0  1.025014  0
H  H20  1  0.06019648  0.16560586  0.97452041  1  0  0.107909  0  0.970943  0  0  0.129118  0  1.033997  0  0  0.12903  0  1.036794  0  0  0.088561  0.128971  0  1.032242  0
H  H21  1  0.93980273  0.83438463  0.02548194  1  0  0.107848  0  0.970908  0  0  0.129036  0  1.033982  0  0  0.128947  0  1.036777  0  0  0.088531  0.12889  0  1.032228  0
H  H22  1  0.89212180  0.21037361  0.05913211  1  0  0.109005  0  0.946638  0  0  0.129102  0  1.009498  0  0  0.130577  0  1.009019  0  0  0.086832  0.128129  0  1.00968  0
H  H23  1  0.10788100  0.78962170  0.94087113  1  0  0.108957  0  0.946547  0  0  0.129039  0  1.009433  0  0  0.1305  0  1.008968  0  0  0.086797  0.128066  0  1.009615  0
H  H24  1  0.04003000  0.12567408  0.77793271  1  0  0.091777  0  0.954566  0  0  0.104532  0  1.014142  0  0  0.106803  0  1.014079  0  0  0.097535  0.103119  0  1.013703  0
H  H25  1  0.95997081  0.87432319  0.22207214  1  0  0.091707  0  0.954588  0  0  0.104487  0  1.014148  0  0  0.106758  0  1.014084  0  0  0.09754  0.10308  0  1.013704  0
H  H26  1  0.91375250  0.97656615  0.72816939  1  0  0.08811  0  0.966984  0  0  0.09796  0  1.032292  0  0  0.100272  0  1.031706  0  0  0.094117  0.09632  0  1.032824  0
H  H27  1  0.08624723  0.02343113  0.27183575  1  0  0.088096  0  0.967013  0  0  0.097966  0  1.03229  0  0  0.100271  0  1.031711  0  0  0.094147  0.096328  0  1.03282  0
H  H28  1  0.74171316  0.96034720  0.67179417  1  0  0.107944  0  0.982377  0  0  0.113897  0  1.05355  0  0  0.11768  0  1.05134  0  0  0.101149  0.111086  0  1.05562  0
H  H29  1  0.25828808  0.03965593  0.32820681  1  0  0.107975  0  0.98233  0  0  0.11395  0  1.053485  0  0  0.117704  0  1.051304  0  0  0.101156  0.111138  0  1.055556  0
H  H30  1  0.75170712  0.99738422  0.50573353  1  0  0.100419  0  0.987495  0  0  0.109668  0  1.052216  0  0  0.112144  0  1.052113  0  0  0.098918  0.10801  0  1.052099  0
H  H31  1  0.24829312  0.00261990  0.49426749  1  0  0.100354  0  0.987438  0  0  0.109625  0  1.052131  0  0  0.11209  0  1.052054  0  0  0.098911  0.107943  0  1.05204  0
H  H32  1  0.76676904  0.02079320  0.30726579  1  0  0.100161  0  0.950982  0  0  0.111532  0  1.009776  0  0  0.113982  0  1.008247  0  0  0.106389  0.109843  0  1.010595  0
H  H33  1  0.23323334  0.97921090  0.69273386  1  0  0.100081  0  0.951152  0  0  0.111465  0  1.009935  0  0  0.113914  0  1.008406  0  0  0.106357  0.109776  0  1.010748  0
H  H34  1  0.61816040  0.86234752  0.27568171  1  0  0.103599  0  0.954195  0  0  0.11361  0  1.014152  0  0  0.116347  0  1.014158  0  0  0.10499  0.111529  0  1.014573  0
H  H35  1  0.38184605  0.13765361  0.72431831  1  0  0.103686  0  0.954088  0  0  0.113661  0  1.014082  0  0  0.116396  0  1.01409  0  0  0.104993  0.111578  0  1.014502  0
H  H36  1  0.45578719  0.69529131  0.44906287  1  0  0.074068  0  0.958038  0  0  0.083144  0  1.02269  0  0  0.084622  0  1.021763  0  0  0.110523  0.081988  0  1.023322  0
H  H37  1  0.54421804  0.30470788  0.55093797  1  0  0.074076  0  0.957985  0  0  0.083154  0  1.022637  0  0  0.084631  0  1.021713  0  0  0.110532  0.081998  0  1.02327  0
C  C38  1  0.17241887  0.44209364  0.99829976  1  0  0.128022  0  3.7122  0  0  0.099302  0  3.961435  0  0  0.105532  0  3.97985  0  0  0.049424  0.094345  0  3.951038  0
C  C39  1  0.82758621  0.55790360  0.00170160  1  0  0.127841  0  3.712249  0  0  0.09921  0  3.961499  0  0  0.105442  0  3.979914  0  0  0.04937  0.094254  0  3.951105  0
C  C40  1  0.12976957  0.39987497  0.11822074  1  0  -0.103819  0  3.708378  0  0  -0.118496  0  3.957353  0  0  -0.124927  0  3.979701  0  0  -0.079067  -0.113408  0  3.94249  0
C  C41  1  0.87023445  0.60012227  0.88178245  1  0  -0.103659  0  3.708402  0  0  -0.118354  0  3.957349  0  0  -0.124784  0  3.979696  0  0  -0.079039  -0.113267  0  3.942488  0
C  C42  1  0.19792628  0.45843397  0.16951552  1  0  0.011514  0  3.695514  0  0  -0.006203  0  3.946318  0  0  -0.003428  0  3.96503  0  0  -0.062199  -0.007793  0  3.932517  0
C  C43  1  0.80207818  0.54156913  0.83048458  1  0  0.01147  0  3.695412  0  0  -0.006248  0  3.946253  0  0  -0.003473  0  3.964965  0  0  -0.062175  -0.007839  0  3.932452  0
C  C44  1  0.30670613  0.55487819  0.09960943  1  0  -0.136487  0  3.693301  0  0  -0.155302  0  3.937963  0  0  -0.161507  0  3.959066  0  0  -0.079451  -0.150641  0  3.924167  0
C  C45  1  0.69329303  0.44512596  0.90038958  1  0  -0.136499  0  3.69315  0  0  -0.15531  0  3.937793  0  0  -0.161512  0  3.958895  0  0  -0.079446  -0.150648  0  3.923994  0
C  C46  1  0.34411957  0.59236989  0.97958280  1  0  0.175731  0  3.745485  0  0  0.17281  0  3.984791  0  0  0.178996  0  4.005183  0  0  0.119331  0.168605  0  3.971662  0
C  C47  1  0.65587623  0.40763235  0.02041837  1  0  0.175713  0  3.745481  0  0  0.172788  0  3.984804  0  0  0.178972  0  4.005195  0  0  0.119277  0.168584  0  3.971674  0
C  C48  1  0.45862619  0.69524775  0.89912967  1  0  0.190693  0  3.778607  0  0  0.184045  0  4.027473  0  0  0.191493  0  4.04647  0  0  0.121925  0.179081  0  4.015272  0
C  C49  1  0.54136954  0.30475351  0.10087176  1  0  0.190761  0  3.77865  0  0  0.184078  0  4.027571  0  0  0.191524  0  4.046567  0  0  0.12201  0.179111  0  4.015372  0
C  C50  1  0.54077100  0.76034515  0.93604124  1  0  -0.170857  0  3.641586  0  0  -0.197611  0  3.892526  0  0  -0.204313  0  3.912188  0  0  -0.075663  -0.193511  0  3.879804  0
C  C51  1  0.45922672  0.23965414  0.06396013  1  0  -0.170906  0  3.641654  0  0  -0.197635  0  3.892612  0  0  -0.204334  0  3.912273  0  0  -0.075687  -0.193536  0  3.879892  0
C  C52  1  0.64540152  0.85751877  0.85432538  1  0  0.116555  0  3.74931  0  0  0.127354  0  3.98402  0  0  0.132622  0  4.005556  0  0  0.014777  0.124515  0  3.969631  0
C  C53  1  0.35459942  0.14248047  0.14567664  1  0  0.116625  0  3.749266  0  0  0.127357  0  3.984037  0  0  0.132625  0  4.005568  0  0  0.014755  0.124517  0  3.969651  0
C  C54  1  0.73026749  0.93329030  0.88919971  1  0  0.020659  0  3.781429  0  0  0.036868  0  4.010522  0  0  0.034061  0  4.034698  0  0  -0.01861  0.039316  0  3.994047  0
C  C55  1  0.26973224  0.06670699  0.11080466  1  0  0.020578  0  3.781439  0  0  0.036839  0  4.010507  0  0  0.034034  0  4.034684  0  0  -0.018564  0.03929  0  3.994032  0
C  C56  1  0.67394504  0.95500417  0.99765289  1  0  -0.099088  0  3.744859  0  0  -0.119392  0  3.995554  0  0  -0.119942  0  4.015557  0  0  -0.09064  -0.11894  0  3.981361  0
C  C57  1  0.32604947  0.04499515  0.00234936  1  0  -0.099272  0  3.744936  0  0  -0.119585  0  3.995636  0  0  -0.120132  0  4.015637  0  0  -0.090779  -0.119133  0  3.981436  0
C  C58  1  0.74695439  0.03887150  0.02522917  1  0  -0.135959  0  3.742046  0  0  -0.15359  0  3.986311  0  0  -0.157884  0  4.008396  0  0  -0.096447  -0.151065  0  3.971487  0
C  C59  1  0.25303790  0.96112689  0.97477316  1  0  -0.135779  0  3.741991  0  0  -0.153393  0  3.986272  0  0  -0.157693  0  4.008363  0  0  -0.096355  -0.150867  0  3.971448  0
C  C60  1  0.87840330  0.10353769  0.94679576  1  0  0.162998  0  3.736969  0  0  0.189414  0  3.968554  0  0  0.191344  0  3.992737  0  0  -0.001427  0.187986  0  3.952628  0
C  C61  1  0.12159300  0.89645669  0.05321182  1  0  0.162987  0  3.736925  0  0  0.189303  0  3.968639  0  0  0.191234  0  3.992821  0  0  -0.001445  0.187867  0  3.952721  0
C  C62  1  0.95389874  0.19841778  0.97423919  1  0  -0.345706  0  3.7178  0  0  -0.426529  0  3.950049  0  0  -0.428976  0  3.960847  0  0  -0.245156  -0.424692  0  3.943081  0
C  C63  1  0.04610307  0.80157850  0.02576562  1  0  -0.345531  0  3.71763  0  0  -0.426266  0  3.949887  0  0  -0.428699  0  3.960696  0  0  -0.245004  -0.424426  0  3.942919  0
C  C64  1  0.93716672  0.07751048  0.84033017  1  0  -0.126534  0  3.722864  0  0  -0.143093  0  3.964376  0  0  -0.146962  0  3.985296  0  0  -0.092563  -0.13983  0  3.949119  0
C  C65  1  0.06283172  0.92248389  0.15967528  1  0  -0.126474  0  3.722784  0  0  -0.143039  0  3.964357  0  0  -0.146908  0  3.985274  0  0  -0.09262  -0.139779  0  3.949103  0
C  C66  1  0.86525045  0.99397021  0.81194412  1  0  -0.089894  0  3.730999  0  0  -0.107342  0  3.97641  0  0  -0.10805  0  3.996519  0  0  -0.089623  -0.106602  0  3.962207  0
C  C67  1  0.13474506  0.00602812  0.18805963  1  0  -0.089823  0  3.730916  0  0  -0.10729  0  3.976302  0  0  -0.10799  0  3.996411  0  0  -0.089607  -0.10655  0  3.9621  0
C  C68  1  0.66370851  0.88404856  0.73725096  1  0  -0.175164  0  3.654513  0  0  -0.202422  0  3.905835  0  0  -0.209281  0  3.925249  0  0  -0.077725  -0.199344  0  3.894607  0
C  C69  1  0.33628866  0.11595756  0.26274965  1  0  -0.175357  0  3.654581  0  0  -0.202631  0  3.905931  0  0  -0.209466  0  3.925357  0  0  -0.077834  -0.199552  0  3.894703  0
C  C70  1  0.57952564  0.81379450  0.70605435  1  0  0.200173  0  3.762874  0  0  0.194745  0  4.007111  0  0  0.202421  0  4.025644  0  0  0.124434  0.189411  0  3.994829  0
C  C71  1  0.42047552  0.18620768  0.29394458  1  0  0.200394  0  3.762927  0  0  0.194951  0  4.007112  0  0  0.202633  0  4.025634  0  0  0.124549  0.189617  0  3.994832  0
C  C72  1  0.59425699  0.83390935  0.58396142  1  0  0.177078  0  3.74185  0  0  0.174459  0  3.980829  0  0  0.180496  0  4.001491  0  0  0.119523  0.170438  0  3.966496  0
C  C73  1  0.40574632  0.16609280  0.41603692  1  0  0.176881  0  3.741927  0  0  0.174359  0  3.980765  0  0  0.180398  0  4.001428  0  0  0.119484  0.170339  0  3.966426  0
C  C74  1  0.68726082  0.93110553  0.49132207  1  0  -0.123769  0  3.674998  0  0  -0.142198  0  3.919405  0  0  -0.148741  0  3.941562  0  0  -0.079654  -0.138029  0  3.90406  0
C  C75  1  0.31273950  0.06889955  0.50868022  1  0  -0.123667  0  3.674882  0  0  -0.142131  0  3.919284  0  0  -0.148677  0  3.941433  0  0  -0.079714  -0.137946  0  3.903952  0
C  C76  1  0.69637692  0.94341702  0.37912914  1  0  -0.005752  0  3.713841  0  0  -0.02463  0  3.965296  0  0  -0.0218  0  3.984199  0  0  -0.068356  -0.026001  0  3.952159  0
C  C77  1  0.30362647  0.05658607  0.62087356  1  0  -0.005624  0  3.714066  0  0  -0.024528  0  3.965515  0  0  -0.021695  0  3.984416  0  0  -0.068259  -0.025897  0  3.95237  0
C  C78  1  0.61382459  0.85785357  0.36157248  1  0  -0.113691  0  3.724406  0  0  -0.128122  0  3.979185  0  0  -0.134631  0  4.000739  0  0  -0.082763  -0.124216  0  3.965205  0
C  C79  1  0.38618179  0.14214657  0.63842858  1  0  -0.113798  0  3.724605  0  0  -0.128188  0  3.979387  0  0  -0.134696  0  4.000942  0  0  -0.082779  -0.12428  0  3.965402  0
C  C80  1  0.52290011  0.76417119  0.45819212  1  0  0.143165  0  3.720191  0  0  0.110574  0  3.975013  0  0  0.117099  0  3.9944  0  0  0.050315  0.106473  0  3.961932  0
C  C81  1  0.47709905  0.23583296  0.54180765  1  0  0.143154  0  3.720188  0  0  0.110557  0  3.97501  0  0  0.117079  0  3.9944  0  0  0.050286  0.106453  0  3.961928  0
C  C82  1  0.16638414  0.44130558  0.64688235  1  0  0.289641  0  3.958233  0  0  0.275293  0  4.247462  0  0  0.295804  0  4.262559  0  0  0.144849  0.260898  0  4.236771  0
C  C83  1  0.83361598  0.55869772  0.35310353  1  0  0.289858  0  3.958198  0  0  0.275525  0  4.247394  0  0  0.296037  0  4.262482  0  0  0.145005  0.261129  0  4.23671  0
C  C84  1  0.11327327  0.78236023  0.62842425  1  0  0.290968  0  4.002603  0  0  0.274561  0  4.298888  0  0  0.29609  0  4.312636  0  0  0.14405  0.259687  0  4.289666  0
C  C85  1  0.88671879  0.21763528  0.37157347  1  0  0.290921  0  4.002626  0  0  0.274516  0  4.298917  0  0  0.296044  0  4.31267  0  0  0.14401  0.25964  0  4.2897  0
C  C86  1  0.57103430  0.35306849  0.71718626  1  0  0.26967  0  4.034673  0  0  0.254343  0  4.330085  0  0  0.275508  0  4.343686  0  0  0.136906  0.239869  0  4.319936  0
C  C87  1  0.42896087  0.64693961  0.28281288  1  0  0.269541  0  4.034562  0  0  0.254212  0  4.330008  0  0  0.275381  0  4.343611  0  0  0.136767  0.239737  0  4.319854  0
S  S88  1  0.16033427  0.41410554  0.53133367  1  0  -0.277496  0  2.510226  0  0  -0.232741  0  2.911158  0  0  -0.248389  0  2.899398  0  0  -0.157109  -0.220416  0  2.917256  0
S  S89  1  0.83966386  0.58589970  0.46865460  1  0  -0.277612  0  2.510224  0  0  -0.232864  0  2.91115  0  0  -0.248514  0  2.899391  0  0  -0.157172  -0.220533  0  2.91725  0
S  S90  1  0.01564323  0.82006519  0.54773118  1  0  -0.318472  0  2.282873  0  0  -0.285538  0  2.646554  0  0  -0.300946  0  2.638466  0  0  -0.157057  -0.275172  0  2.651815  0
S  S91  1  0.98435419  0.17993023  0.45226814  1  0  -0.318473  0  2.28278  0  0  -0.28553  0  2.646438  0  0  -0.300942  0  2.638353  0  0  -0.157089  -0.275163  0  2.651697  0
S  S92  1  0.67819252  0.23428313  0.73539233  1  0  -0.315974  0  2.398303  0  0  -0.278744  0  2.777255  0  0  -0.295984  0  2.770744  0  0  -0.148514  -0.26577  0  2.781253  0
S  S93  1  0.32181170  0.76571709  0.26460393  1  0  -0.315886  0  2.398703  0  0  -0.278646  0  2.777638  0  0  -0.295882  0  2.771128  0  0  -0.148487  -0.265676  0  2.781636  0
N  N94  1  0.51291364  0.75303307  0.56584050  1  0  -0.35346  0  3.256262  0  0  -0.283624  0  3.512731  0  0  -0.302314  0  3.532335  0  0  -0.322612  -0.271157  0  3.49952  0
N  N95  1  0.48708667  0.24697205  0.43415795  1  0  -0.353393  0  3.25619  0  0  -0.283585  0  3.512625  0  0  -0.302276  0  3.532231  0  0  -0.322551  -0.27112  0  3.499412  0
N  N96  1  0.47932104  0.72288514  0.78660743  1  0  -0.38845  0  3.248989  0  0  -0.326888  0  3.506767  0  0  -0.344176  0  3.522601  0  0  -0.329154  -0.315506  0  3.49611  0
N  N97  1  0.52067705  0.27711903  0.21339187  1  0  -0.388469  0  3.249087  0  0  -0.326922  0  3.506911  0  0  -0.34421  0  3.522743  0  0  -0.329188  -0.315541  0  3.496255  0
N  N98  1  0.27574590  0.53593366  0.93126113  1  0  -0.355418  0  3.256581  0  0  -0.283721  0  3.515051  0  0  -0.301899  0  3.532987  0  0  -0.326554  -0.271539  0  3.503061  0
N  N99  1  0.72425497  0.46406463  0.06873807  1  0  -0.355369  0  3.256562  0  0  -0.283655  0  3.51497  0  0  -0.301831  0  3.532904  0  0  -0.326525  -0.271475  0  3.502981  0
N  N100  1  0.17442337  0.46056885  0.72946708  1  0  -0.52636  0  2.829005  0  0  -0.470695  0  3.08658  0  0  -0.49075  0  3.095154  0  0  -0.384117  -0.456638  0  3.080659  0
N  N101  1  0.82558526  0.53943336  0.27051747  1  0  -0.526507  0  2.829128  0  0  -0.470861  0  3.086715  0  0  -0.490914  0  3.09528  0  0  -0.384211  -0.456806  0  3.0808  0
N  N102  1  0.18092016  0.75863995  0.69018586  1  0  -0.559295  0  2.847553  0  0  -0.505741  0  3.119944  0  0  -0.525542  0  3.124459  0  0  -0.401194  -0.492208  0  3.11674  0
N  N103  1  0.81907511  0.24135552  0.30981098  1  0  -0.559232  0  2.847681  0  0  -0.505676  0  3.120081  0  0  -0.525476  0  3.124598  0  0  -0.401116  -0.492144  0  3.116879  0
N  N104  1  0.49259702  0.43824250  0.70554905  1  0  -0.523305  0  2.872812  0  0  -0.467748  0  3.146109  0  0  -0.488876  0  3.152602  0  0  -0.389079  -0.452511  0  3.140614  0
N  N105  1  0.50741022  0.56175470  0.29445325  1  0  -0.523328  0  2.872299  0  0  -0.467764  0  3.145604  0  0  -0.488906  0  3.152118  0  0  -0.388979  -0.452513  0  3.140083  0
