# generated using pymatgen
data_CoH14C14(NO2)2
_symmetry_space_group_name_H-M   'P 1'
_cell_length_a   7.93062182
_cell_length_b   9.01047028
_cell_length_c   10.58684093
_cell_angle_alpha   109.78548864
_cell_angle_beta   99.84774893
_cell_angle_gamma   100.42609698
_symmetry_Int_Tables_number   1
_chemical_formula_structural   CoH14C14(NO2)2
_chemical_formula_sum   'Co2 H28 C28 N4 O8'
_cell_volume   677.69421482
_cell_formula_units_Z   2
loop_
 _symmetry_equiv_pos_site_id
 _symmetry_equiv_pos_as_xyz
  1  'x, y, z'
loop_
 _atom_site_type_symbol
 _atom_site_label
 _atom_site_symmetry_multiplicity
 _atom_site_fract_x
 _atom_site_fract_y
 _atom_site_fract_z
 _atom_site_occupancy
 _atom_site_pbe_cm5_charge
 _atom_site_pbe_ddec_charge
 _atom_site_pbe_ddec_spin_density
 _atom_site_pbe_ddec_sum_bond_order
 _atom_site_pbe_magmom
Co  Co0  1  0.66565317  0.98311065  0.65264299  1  0.664284  0.844664  2.859621  2.525491  2.561
Co  Co1  1  0.33434501  0.01688857  0.34735730  1  0.664265  0.844631  -2.859628  2.52556  -2.561
H  H2  1  0.48623881  0.62486092  0.49593473  1  0.116781  0.082713  0.000513  1.026809  0.001
H  H3  1  0.51376540  0.37513704  0.50406692  1  0.116787  0.082699  -0.000513  1.026885  -0.001
H  H4  1  0.46650136  0.40164342  0.27624117  1  0.107451  0.126331  0.00016  1.050202  0.0
H  H5  1  0.53350321  0.59835576  0.72375898  1  0.107431  0.1263  -0.00016  1.050237  0.0
H  H6  1  0.85925112  0.74592079  0.20209448  1  0.10732  0.118656  0.00031  1.032958  0.0
H  H7  1  0.14074671  0.25407722  0.79790163  1  0.107318  0.118664  -0.00031  1.032885  0.0
H  H8  1  0.86177809  0.94764408  0.42128472  1  0.120727  0.094296  0.000351  1.012986  0.001
H  H9  1  0.13822578  0.05235267  0.57871275  1  0.120739  0.094306  -0.000351  1.013021  -0.001
H  H10  1  0.46319229  0.02100732  0.87376544  1  0.118344  0.090735  0.000324  1.013915  0.001
H  H11  1  0.53680113  0.97899316  0.12623082  1  0.118329  0.090726  -0.000324  1.013917  -0.001
H  H12  1  0.45261871  0.23005362  0.09383020  1  0.108302  0.128435  0.000124  1.047689  0.0
H  H13  1  0.54737123  0.76994811  0.90616409  1  0.108309  0.128488  -0.000124  1.047603  0.0
H  H14  1  0.85379425  0.56897453  0.02407022  1  0.104709  0.105474  0.000436  1.040003  0.0
H  H15  1  0.14620891  0.43101977  0.97593023  1  0.104736  0.105534  -0.000436  1.040022  0.0
H  H16  1  0.84523671  0.34366335  0.80792612  1  0.11513  0.087961  0.000313  1.022663  0.001
H  H17  1  0.15476681  0.65633217  0.19207378  1  0.115105  0.087941  -0.000313  1.02269  -0.001
H  H18  1  0.97846149  0.26888438  0.44402531  1  0.100515  0.163204  6.1e-05  1.00533  0.0
H  H19  1  0.02153192  0.73110264  0.55597084  1  0.100499  0.16318  -6.1e-05  1.005323  0.0
H  H20  1  0.81516070  0.36083007  0.38684703  1  0.091647  0.143496  0.000495  1.024526  0.001
H  H21  1  0.18484061  0.63916669  0.61315484  1  0.091651  0.143518  -0.000495  1.024533  -0.001
H  H22  1  0.91488812  0.42188368  0.56853926  1  0.094757  0.149073  -0.000881  1.004155  -0.001
H  H23  1  0.08511400  0.57810696  0.43146094  1  0.094731  0.149044  0.000881  1.004165  0.001
H  H24  1  0.97305067  0.81851724  0.96489492  1  0.096559  0.15263  0.000384  1.003515  0.0
H  H25  1  0.02694414  0.18148811  0.03510954  1  0.096566  0.152673  -0.000384  1.003524  0.0
H  H26  1  0.14726179  0.89135510  0.89577200  1  0.096343  0.154257  0.000807  0.999108  0.001
H  H27  1  0.85274312  0.10865874  0.10424282  1  0.096354  0.154211  -0.000807  0.999082  -0.001
H  H28  1  0.00119512  0.69307660  0.80432240  1  0.096753  0.147083  -0.000192  0.999214  0.0
H  H29  1  0.99881143  0.30693846  0.19568354  1  0.096746  0.14709  0.000192  0.99922  0.0
C  C30  1  0.56613308  0.64580326  0.42661109  1  0.037488  0.08878  -0.004018  3.95566  -0.005
C  C31  1  0.43387091  0.35419837  0.57338970  1  0.037468  0.088787  0.004017  3.955672  0.005
C  C32  1  0.55630720  0.52086478  0.30287158  1  -0.086837  -0.177395  0.000992  3.923772  0.002
C  C33  1  0.44369226  0.47913444  0.69712604  1  -0.086827  -0.177382  -0.000992  3.923823  -0.002
C  C34  1  0.66084226  0.55051422  0.21477541  1  0.007166  0.093451  -0.006823  3.976462  -0.008
C  C35  1  0.33915522  0.44948257  0.78522219  1  0.007147  0.093455  0.006823  3.976468  0.008
C  C36  1  0.77204012  0.70857432  0.26080376  1  -0.079963  -0.162027  0.000829  3.913088  0.002
C  C37  1  0.22796155  0.29142367  0.73919284  1  -0.079858  -0.161885  -0.00083  3.913003  -0.002
C  C38  1  0.77406248  0.82613905  0.38646211  1  0.051634  0.112641  -0.004306  3.926054  -0.006
C  C39  1  0.22594209  0.17386013  0.61353805  1  0.051565  0.112534  0.004306  3.926234  0.006
C  C40  1  0.54901856  0.14428649  0.91269644  1  0.05027  0.101778  -0.004234  3.936209  -0.005
C  C41  1  0.45097637  0.85571032  0.08729895  1  0.050301  0.10183  0.004232  3.936209  0.005
C  C42  1  0.54402504  0.26300492  0.03571105  1  -0.084272  -0.177708  0.000773  3.910177  0.002
C  C43  1  0.45596617  0.73699680  0.96428434  1  -0.084254  -0.177707  -0.000773  3.910186  -0.002
C  C44  1  0.65601687  0.42123802  0.08252042  1  0.006682  0.096754  -0.006923  3.983677  -0.008
C  C45  1  0.34397968  0.57875999  0.91747741  1  0.006628  0.096628  0.006922  3.983749  0.008
C  C46  1  0.76525035  0.44955237  0.99722140  1  -0.086909  -0.179925  0.001103  3.963257  0.002
C  C47  1  0.23475097  0.55044439  0.00277764  1  -0.086922  -0.179963  -0.001103  3.963513  -0.002
C  C48  1  0.76237963  0.32416339  0.87599639  1  0.041071  0.086253  -0.00373  3.965896  -0.005
C  C49  1  0.23761843  0.67583094  0.12399963  1  0.041109  0.08629  0.00373  3.966013  0.005
C  C50  1  0.72544131  0.18813430  0.47607550  1  0.218315  0.682616  -0.004148  4.138766  -0.004
C  C51  1  0.27455292  0.81186006  0.52392004  1  0.2183  0.682578  0.004148  4.138877  0.004
C  C52  1  0.86625403  0.31925324  0.46801250  1  -0.247271  -0.52515  0.000119  3.892011  0.0
C  C53  1  0.13374588  0.68073863  0.53198778  1  -0.247229  -0.52513  -0.00012  3.892021  0.0
C  C54  1  0.88464165  0.88532299  0.79298553  1  0.193104  0.647577  -0.002081  4.173288  -0.006
C  C55  1  0.11536745  0.11469206  0.20702073  1  0.193173  0.647555  0.00208  4.173516  0.006
C  C56  1  0.01031793  0.81976703  0.87012865  1  -0.245737  -0.509637  0.002175  3.894116  0.002
C  C57  1  0.98968920  0.18024559  0.12988137  1  -0.245765  -0.509657  -0.002175  3.894125  -0.002
N  N58  1  0.67154084  0.79801749  0.46936589  1  -0.328089  -0.263867  0.024062  3.602726  0.039
N  N59  1  0.32846338  0.20198048  0.53063292  1  -0.328044  -0.263838  -0.024062  3.60265  -0.039
N  N60  1  0.65735201  0.17196278  0.83332741  1  -0.325369  -0.239993  0.027019  3.564158  0.044
N  N61  1  0.34264582  0.82803522  0.16667154  1  -0.325396  -0.240051  -0.027015  3.564073  -0.044
O  O62  1  0.59216387  0.11432940  0.37214418  1  -0.314959  -0.567907  -0.042894  2.406448  -0.063
O  O63  1  0.40783419  0.88566494  0.62785374  1  -0.314975  -0.567903  0.0429  2.406427  0.063
O  O64  1  0.75087366  0.15910247  0.58626183  1  -0.312753  -0.570613  0.040443  2.444381  0.058
O  O65  1  0.24912127  0.84089433  0.41373640  1  -0.312752  -0.5706  -0.040441  2.44445  -0.058
O  O66  1  0.71826293  0.83905077  0.78027351  1  -0.316927  -0.563583  0.040112  2.228063  0.065
O  O67  1  0.28174119  0.16095576  0.21972304  1  -0.316934  -0.563553  -0.040105  2.228128  -0.065
O  O68  1  0.94217579  0.98386401  0.73807396  1  -0.316271  -0.561022  0.042475  2.181733  0.069
O  O69  1  0.05783564  0.01615470  0.26193743  1  -0.316294  -0.561022  -0.042477  2.181961  -0.069
