# generated using pymatgen
data_CoH28C24(NO3)2
_symmetry_space_group_name_H-M   'P 1'
_cell_length_a   8.10262267
_cell_length_b   9.03762693
_cell_length_c   9.04072274
_cell_angle_alpha   103.69609548
_cell_angle_beta   116.62740757
_cell_angle_gamma   89.98519346
_symmetry_Int_Tables_number   1
_chemical_formula_structural   CoH28C24(NO3)2
_chemical_formula_sum   'Co1 H28 C24 N2 O6'
_cell_volume   570.70722311
_cell_formula_units_Z   1
loop_
 _symmetry_equiv_pos_site_id
 _symmetry_equiv_pos_as_xyz
  1  'x, y, z'
loop_
 _atom_site_type_symbol
 _atom_site_label
 _atom_site_symmetry_multiplicity
 _atom_site_fract_x
 _atom_site_fract_y
 _atom_site_fract_z
 _atom_site_occupancy
 _atom_site_hle17_ddec_charge
 _atom_site_hle17_ddec_spin_density
 _atom_site_hle17_ddec_sum_bond_order
 _atom_site_hle17_magmom
 _atom_site_hse06_10hf_ddec_charge
 _atom_site_hse06_10hf_ddec_spin_density
 _atom_site_hse06_10hf_ddec_sum_bond_order
 _atom_site_hse06_10hf_magmom
 _atom_site_hse06_ddec_charge
 _atom_site_hse06_ddec_spin_density
 _atom_site_hse06_ddec_sum_bond_order
 _atom_site_hse06_magmom
 _atom_site_pbe_cm5_charge
 _atom_site_pbe_ddec_charge
 _atom_site_pbe_ddec_spin_density
 _atom_site_pbe_ddec_sum_bond_order
 _atom_site_pbe_magmom
Co  Co0  1  0.22523687  0.00000719  0.00006333  1  0.909421  2.814417  1.85368  2.54  0.858158  2.833304  2.236624  2.62  0.952409  2.878774  2.167103  2.707  0.638824  0.780411  2.790957  2.293845  2.541
H  H1  1  0.12707746  0.86571874  0.57959364  1  0.066434  -5.7e-05  0.918082  0.0  0.083146  -6e-05  0.977232  0.0  0.083726  -5.8e-05  0.976005  0.0  0.108813  0.082795  -4.4e-05  0.978192  0.0
H  H2  1  0.54748928  0.13427568  0.42017970  1  0.066416  -3.6e-05  0.917411  0.0  0.082826  -4e-05  0.976997  0.0  0.083418  -4.4e-05  0.975735  0.0  0.108457  0.082458  -4.5e-05  0.977757  0.0
H  H3  1  0.34442042  0.80545052  0.60382699  1  0.0638  0.000349  0.974199  0.001  0.079507  0.00034  1.03558  0.001  0.078305  0.000232  1.039142  0.0  0.103747  0.080793  0.000435  1.032804  0.001
H  H4  1  0.74052388  0.19464891  0.39591195  1  0.063634  0.000334  0.974509  0.001  0.079701  0.000325  1.035187  0.001  0.078495  0.00022  1.038721  0.0  0.103549  0.08057  0.000435  1.032986  0.001
H  H5  1  0.56998137  0.81347505  0.91814468  1  0.053986  -0.000185  0.935199  0.0  0.067867  -0.000203  0.999453  0.0  0.068301  -0.000164  0.9988  0.0  0.100487  0.067252  -0.000231  1.000644  0.0
H  H6  1  0.65172258  0.18687572  0.08161371  1  0.053203  -0.00019  0.935501  0.0  0.06726  -0.000194  0.999974  0.0  0.067722  -0.000159  0.999266  0.0  0.100294  0.06701  -0.000231  1.000502  0.0
H  H7  1  0.43731203  0.63043977  0.80286717  1  0.06443  0.000509  0.926909  0.001  0.080258  0.00049  0.988885  0.001  0.080151  0.000333  0.989721  0.0  0.102851  0.080116  0.000699  0.988948  0.001
H  H8  1  0.63379047  0.36972767  0.19690061  1  0.064388  0.000499  0.926585  0.001  0.080091  0.000477  0.988682  0.001  0.080008  0.000324  0.989474  0.0  0.102648  0.079555  0.000703  0.989499  0.001
H  H9  1  0.30794460  0.64742376  0.00564375  1  0.094021  -0.000107  0.923087  0.0  0.108499  -0.000114  0.986768  0.0  0.109037  -9.8e-05  0.986992  0.0  0.11803  0.10833  -0.000126  0.986618  0.0
H  H10  1  0.30168546  0.35237203  0.99430667  1  0.094454  -0.000112  0.923512  0.0  0.108637  -0.000123  0.987808  0.0  0.109168  -0.000105  0.988067  0.0  0.117923  0.108862  -0.000125  0.986657  0.0
H  H11  1  0.55623203  0.66261814  0.11731585  1  0.072749  0.001549  0.90981  0.002  0.09263  0.001202  0.963154  0.002  0.092672  0.000804  0.963779  0.001  0.105631  0.091895  0.001696  0.964247  0.002
H  H12  1  0.43792225  0.33739237  0.88230984  1  0.072787  0.001538  0.910988  0.002  0.092827  0.001192  0.964109  0.002  0.092824  0.000799  0.964774  0.001  0.105716  0.092026  0.001698  0.965141  0.002
H  H13  1  0.67514903  0.95718814  0.16269824  1  0.074228  -0.00017  0.932237  0.0  0.092626  -0.0002  0.992173  0.0  0.093173  -0.000162  0.991839  0.0  0.110334  0.092406  -0.000223  0.992383  0.0
H  H14  1  0.51206529  0.04280812  0.83717487  1  0.074767  -0.000158  0.931952  0.0  0.092584  -0.000197  0.992042  0.0  0.093126  -0.000161  0.991783  0.0  0.110358  0.092143  -0.000224  0.992765  0.0
H  H15  1  0.71547594  0.90918675  0.35337741  1  0.068205  0.001385  0.938783  0.002  0.086244  0.001015  1.001032  0.001  0.086669  0.000669  1.000961  0.001  0.102282  0.086038  0.001381  1.001129  0.002
H  H16  1  0.36163797  0.09087973  0.64657794  1  0.068738  0.00142  0.938489  0.002  0.086354  0.001053  1.001034  0.001  0.086791  0.000695  1.000963  0.001  0.102509  0.086447  0.001384  1.000444  0.002
H  H17  1  0.21310579  0.78631205  0.18854857  1  0.104421  0.000477  0.945511  0.001  0.115318  0.000585  1.010897  0.001  0.117566  0.000421  1.008279  0.001  0.111833  0.113702  0.000742  1.012857  0.001
H  H18  1  0.02408292  0.21360223  0.81146467  1  0.101828  0.000466  0.947752  0.001  0.112216  0.000578  1.01449  0.001  0.114576  0.00042  1.011716  0.0  0.11184  0.113309  0.000741  1.012442  0.001
H  H19  1  0.35118630  0.95177440  0.34918989  1  0.080696  -0.00012  0.955766  0.0  0.09279  -6.4e-05  1.02425  0.0  0.094381  -0.000117  1.022704  0.0  0.104368  0.091597  -1.5e-05  1.024639  0.0
H  H20  1  0.00155092  0.04815278  0.65076720  1  0.080856  -0.000118  0.954977  0.0  0.093157  -6.5e-05  1.022828  0.0  0.094787  -0.000116  1.021244  0.0  0.104518  0.091796  -1.4e-05  1.024324  0.0
H  H21  1  0.26435830  0.53699483  0.23214501  1  0.107239  -1.4e-05  0.954528  0.0  0.117753  -4e-05  1.015951  0.0  0.120779  -3.1e-05  1.014497  0.0  0.105297  0.115381  -5.1e-05  1.01751  0.0
H  H22  1  0.03191167  0.46301406  0.76799869  1  0.106517  -2.9e-05  0.954409  0.0  0.116766  -5.7e-05  1.016276  0.0  0.119675  -4.1e-05  1.014922  0.0  0.104917  0.115013  -5.1e-05  1.01696  0.0
H  H23  1  0.41773424  0.37944790  0.43330872  1  0.09158  1.9e-05  0.968671  0.0  0.100566  1.4e-05  1.030857  0.0  0.103163  -4e-06  1.030015  0.0  0.099517  0.098397  2.4e-05  1.031943  0.0
H  H24  1  0.98438535  0.62059451  0.56696964  1  0.091763  1.7e-05  0.969562  0.0  0.100714  2e-06  1.031635  0.0  0.103408  -1.3e-05  1.03071  0.0  0.099238  0.098399  2.3e-05  1.03289  0.0
H  H25  1  0.70619940  0.49227528  0.71067924  1  0.099397  -2e-05  0.944299  0.0  0.110334  3e-06  1.002481  0.0  0.114282  -2e-06  0.999405  0.0  0.103542  0.107395  2.2e-05  1.004757  0.0
H  H26  1  0.99565055  0.50779041  0.28969613  1  0.100477  -1.2e-05  0.943298  0.0  0.110892  1e-06  1.001844  0.0  0.114811  -4e-06  0.998799  0.0  0.103678  0.107749  2.1e-05  1.004617  0.0
H  H27  1  0.68231982  0.92049029  0.58345359  1  0.097342  0.000211  0.960089  0.0  0.109436  0.00017  1.020608  0.0  0.112813  8e-05  1.018403  0.0  0.09954  0.106783  0.00027  1.022696  0.0
H  H28  1  0.09860143  0.07943459  0.41667662  1  0.097409  0.000222  0.959938  0.0  0.109471  0.00019  1.020583  0.0  0.112834  9e-05  1.018367  0.0  0.099614  0.106882  0.00027  1.02227  0.0
C  C29  1  0.89461618  0.77425437  0.82014133  1  0.62814  -0.006258  3.935288  -0.005  0.583635  -0.000362  4.24014  0.0  0.620371  -7.9e-05  4.232001  0.0  0.195303  0.557448  -0.000907  4.245586  -0.001
C  C30  1  0.07446069  0.22578126  0.18011642  1  0.627378  -0.006143  3.937358  -0.005  0.582781  -0.000249  4.242194  0.0  0.619391  -3e-05  4.234261  0.0  0.194929  0.556759  -0.000908  4.247286  -0.001
C  C31  1  0.27497416  0.87450945  0.67118502  1  0.06676  -0.000774  3.629511  0.0  0.004793  -0.000241  3.899624  0.0  0.012077  -0.000446  3.907023  0.0  -0.070857  -0.000363  -1.4e-05  3.894889  0.0
C  C32  1  0.60381698  0.12548292  0.32859628  1  0.066958  -0.000768  3.628784  0.0  0.005433  -0.000227  3.897031  0.0  0.012731  -0.000438  3.904422  0.0  -0.070513  0.000238  -9e-06  3.892601  0.0
C  C33  1  0.44283719  0.74211091  0.88805421  1  0.070483  -0.000376  3.640821  0.0  0.007359  0.000132  3.914648  0.001  0.014737  -0.00013  3.921349  0.0  -0.068358  0.002012  0.000375  3.910393  0.001
C  C34  1  0.55446437  0.25799791  0.11166633  1  0.072812  -0.000328  3.637577  0.0  0.008621  0.000141  3.911778  0.001  0.016026  -0.000129  3.918358  0.0  -0.06748  0.003668  0.000386  3.907329  0.001
C  C35  1  0.43712902  0.72037440  0.04632422  1  -0.047557  -0.003564  3.653806  -0.003  -0.106658  -0.001097  3.921306  -0.001  -0.103311  -0.001245  3.934082  -0.001  -0.071266  -0.108891  -0.000784  3.912404  -0.001
C  C36  1  0.39019697  0.27952980  0.95343239  1  -0.049468  -0.003617  3.657179  -0.003  -0.108925  -0.001139  3.924047  -0.001  -0.10563  -0.00127  3.936927  -0.001  -0.071365  -0.111218  -0.000788  3.915049  -0.001
C  C37  1  0.61791458  0.96017652  0.25273782  1  -0.053292  -0.003082  3.663356  -0.003  -0.117491  -0.001073  3.936279  -0.001  -0.113952  -0.001249  3.94899  -0.001  -0.077184  -0.120313  -0.000798  3.927398  -0.001
C  C38  1  0.36477015  0.03980188  0.74714650  1  -0.054901  -0.003137  3.66368  -0.003  -0.117672  -0.001095  3.934364  -0.001  -0.114343  -0.001257  3.947338  -0.001  -0.077336  -0.120416  -0.00079  3.925717  -0.001
C  C39  1  0.35740948  0.83924519  0.27413260  1  -0.082823  -0.001904  3.64408  -0.003  -0.143905  0.000672  3.898426  0.0  -0.140442  0.000281  3.910712  -0.001  -0.078453  -0.145269  0.001122  3.88828  0.0
C  C40  1  0.08279505  0.16066677  0.72584646  1  -0.080818  -0.001937  3.643895  -0.003  -0.142262  0.000623  3.898566  0.0  -0.13876  0.000249  3.910552  -0.001  -0.078505  -0.145639  0.001121  3.887894  0.0
C  C41  1  0.46263861  0.74017201  0.39058217  1  0.055425  0.002597  3.76734  0.004  0.080052  0.00148  4.003566  0.002  0.078606  0.001011  4.027894  0.002  -0.023273  0.080559  0.002013  3.9877  0.003
C  C42  1  0.07170316  0.25976178  0.60949737  1  0.055231  0.002469  3.770323  0.004  0.079388  0.001429  4.006936  0.002  0.078072  0.000997  4.031023  0.002  -0.023034  0.080485  0.00201  3.990466  0.003
C  C43  1  0.39172203  0.58636094  0.35056629  1  -0.11262  -0.002726  3.704051  -0.002  -0.135997  -0.000891  3.953555  0.0  -0.137617  -0.000649  3.974261  0.0  -0.090379  -0.135358  -0.001048  3.940616  -0.001
C  C44  1  0.04078105  0.41358423  0.64954229  1  -0.11127  -0.002496  3.704939  -0.001  -0.134078  -0.000848  3.954122  0.0  -0.135607  -0.000743  3.974721  0.0  -0.090023  -0.134639  -0.00103  3.94147  -0.001
C  C45  1  0.47768780  0.49734034  0.46512008  1  -0.060321  0.000905  3.768269  0.001  -0.073874  0.000262  4.024503  0.0  -0.075918  0.000185  4.046004  0.0  -0.093073  -0.072511  0.00039  4.00992  0.001
C  C46  1  0.01242206  0.50267610  0.53514325  1  -0.060243  0.000828  3.77035  0.001  -0.073793  0.000212  4.025737  0.0  -0.075921  0.000167  4.047154  0.0  -0.092865  -0.072108  0.000388  4.011965  0.001
C  C47  1  0.63733057  0.55931674  0.61896966  1  -0.0866  -0.001516  3.762423  -0.001  -0.110748  1.9e-05  4.011493  0.0  -0.111148  1e-05  4.031931  0.0  -0.087246  -0.110093  -0.00016  3.996758  0.0
C  C48  1  0.01839316  0.44075502  0.38137758  1  -0.088379  -0.001791  3.762733  -0.001  -0.111866  -0.000312  4.01158  0.0  -0.112272  -0.000289  4.031973  0.0  -0.087534  -0.111294  -0.000142  3.997356  0.0
C  C49  1  0.71406556  0.71112153  0.65888144  1  -0.067842  0.004376  3.781617  0.006  -0.043677  0.002306  4.013832  0.003  -0.051244  0.001617  4.036713  0.002  -0.024084  -0.038384  0.002927  3.998822  0.004
C  C50  1  0.05514339  0.28890962  0.34138282  1  -0.065823  0.004247  3.781306  0.006  -0.041666  0.002252  4.013881  0.003  -0.049048  0.001593  4.036549  0.002  -0.023609  -0.03664  0.002929  3.997965  0.004
C  C51  1  0.62471847  0.80057341  0.54526702  1  -0.142782  -0.001879  3.731892  -0.001  -0.171716  -3.8e-05  3.976439  0.0  -0.171506  -0.000131  3.994892  0.0  -0.096475  -0.172171  -3.8e-05  3.965014  0.0
C  C52  1  0.07931409  0.19939299  0.45491377  1  -0.144752  -0.001224  3.733592  -0.001  -0.174121  0.000356  3.978963  0.0  -0.173932  0.000174  3.997204  0.0  -0.096878  -0.173305  -4.7e-05  3.965605  0.0
N  N53  1  0.43200188  0.86847844  0.15740853  1  -0.204956  0.039725  3.22583  0.069  -0.131849  0.027603  3.493132  0.045  -0.158853  0.020212  3.518077  0.034  -0.32784  -0.109697  0.034412  3.472852  0.054
N  N54  1  0.27414395  0.13141648  0.84249690  1  -0.204335  0.03968  3.226088  0.069  -0.129502  0.027482  3.490344  0.045  -0.156485  0.020138  3.515472  0.034  -0.328227  -0.107501  0.034456  3.471059  0.054
O  O55  1  0.95997961  0.69989990  0.93029329  1  -0.609069  -0.000719  1.876772  0.001  -0.571506  0.000329  2.093974  0.002  -0.593233  -2.8e-05  2.083036  0.001  -0.333941  -0.556403  0.000802  2.101621  0.002
O  O56  1  0.02933955  0.30003253  0.06986095  1  -0.608207  -0.000329  1.879326  0.001  -0.570251  0.000763  2.096937  0.002  -0.592029  0.000279  2.086092  0.001  -0.333525  -0.555866  0.000803  2.102313  0.002
O  O57  1  0.97059453  0.90275923  0.82574022  1  -0.630643  0.050777  2.126289  0.086  -0.595397  0.037166  2.410596  0.058  -0.636855  0.028346  2.401047  0.044  -0.333829  -0.562819  0.045178  2.415673  0.07
O  O58  1  0.14504179  0.09733896  0.17451415  1  -0.630488  0.050371  2.126545  0.085  -0.595144  0.036944  2.411088  0.058  -0.636579  0.028231  2.401625  0.044  -0.334231  -0.563401  0.045174  2.416745  0.07
O  O59  1  0.28004600  0.81247723  0.80460276  1  -0.314851  0.013211  2.3933  0.027  -0.239272  0.013888  2.651737  0.026  -0.263185  0.011013  2.657541  0.022  -0.21446  -0.22131  0.016443  2.64804  0.03
O  O60  1  0.47534224  0.18733666  0.19506048  1  -0.316335  0.013297  2.39281  0.027  -0.239319  0.01393  2.649924  0.026  -0.263208  0.011029  2.655642  0.022  -0.214746  -0.221067  0.016414  2.646159  0.03
