# generated using pymatgen
data_Zn4H2C26I4O13
_symmetry_space_group_name_H-M   'P 1'
_cell_length_a   20.77669442
_cell_length_b   20.92731424
_cell_length_c   20.92689672
_cell_angle_alpha   103.82046261
_cell_angle_beta   112.10277553
_cell_angle_gamma   112.07056472
_symmetry_Int_Tables_number   1
_chemical_formula_structural   Zn4H2C26I4O13
_chemical_formula_sum   'Zn8 H4 C52 I8 O26'
_cell_volume   7004.61740966
_cell_formula_units_Z   2
loop_
 _symmetry_equiv_pos_site_id
 _symmetry_equiv_pos_as_xyz
  1  'x, y, z'
loop_
 _atom_site_type_symbol
 _atom_site_label
 _atom_site_symmetry_multiplicity
 _atom_site_fract_x
 _atom_site_fract_y
 _atom_site_fract_z
 _atom_site_occupancy
 _atom_site_pbe_bader_charge
 _atom_site_pbe_bader_spin_density
 _atom_site_pbe_cm5_charge
 _atom_site_pbe_ddec_charge
 _atom_site_pbe_ddec_spin_density
 _atom_site_pbe_ddec_sum_bond_order
 _atom_site_pbe_magmom
Zn  Zn0  1  0.42813654  0.72232896  0.79113515  1  1.318314  0  0.676801  0.96967  0  2.357251  0
Zn  Zn1  1  0.42921152  0.29212433  0.22260383  1  1.317506  0  0.675987  0.96689  0  2.361885  0
Zn  Zn2  1  0.56762949  0.86340849  0.79472873  1  1.317312  0  0.677223  0.973137  0  2.33895  0
Zn  Zn3  1  0.43237181  0.13658970  0.20526810  1  1.317189  0  0.677264  0.973232  0  2.338859  0
Zn  Zn4  1  0.57079210  0.70787156  0.77740241  1  1.317483  0  0.676054  0.967022  0  2.362016  0
Zn  Zn5  1  0.57187341  0.27767554  0.20886739  1  1.318357  0  0.676768  0.969685  0  2.357364  0
Zn  Zn6  1  0.43321226  0.70642293  0.63644660  1  1.317851  0  0.677431  0.97377  0  2.337786  0
Zn  Zn7  1  0.56678635  0.29357701  0.36355106  1  1.31786  0  0.677426  0.973808  0  2.337843  0
H  H8  1  0.36643938  0.98719893  0.95085176  1  0.123892  0  0.116355  0.132846  0  0.949617  0
H  H9  1  0.63356246  0.01280214  0.04914595  1  0.123835  0  0.116359  0.132833  0  0.949749  0
H  H10  1  0.46332864  0.38096657  0.51458435  1  0.124022  0  0.11666  0.13343  0  0.948803  0
H  H11  1  0.53666674  0.61903222  0.48541277  1  0.123559  0  0.116645  0.13344  0  0.948834  0
C  C12  1  0.50535357  0.61265675  0.61394449  1  1.571781  0  0.225643  0.616618  0  4.169744  0
C  C13  1  0.49655679  0.94252537  0.94809241  1  0.006308  0  -0.006924  -0.045359  0  3.630131  0
C  C14  1  0.52040750  0.56576522  0.49159583  1  -0.015273  0  -0.073476  -0.093673  0  3.635257  0
C  C15  1  0.42587560  0.99263810  0.97241285  1  -0.030077  0  -0.072608  -0.092199  0  3.633913  0
C  C16  1  0.57412676  0.00736297  0.02758696  1  -0.029864  0  -0.07254  -0.092144  0  3.634115  0
C  C17  1  0.47958883  0.43423530  0.50840255  1  -0.015855  0  -0.073463  -0.093573  0  3.635035  0
C  C18  1  0.49450487  0.44583458  0.44275607  1  0.017561  0  -0.006943  -0.046247  0  3.629597  0
C  C19  1  0.50549481  0.55416823  0.55724029  1  0.017255  0  -0.006888  -0.04615  0  3.629566  0
C  C20  1  0.50344959  0.05747453  0.05191009  1  0.006106  0  -0.006861  -0.045242  0  3.630305  0
C  C21  1  0.52285235  0.99432379  0.06685632  1  -0.132078  0  -0.036741  0.040148  0  3.558612  0
C  C22  1  0.47714967  0.00567671  0.93314658  1  -0.131978  0  -0.036628  0.040303  0  3.5585  0
C  C23  1  0.44312706  0.48569492  0.42981916  1  -0.127611  0  -0.040398  0.036894  0  3.560166  0
C  C24  1  0.49463745  0.38733975  0.38604806  1  1.572173  0  0.225776  0.616861  0  4.169108  0
C  C25  1  0.55686655  0.51430157  0.57017389  1  -0.127461  0  -0.040373  0.03692  0  3.560264  0
C  C26  1  0.50010081  0.90502973  0.59834231  1  0.199209  0  -0.00247  -0.128416  0  3.835205  0
C  C27  1  0.49990603  0.09496440  0.40166043  1  0.199256  0  -0.00236  -0.128281  0  3.835223  0
C  C28  1  0.49967668  0.59694451  0.90365848  1  0.192778  0  -0.001847  -0.126915  0  3.835514  0
C  C29  1  0.50032931  0.40305943  0.09634579  1  0.192558  0  -0.00174  -0.126981  0  3.835733  0
C  C30  1  0.49751450  0.88561297  0.89056593  1  1.586452  0  0.223997  0.613253  0  4.174034  0
C  C31  1  0.49996735  0.94141174  0.56026306  1  -0.218843  0  -0.002038  0.034123  0  4.246121  0
C  C32  1  0.50003280  0.05857204  0.43972516  1  -0.218913  0  -0.002127  0.034009  0  4.246203  0
C  C33  1  0.49978253  0.55963122  0.94080822  1  -0.210863  0  -0.001353  0.034319  0  4.24643  0
C  C34  1  0.50022613  0.44038424  0.05920694  1  -0.210974  0  -0.00135  0.034362  0  4.246412  0
C  C35  1  0.50248918  0.11438579  0.10943384  1  1.586767  0  0.223915  0.613059  0  4.174071  0
C  C36  1  0.49997230  0.98147078  0.51893005  1  -0.152009  0  0.006339  0.00383  0  4.176889  0
C  C37  1  0.50002953  0.01851703  0.48106214  1  0.031617  0  0.006471  0.004164  0  4.176761  0
C  C38  1  0.49990030  0.51881094  0.98136455  1  0.030451  0  0.007117  0.004597  0  4.177656  0
C  C39  1  0.50010311  0.48119878  0.01864871  1  -0.151258  0  0.007258  0.004837  0  4.17763  0
C  C40  1  0.80676425  0.90415811  0.90288087  1  -0.177611  0  -0.001282  -0.126917  0  3.835609  0
C  C41  1  0.19323889  0.09584526  0.09711071  1  -0.177877  0  -0.001209  -0.126828  0  3.835413  0
C  C42  1  0.88120926  0.94106207  0.94025847  1  0.119364  0  -0.00182  0.033588  0  4.247913  0
C  C43  1  0.11878684  0.05894364  0.05973339  1  0.119763  0  -0.00186  0.033563  0  4.247728  0
C  C44  1  0.96256021  0.98140733  0.98117023  1  0.117757  0  0.006732  0.004591  0  4.178178  0
C  C45  1  0.03743831  0.01859722  0.01883661  1  -0.166302  0  0.006895  0.004662  0  4.178377  0
C  C46  1  0.49999979  0.64089157  0.86031718  1  1.685976  0  0.235926  0.662525  0  4.25605  0
C  C47  1  0.50000645  0.35911467  0.13968295  1  1.686241  0  0.235959  0.662817  0  4.256145  0
C  C48  1  0.49986208  0.86115098  0.64182527  1  1.664006  0  0.235704  0.665254  0  4.248828  0
C  C49  1  0.50013294  0.13884436  0.35817569  1  1.6641  0  0.235784  0.665174  0  4.248798  0
C  C50  1  0.71947153  0.86033662  0.85912478  1  1.689208  0  0.235356  0.66237  0  4.255307  0
C  C51  1  0.28052740  0.13966389  0.14087170  1  1.68909  0  0.235296  0.662224  0  4.255611  0
C  C52  1  0.28065401  0.63810628  0.63723126  1  1.703135  0  0.235081  0.663657  0  4.25409  0
C  C53  1  0.71934576  0.36189769  0.36277353  1  1.702871  0  0.235081  0.663774  0  4.254123  0
C  C54  1  0.19331531  0.59454695  0.59307724  1  0.362262  0  -0.001277  -0.126427  0  3.832539  0
C  C55  1  0.80668241  0.40545991  0.40692698  1  0.362223  0  -0.00126  -0.126321  0  3.832617  0
C  C56  1  0.11884196  0.55809084  0.55727083  1  -0.377072  0  -0.001957  0.033745  0  4.246704  0
C  C57  1  0.88115324  0.44191430  0.44273394  1  -0.376993  0  -0.002013  0.033583  0  4.246622  0
C  C58  1  0.03745069  0.51828287  0.51803192  1  -0.213393  0  0.006326  0.004258  0  4.179321  0
C  C59  1  0.96254778  0.48171591  0.48197306  1  0.087171  0  0.006515  0.004467  0  4.179171  0
C  C60  1  0.44424120  0.92994917  0.98698923  1  -0.120565  0  -0.040517  0.036028  0  3.561954  0
C  C61  1  0.55575842  0.07004787  0.01300861  1  -0.120623  0  -0.04061  0.03596  0  3.562102  0
C  C62  1  0.42739144  0.47257863  0.49504538  1  -0.144626  0  -0.036444  0.040514  0  3.558049  0
C  C63  1  0.57260261  0.52741959  0.50494729  1  -0.14457  0  -0.036485  0.040462  0  3.558251  0
I  I64  1  0.35639913  0.82467708  0.96996741  1  0.12592  0  0.047402  -0.034487  0  1.306202  0
I  I65  1  0.44012225  0.01341108  0.82817395  1  0.106047  0  0.044801  -0.046677  0  1.293435  0
I  I66  1  0.35530653  0.46859060  0.32441819  1  0.124704  0  0.04726  -0.034938  0  1.305339  0
I  I67  1  0.64468511  0.53140706  0.67557774  1  0.124839  0  0.047264  -0.034947  0  1.305358  0
I  I68  1  0.55988177  0.98659114  0.17182725  1  0.106062  0  0.04482  -0.046634  0  1.293475  0
I  I69  1  0.64359945  0.17531997  0.03003242  1  0.125975  0  0.047394  -0.034508  0  1.306252  0
I  I70  1  0.31462461  0.42937067  0.48853544  1  0.10577  0  0.044476  -0.047007  0  1.29219  0
I  I71  1  0.68537320  0.57063445  0.51146745  1  0.105717  0  0.044524  -0.046947  0  1.292206  0
O  O72  1  0.49989190  0.75037290  0.74953187  1  -1.224547  0  -0.568646  -1.037197  0  2.509027  0
O  O73  1  0.54028738  0.36261800  0.41539719  1  -1.15893  0  -0.310099  -0.535988  0  2.327293  0
O  O74  1  0.44494287  0.81504075  0.86297561  1  -1.169265  0  -0.305649  -0.532641  0  2.38673  0
O  O75  1  0.55506472  0.18495858  0.13703342  1  -1.169273  0  -0.305569  -0.532555  0  2.386847  0
O  O76  1  0.55284578  0.65482227  0.84038448  1  -1.145275  0  -0.301134  -0.524055  0  2.28125  0
O  O77  1  0.44716357  0.34517359  0.15961580  1  -1.145299  0  -0.30114  -0.524108  0  2.281263  0
O  O78  1  0.54669745  0.89956946  0.71469288  1  -1.131568  0  -0.302134  -0.530873  0  2.282929  0
O  O79  1  0.45329261  0.10042820  0.28530770  1  -1.131611  0  -0.302195  -0.530849  0  2.282873  0
O  O80  1  0.50011510  0.24962527  0.25046663  1  -1.224593  0  -0.568612  -1.037176  0  2.508982  0
O  O81  1  0.68656437  0.78784019  0.83694943  1  -1.140037  0  -0.301702  -0.525652  0  2.279311  0
O  O82  1  0.31343869  0.21216031  0.16305386  1  -1.139987  0  -0.301679  -0.525552  0  2.279479  0
O  O83  1  0.68431094  0.89839971  0.84718548  1  -1.146995  0  -0.30323  -0.527189  0  2.272065  0
O  O84  1  0.31568795  0.10159791  0.15281414  1  -1.146888  0  -0.303254  -0.527202  0  2.271917  0
O  O85  1  0.31640664  0.64986800  0.59961230  1  -1.154191  0  -0.302127  -0.531958  0  2.286226  0
O  O86  1  0.68359209  0.35012560  0.40039298  1  -1.154121  0  -0.302176  -0.532032  0  2.286204  0
O  O87  1  0.31290762  0.66038214  0.70968011  1  -1.150426  0  -0.301259  -0.524189  0  2.27935  0
O  O88  1  0.68709242  0.33962990  0.29032763  1  -1.150463  0  -0.301138  -0.524193  0  2.27953  0
O  O89  1  0.44754601  0.66137937  0.84652093  1  -1.13957  0  -0.301708  -0.526734  0  2.279328  0
O  O90  1  0.55246001  0.33862745  0.15348355  1  -1.139759  0  -0.301786  -0.526914  0  2.279128  0
O  O91  1  0.45279094  0.78842216  0.60259010  1  -1.134155  0  -0.301704  -0.525857  0  2.270625  0
O  O92  1  0.54719894  0.21157608  0.39740578  1  -1.133991  0  -0.301698  -0.525824  0  2.270596  0
O  O93  1  0.54899183  0.63140808  0.68468708  1  -1.16101  0  -0.306384  -0.53394  0  2.388706  0
O  O94  1  0.45099773  0.36858958  0.31530901  1  -1.161486  0  -0.306358  -0.533932  0  2.38861  0
O  O95  1  0.55146244  0.91475213  0.87404776  1  -1.160476  0  -0.309374  -0.535497  0  2.332586  0
O  O96  1  0.44853534  0.08524723  0.12594754  1  -1.160235  0  -0.309452  -0.535542  0  2.332467  0
O  O97  1  0.45970790  0.63737964  0.58459724  1  -1.158813  0  -0.310013  -0.535809  0  2.327684  0
