# generated using pymatgen
data_ZnH10C12N4O9
_symmetry_space_group_name_H-M   'P 1'
_cell_length_a   7.68345882
_cell_length_b   9.72704976
_cell_length_c   10.90944066
_cell_angle_alpha   67.86408298
_cell_angle_beta   85.03189206
_cell_angle_gamma   67.21389209
_symmetry_Int_Tables_number   1
_chemical_formula_structural   ZnH10C12N4O9
_chemical_formula_sum   'Zn2 H20 C24 N8 O18'
_cell_volume   694.62212672
_cell_formula_units_Z   2
loop_
 _symmetry_equiv_pos_site_id
 _symmetry_equiv_pos_as_xyz
  1  'x, y, z'
loop_
 _atom_site_type_symbol
 _atom_site_label
 _atom_site_symmetry_multiplicity
 _atom_site_fract_x
 _atom_site_fract_y
 _atom_site_fract_z
 _atom_site_occupancy
 _atom_site_pbe_bader_spin_density
 _atom_site_pbe_cm5_charge
 _atom_site_pbe_ddec_charge
 _atom_site_pbe_ddec_spin_density
 _atom_site_pbe_ddec_sum_bond_order
 _atom_site_pbe_magmom
Zn  Zn0  1  0.34221258  0.42132926  0.43849371  1  0  0.691032  1.009846  0  2.2095  0
Zn  Zn1  1  0.65778703  0.57867100  0.56150666  1  0  0.69103  1.009878  0  2.209471  0
H  H2  1  0.88344354  0.86497036  0.32340516  1  0  0.112631  0.131735  0  1.044095  0
H  H3  1  0.11655502  0.13503235  0.67659172  1  0  0.11263  0.131722  0  1.044119  0
H  H4  1  0.43369290  0.63487859  0.21748416  1  0  0.296648  0.387249  0  0.937539  0
H  H5  1  0.56630726  0.36512047  0.78251657  1  0  0.296654  0.387259  0  0.937524  0
H  H6  1  0.29255592  0.57972649  0.17731908  1  0  0.30168  0.391293  0  0.932096  0
H  H7  1  0.70743866  0.42027615  0.82268168  1  0  0.301724  0.391358  0  0.932013  0
H  H8  1  0.14891479  0.93445949  0.06475183  1  0  0.3135  0.304144  0  0.983027  0
H  H9  1  0.85108798  0.06553959  0.93524877  1  0  0.313496  0.304135  0  0.983001  0
H  H10  1  0.15012524  0.40517130  0.66189126  1  0  0.294049  0.396307  0  0.934143  0
H  H11  1  0.84987509  0.59483015  0.33811053  1  0  0.294064  0.39633  0  0.934118  0
H  H12  1  0.34882272  0.25637773  0.69984752  1  0  0.290425  0.376046  0  0.968567  0
H  H13  1  0.65117687  0.74362252  0.30015376  1  0  0.290424  0.376043  0  0.968576  0
H  H14  1  0.30094836  0.00560999  0.42502631  1  0  0.113766  0.129983  0  0.994851  0
H  H15  1  0.69904993  0.99439026  0.57497504  1  0  0.11377  0.130018  0  0.994784  0
H  H16  1  0.55532968  0.29082858  0.14401061  1  0  0.329496  0.265511  0  0.959806  0
H  H17  1  0.44467261  0.70917176  0.85598594  1  0  0.329488  0.265524  0  0.959776  0
H  H18  1  0.78114776  0.36948129  0.20372801  1  0  0.111804  0.127713  0  1.019039  0
H  H19  1  0.21885317  0.63051900  0.79627137  1  0  0.111795  0.127734  0  1.019026  0
H  H20  1  0.06636204  0.41036293  0.90292979  1  0  0.317634  0.3187  0  0.965453  0
H  H21  1  0.93363812  0.58963614  0.09707094  1  0  0.317647  0.318716  0  0.965421  0
C  C22  1  0.23758474  0.74586044  0.44012096  1  0  0.22278  0.60632  0  4.191658  0
C  C23  1  0.76241230  0.25413984  0.55987769  1  0  0.222824  0.606516  0  4.19165  0
C  C24  1  0.10582295  0.91862013  0.37898131  1  0  -0.01844  -0.032019  0  3.97972  0
C  C25  1  0.89417539  0.08138016  0.62101728  1  0  -0.018467  -0.032187  0  3.97978  0
C  C26  1  0.92989958  0.95914247  0.31949098  1  0  -0.070203  -0.145636  0  3.863202  0
C  C27  1  0.07010139  0.04085785  0.68050656  1  0  -0.070237  -0.145616  0  3.863299  0
C  C28  1  0.16442284  0.03843628  0.37735241  1  0  -0.075334  -0.109077  0  3.943496  0
C  C29  1  0.83557547  0.96156398  0.62264802  1  0  -0.075296  -0.108974  0  3.943398  0
C  C30  1  0.81525580  0.12201318  0.25620815  1  0  0.098839  0.180808  0  4.007845  0
C  C31  1  0.18474458  0.87798832  0.74379087  1  0  0.098879  0.180894  0  4.00797  0
C  C32  1  0.11104640  0.32720662  0.31833336  1  0  0.214047  0.587116  0  4.196167  0
C  C33  1  0.88895506  0.67279245  0.68166730  1  0  0.214026  0.587134  0  4.196143  0
C  C34  1  0.04809201  0.20064862  0.31486714  1  0  -0.024125  -0.048348  0  4.011402  0
C  C35  1  0.95190630  0.79935164  0.68513329  1  0  -0.024118  -0.048424  0  4.011384  0
C  C36  1  0.87280350  0.24339684  0.25314127  1  0  -0.073944  -0.156136  0  3.899068  0
C  C37  1  0.12719686  0.75660464  0.74685867  1  0  -0.073943  -0.156204  0  3.899104  0
C  C38  1  0.41766415  0.10870347  0.12142254  1  0  0.079464  -0.167291  0  4.042501  0
C  C39  1  0.58233861  0.89129561  0.87857806  1  0  0.079422  -0.167413  0  4.042435  0
C  C40  1  0.29861630  0.27513183  0.04362019  1  0  0.238687  0.485014  0  4.134233  0
C  C41  1  0.70138315  0.72486606  0.95637912  1  0  0.238757  0.485208  0  4.134281  0
C  C42  1  0.07744225  0.18018318  0.98689482  1  0  0.354653  0.669461  0  4.128438  0
C  C43  1  0.92256679  0.81981350  0.01310808  1  0  0.354698  0.669528  0  4.128528  0
C  C44  1  0.36513546  0.97846719  0.12511504  1  0  0.243291  0.487874  0  4.149544  0
C  C45  1  0.63486551  0.02153312  0.87488250  1  0  0.243248  0.487829  0  4.149759  0
N  N46  1  0.19442110  0.02490063  0.05958342  1  0  -0.388278  -0.464721  0  3.549038  0
N  N47  1  0.80557959  0.97509722  0.94041859  1  0  -0.38826  -0.464651  0  3.548914  0
N  N48  1  0.63959308  0.16962021  0.19117879  1  0  -0.215872  -0.062517  0  3.636385  0
N  N49  1  0.36040809  0.83038252  0.80881796  1  0  -0.215854  -0.062567  0  3.636461  0
N  N50  1  0.58120560  0.06363424  0.18662008  1  0  -0.145377  -0.032249  0  3.351003  0
N  N51  1  0.41879462  0.93636487  0.81337788  1  0  -0.145382  -0.032205  0  3.350994  0
N  N52  1  0.13679142  0.29902729  0.97799781  1  0  -0.384266  -0.450496  0  3.501928  0
N  N53  1  0.86320877  0.70097178  0.02200199  1  0  -0.384385  -0.450671  0  3.501662  0
O  O54  1  0.18487323  0.64315795  0.42664235  1  0  -0.31168  -0.552498  0  2.383333  0
O  O55  1  0.81512377  0.35684230  0.57335815  1  0  -0.311693  -0.552604  0  2.383386  0
O  O56  1  0.39045700  0.71801456  0.49818026  1  0  -0.318229  -0.571196  0  2.417159  0
O  O57  1  0.60954451  0.28198454  0.50181856  1  0  -0.318248  -0.571258  0  2.417192  0
O  O58  1  0.41075788  0.53700661  0.23187488  1  0  -0.569258  -0.751157  0  2.101702  0
O  O59  1  0.58923855  0.46299483  0.76812618  1  0  -0.569304  -0.751243  0  2.101649  0
O  O60  1  0.26948670  0.27683389  0.38166492  1  0  -0.310008  -0.527685  0  2.305536  0
O  O61  1  0.73051161  0.72316637  0.61833551  1  0  -0.310018  -0.527692  0  2.305458  0
O  O62  1  0.00547463  0.47435725  0.26083874  1  0  -0.319283  -0.581396  0  2.262955  0
O  O63  1  0.99452498  0.52564302  0.73916162  1  0  -0.319265  -0.581384  0  2.262976  0
O  O64  1  0.33746973  0.39191276  0.03332741  1  0  -0.275257  -0.451013  0  2.116924  0
O  O65  1  0.66253400  0.60808996  0.96667106  1  0  -0.275285  -0.451067  0  2.11718  0
O  O66  1  0.46191404  0.83160691  0.18238563  1  0  -0.274593  -0.487212  0  2.236949  0
O  O67  1  0.53809467  0.16838499  0.81761608  1  0  -0.274529  -0.48714  0  2.237132  0
O  O68  1  0.92422746  0.21090914  0.93154112  1  0  -0.275946  -0.508483  0  2.171666  0
O  O69  1  0.07576903  0.78909234  0.06845718  1  0  -0.275929  -0.508511  0  2.172007  0
O  O70  1  0.24653285  0.32717072  0.62835722  1  0  -0.57434  -0.755987  0  2.144193  0
O  O71  1  0.75346619  0.67283074  0.37164371  1  0  -0.574359  -0.756023  0  2.144161  0
