# generated using pymatgen
data_Gd6CoH36C20S6(N4O27)2
_symmetry_space_group_name_H-M   'P 1'
_cell_length_a   6.60072831
_cell_length_b   9.45308380
_cell_length_c   21.25606737
_cell_angle_alpha   96.04966965
_cell_angle_beta   95.06222445
_cell_angle_gamma   98.55722184
_symmetry_Int_Tables_number   1
_chemical_formula_structural   Gd6CoH36C20S6(N4O27)2
_chemical_formula_sum   'Gd6 Co1 H36 C20 S6 N8 O54'
_cell_volume   1296.94754546
_cell_formula_units_Z   1
loop_
 _symmetry_equiv_pos_site_id
 _symmetry_equiv_pos_as_xyz
  1  'x, y, z'
loop_
 _atom_site_type_symbol
 _atom_site_label
 _atom_site_symmetry_multiplicity
 _atom_site_fract_x
 _atom_site_fract_y
 _atom_site_fract_z
 _atom_site_occupancy
 _atom_site_pbe_bader_charge
 _atom_site_pbe_bader_spin_density
 _atom_site_pbe_cm5_charge
 _atom_site_pbe_ddec_charge
 _atom_site_pbe_ddec_spin_density
 _atom_site_pbe_ddec_sum_bond_order
 _atom_site_pbe_magmom
Gd  Gd0  1  0.33001419  0.01290910  0.86454396  1  2.223933  -0.000316  1.51417  2.17368  -0.000583  2.183616  0.0
Gd  Gd1  1  0.66998364  0.98709246  0.13545655  1  2.223942  -0.000316  1.514171  2.173654  -0.000583  2.183713  0.0
Gd  Gd2  1  0.07392310  0.88071867  0.67698851  1  2.208945  -1.6e-05  1.470895  2.123028  -2.6e-05  2.049825  0.0
Gd  Gd3  1  0.92607929  0.11928292  0.32301165  1  2.209007  -1.6e-05  1.470868  2.123032  -2.6e-05  2.049785  0.0
Gd  Gd4  1  0.33392227  0.29134418  0.57768556  1  2.207217  0.0  1.516107  2.11374  1e-06  2.140483  0.0
Gd  Gd5  1  0.66608115  0.70865526  0.42231405  1  2.207238  0.0  1.5161  2.113746  1e-06  2.140474  0.0
Co  Co6  1  0.99999883  0.49999636  0.00000014  1  1.138797  0.955693  0.637282  0.69247  1.019596  2.908915  0.947
H  H7  1  0.58162086  0.62099749  0.69158955  1  0.235457  0.0  0.148362  0.119325  1e-06  1.012713  0.0
H  H8  1  0.41837647  0.37900194  0.30840944  1  0.235552  0.0  0.14838  0.119361  1e-06  1.012671  0.0
H  H9  1  0.84753202  0.26950095  0.85766020  1  0.165719  -1.2e-05  0.155062  0.129737  -0.000149  0.973744  0.0
H  H10  1  0.15246203  0.73049739  0.14233911  1  0.165755  -1.2e-05  0.15506  0.129766  -0.000149  0.973681  0.0
H  H11  1  0.93311116  0.38326416  0.75806424  1  0.570576  -1.3e-05  0.324529  0.319659  -2.7e-05  0.953398  0.0
H  H12  1  0.06688642  0.61673634  0.24193527  1  0.570581  -1.3e-05  0.324543  0.319663  -2.7e-05  0.953382  0.0
H  H13  1  0.59805389  0.63159512  0.81172102  1  0.571222  -1e-06  0.316648  0.300478  -2e-06  0.975801  0.0
H  H14  1  0.40194416  0.36840755  0.18827814  1  0.571226  -1e-06  0.316609  0.300416  -2e-06  0.975736  0.0
H  H15  1  0.05528335  0.50608525  0.56980311  1  0.61737  -0.0  0.320336  0.41418  -0.0  0.886196  0.0
H  H16  1  0.94471531  0.49391306  0.43019868  1  0.617368  -0.0  0.320334  0.414149  -0.0  0.886253  0.0
H  H17  1  0.12582471  0.53237013  0.64301627  1  0.652399  -3e-06  0.311207  0.407983  -4e-06  0.920713  0.0
H  H18  1  0.87417043  0.46762602  0.35698532  1  0.652408  -3e-06  0.31119  0.407951  -4e-06  0.920776  0.0
H  H19  1  0.26499017  0.04473795  0.46998800  1  0.62441  -0.0  0.320456  0.417363  -0.0  0.894669  0.0
H  H20  1  0.73501019  0.95526151  0.53001012  1  0.624451  -0.0  0.320462  0.417423  -0.0  0.89458  0.0
H  H21  1  0.19893396  0.96925803  0.53005711  1  0.65185  0.0  0.310764  0.415751  0.0  0.906733  0.0
H  H22  1  0.80106713  0.03074465  0.46994166  1  0.65182  0.0  0.310718  0.415688  0.0  0.906818  0.0
H  H23  1  0.05273594  0.74945977  0.54375728  1  0.66076  -0.0  0.312891  0.403246  0.0  0.93266  0.0
H  H24  1  0.94726445  0.25053965  0.45624319  1  0.660761  0.0  0.312876  0.403218  0.0  0.932705  0.0
H  H25  1  0.29491031  0.77358899  0.56257579  1  0.664961  -0.0  0.319153  0.433637  -0.0  0.874892  0.0
H  H26  1  0.70509208  0.22641260  0.43742390  1  0.664969  -0.0  0.31912  0.43353  -0.0  0.875042  0.0
H  H27  1  0.50810125  0.91388897  0.72573447  1  0.649832  -0.0  0.311306  0.402772  -0.0  0.931915  0.0
H  H28  1  0.49189786  0.08611152  0.27426602  1  0.649834  -0.0  0.311297  0.402791  -0.0  0.93189  0.0
H  H29  1  0.53802338  0.90789308  0.65394667  1  0.62662  -0.0  0.327711  0.431845  -0.0  0.861745  0.0
H  H30  1  0.46197782  0.09210311  0.34605366  1  0.626615  -0.0  0.327701  0.431854  -0.0  0.861737  0.0
H  H31  1  0.63802490  0.58476029  0.95922596  1  0.662624  -2e-06  0.304735  0.397562  -4.8e-05  0.936041  0.0
H  H32  1  0.36197549  0.41523913  0.04077404  1  0.662638  -2e-06  0.304731  0.39756  -4.8e-05  0.936058  0.0
H  H33  1  0.64958680  0.58314643  0.03385634  1  0.638942  -0.000112  0.298763  0.368999  -0.000127  0.977481  0.0
H  H34  1  0.35041511  0.41685300  0.96614369  1  0.638942  -0.000112  0.298759  0.369024  -0.000127  0.977485  0.0
H  H35  1  0.04613860  0.07651939  0.95667597  1  0.623644  3.5e-05  0.319372  0.406214  -1e-06  0.897496  0.0
H  H36  1  0.95386181  0.92348001  0.04332544  1  0.623637  3.5e-05  0.319394  0.406238  -1e-06  0.897435  0.0
H  H37  1  0.22641888  0.20654667  0.98268986  1  0.644258  0.0003  0.298066  0.409675  0.000119  0.920404  0.0
H  H38  1  0.77358280  0.79345167  0.01731059  1  0.64426  0.000301  0.298055  0.40966  0.000119  0.920423  0.0
H  H39  1  0.68078805  0.15912683  0.96154773  1  0.652915  7.1e-05  0.306334  0.400517  6.7e-05  0.930217  0.0
H  H40  1  0.31921363  0.84087151  0.03845319  1  0.65278  7.1e-05  0.306322  0.400481  6.7e-05  0.930266  0.0
H  H41  1  0.67059204  0.99574052  0.97188026  1  0.664403  -1e-06  0.309459  0.415226  -2e-06  0.905706  0.0
H  H42  1  0.32940811  0.00425783  0.02811968  1  0.664472  -1e-06  0.309441  0.415146  -2e-06  0.905798  0.0
C  C43  1  0.44630178  0.38258423  0.86348601  1  1.60951  -7.9e-05  0.227487  0.601026  -0.00014  4.255756  0.0
C  C44  1  0.55369535  0.61741409  0.13651479  1  1.610048  -7.9e-05  0.227425  0.600877  -0.00014  4.255993  0.0
C  C45  1  0.45880012  0.40601262  0.79662026  1  0.387223  3.5e-05  0.093354  -0.012574  -1.7e-05  3.941367  0.0
C  C46  1  0.54119770  0.59398896  0.20337978  1  0.387211  3.5e-05  0.093363  -0.012479  -1.7e-05  3.941348  0.0
C  C47  1  0.52546580  0.53102380  0.71647961  1  0.989858  -2.5e-05  0.179582  0.231693  -3.4e-05  3.835067  0.0
C  C48  1  0.47453027  0.46897669  0.28352033  1  0.989803  -2.5e-05  0.179501  0.231597  -3.4e-05  3.835185  0.0
C  C49  1  0.39858968  0.31867266  0.73888185  1  0.441106  -0.000147  0.09591  0.020431  -0.000153  3.959797  0.0
C  C50  1  0.60141072  0.68132674  0.26111909  1  0.441096  -0.000147  0.095958  0.020472  -0.000153  3.959828  0.0
C  C51  1  0.29591586  0.16948570  0.72039283  1  1.593324  -3.6e-05  0.231404  0.629302  -4e-05  4.16889  0.0
C  C52  1  0.70408607  0.83051371  0.27960815  1  1.593346  -3.6e-05  0.231426  0.629272  -4e-05  4.168909  0.0
C  C53  1  0.12701158  0.67438995  0.77235170  1  1.59355  -0.000691  0.22102  0.60429  -0.000782  4.236988  0.0
C  C54  1  0.87298449  0.32561054  0.22764871  1  1.593643  -0.000691  0.221034  0.604344  -0.000782  4.236903  0.0
C  C55  1  0.06709594  0.57779317  0.82001346  1  0.482208  -0.001278  0.101781  0.020228  -0.001484  3.882155  -0.001
C  C56  1  0.93290219  0.42220303  0.17998538  1  0.482184  -0.001279  0.101754  0.020132  -0.001485  3.882048  -0.001
C  C57  1  0.92248145  0.37976879  0.85754592  1  0.988992  -0.00553  0.170839  0.186496  -0.006118  3.806214  -0.004
C  C58  1  0.07751565  0.62022955  0.14245348  1  0.989017  -0.005531  0.170891  0.186563  -0.006119  3.806066  -0.004
C  C59  1  0.07958457  0.60022513  0.88606637  1  0.388366  -0.004552  0.09164  -0.002593  -0.004991  3.966501  -0.003
C  C60  1  0.92041485  0.39976999  0.11393291  1  0.38828  -0.004551  0.091649  -0.002445  -0.00499  3.966413  -0.003
C  C61  1  0.18560321  0.71181352  0.93562041  1  1.580533  -0.006909  0.239627  0.614987  -0.008402  4.138692  -0.005
C  C62  1  0.81439565  0.28818590  0.06437955  1  1.580479  -0.006912  0.239708  0.615107  -0.008405  4.138548  -0.005
S  S63  1  0.67995254  0.63888506  0.56487244  1  3.849  -0.0  0.593029  1.476997  -0.0  6.358892  0.0
S  S64  1  0.32004681  0.36111651  0.43512765  1  3.84897  -0.0  0.593059  1.476996  -0.0  6.35872  0.0
S  S65  1  0.82795641  0.17543166  0.62850120  1  3.846272  0.0  0.600637  1.537637  -3e-06  6.310843  0.0
S  S66  1  0.17204900  0.82456996  0.37149762  1  3.846233  0.0  0.600575  1.537503  -3e-06  6.310985  0.0
S  S67  1  0.78785573  0.91604974  0.81648662  1  3.836896  -4e-06  0.59884  1.503444  -1e-05  6.324845  0.0
S  S68  1  0.21214586  0.08395507  0.18351369  1  3.836857  -4e-06  0.598868  1.503405  -1e-05  6.324904  0.0
N  N69  1  0.44016789  0.39933588  0.68995234  1  -1.208126  -5.2e-05  -0.412661  -0.416857  -4.8e-05  3.466073  0.0
N  N70  1  0.55982875  0.60066029  0.31004834  1  -1.208141  -5.2e-05  -0.412662  -0.416892  -4.8e-05  3.466112  0.0
N  N71  1  0.53635278  0.53901557  0.78051105  1  -1.290274  -5.4e-05  -0.362279  -0.225666  -5.5e-05  3.637115  0.0
N  N72  1  0.46364656  0.46098600  0.21948904  1  -1.290334  -5.4e-05  -0.362228  -0.225604  -5.5e-05  3.637014  0.0
N  N73  1  0.98670291  0.47752615  0.90846582  1  -1.155592  -0.006393  -0.353289  -0.276996  -0.006006  3.606573  -0.004
N  N74  1  0.01329572  0.52247219  0.09153409  1  -1.155574  -0.006393  -0.353289  -0.277078  -0.006006  3.60648  -0.004
N  N75  1  0.96775797  0.43792199  0.80386073  1  -1.266861  -0.001212  -0.350633  -0.22096  -0.000961  3.613042  0.0
N  N76  1  0.03223915  0.56207634  0.19613960  1  -1.266798  -0.001212  -0.350687  -0.221032  -0.000961  3.612874  0.0
O  O77  1  0.59217665  0.49268985  0.57545010  1  -1.357535  -1e-06  -0.403369  -0.717562  -0.0  2.369161  0.0
O  O78  1  0.40782422  0.50731173  0.42455002  1  -1.357573  -1e-06  -0.40336  -0.717554  -0.0  2.369066  0.0
O  O79  1  0.78817962  0.71780098  0.62530061  1  -1.358026  -6e-06  -0.423183  -0.731226  -5e-06  2.361707  0.0
O  O80  1  0.21181715  0.28220276  0.37469858  1  -1.358008  -6e-06  -0.423214  -0.731224  -5e-06  2.361615  0.0
O  O81  1  0.52386340  0.71939451  0.53689587  1  -1.342617  -0.0  -0.349901  -0.689142  -0.0  2.209714  0.0
O  O82  1  0.47613697  0.28060494  0.46310272  1  -1.342601  -0.0  -0.349903  -0.689126  -0.0  2.209704  0.0
O  O83  1  0.83654943  0.63044660  0.51704000  1  -1.331679  -1e-06  -0.397897  -0.733379  -1e-06  2.261731  0.0
O  O84  1  0.16345298  0.36955496  0.48296110  1  -1.331749  -1e-06  -0.397909  -0.733385  -1e-06  2.261744  0.0
O  O85  1  0.97875141  0.23043785  0.58552325  1  -1.353486  -1e-06  -0.432248  -0.758266  -1e-06  2.331554  0.0
O  O86  1  0.02125151  0.76955945  0.41447530  1  -1.353415  -1e-06  -0.432339  -0.758305  -1e-06  2.331559  0.0
O  O87  1  0.61935169  0.18331384  0.59846232  1  -1.358356  -2e-06  -0.444552  -0.759548  -2e-06  2.337498  0.0
O  O88  1  0.38065221  0.81668777  0.40153694  1  -1.358316  -2e-06  -0.444546  -0.75948  -2e-06  2.337493  0.0
O  O89  1  0.86987698  0.25293312  0.69291796  1  -1.362373  -2.2e-05  -0.344832  -0.655605  -1.4e-05  2.161057  0.0
O  O90  1  0.13012994  0.74706852  0.30707997  1  -1.362429  -2.2e-05  -0.34479  -0.655551  -1.4e-05  2.160989  0.0
O  O91  1  0.83480836  0.01587413  0.63139190  1  -1.334215  -7e-06  -0.433996  -0.794939  -6e-06  2.244025  0.0
O  O92  1  0.16519834  0.98412640  0.36860738  1  -1.33426  -7e-06  -0.433908  -0.794863  -6e-06  2.244156  0.0
O  O93  1  0.26337853  0.12581004  0.66086603  1  -1.174198  -2.4e-05  -0.378764  -0.685551  -2.3e-05  2.405589  0.0
O  O94  1  0.73662362  0.87419046  0.33913407  1  -1.174261  -2.4e-05  -0.378781  -0.685576  -2.3e-05  2.40564  0.0
O  O95  1  0.23499006  0.08340888  0.76005135  1  -1.203082  -3.4e-05  -0.414804  -0.724119  -2.9e-05  2.413433  0.0
O  O96  1  0.76501082  0.91659269  0.23994924  1  -1.203054  -3.5e-05  -0.414815  -0.724093  -2.9e-05  2.413401  0.0
O  O97  1  0.46246986  0.49276138  0.90428437  1  -1.186886  0.000506  -0.297902  -0.538864  2.3e-05  2.248828  0.0
O  O98  1  0.53753102  0.50724018  0.09571670  1  -1.187475  0.000506  -0.297869  -0.538794  2.3e-05  2.248926  0.0
O  O99  1  0.41648263  0.25413908  0.87720311  1  -1.206845  0.000342  -0.431133  -0.682438  0.00015  2.373957  0.0
O  O100  1  0.58351896  0.74586573  0.12279719  1  -1.206766  0.000342  -0.431115  -0.682347  0.00015  2.373842  0.0
O  O101  1  0.83969460  0.86581113  0.75193191  1  -1.361042  -7e-06  -0.441056  -0.765672  -5e-06  2.36748  0.0
O  O102  1  0.16030664  0.13419909  0.24806725  1  -1.361062  -7e-06  -0.441037  -0.765679  -5e-06  2.367552  0.0
O  O103  1  0.61652800  0.00275709  0.80547542  1  -1.336779  -1.2e-05  -0.424301  -0.756473  -0.0  2.273178  0.0
O  O104  1  0.38346984  0.99724446  0.19452556  1  -1.336785  -1.2e-05  -0.424295  -0.756418  -0.0  2.273219  0.0
O  O105  1  0.71899750  0.79343101  0.85073764  1  -1.346513  -4.3e-05  -0.335169  -0.641339  -7.6e-05  2.164969  0.0
O  O106  1  0.28100944  0.20657060  0.14926170  1  -1.346616  -4.4e-05  -0.335189  -0.641361  -7.7e-05  2.164955  0.0
O  O107  1  0.96903623  0.01118583  0.85355968  1  -1.354123  -3e-05  -0.422325  -0.771873  -4.4e-05  2.320033  0.0
O  O108  1  0.03095953  0.98882003  0.14644147  1  -1.354071  -3e-05  -0.422373  -0.771866  -4.4e-05  2.319981  0.0
O  O109  1  0.07285744  0.63157822  0.71378909  1  -1.174093  -0.000665  -0.33694  -0.602152  -0.000668  2.252329  -0.001
O  O110  1  0.92713546  0.36842876  0.28620875  1  -1.174064  -0.000666  -0.33683  -0.602127  -0.000668  2.252429  -0.001
O  O111  1  0.22263679  0.80230722  0.79018747  1  -1.202043  -0.000426  -0.402952  -0.727316  -0.00041  2.429022  0.0
O  O112  1  0.77736089  0.19768680  0.20981313  1  -1.20208  -0.000427  -0.403066  -0.727424  -0.00041  2.428876  0.0
O  O113  1  0.28999478  0.82723496  0.92498240  1  -1.188594  -0.005414  -0.401791  -0.63371  -0.005426  2.365799  -0.004
O  O114  1  0.71000058  0.17276228  0.07501830  1  -1.188618  -0.005415  -0.401838  -0.633838  -0.005427  2.365803  -0.004
O  O115  1  0.17108247  0.67977016  0.99320111  1  -1.0894  -0.001722  -0.29015  -0.484742  -0.002175  2.361763  -0.001
O  O116  1  0.82891768  0.32022819  0.00679883  1  -1.089419  -0.001719  -0.290204  -0.484784  -0.002173  2.361827  -0.001
O  O117  1  0.17467472  0.51157356  0.60106710  1  -1.237959  -8e-06  -0.618179  -0.837595  -7e-06  2.119866  0.0
O  O118  1  0.82532393  0.48842476  0.39893421  1  -1.238005  -8e-06  -0.618158  -0.837529  -7e-06  2.1199  0.0
O  O119  1  0.23722159  0.06357199  0.51420808  1  -1.254607  -0.0  -0.64542  -0.851946  -0.0  2.093918  0.0
O  O120  1  0.76278381  0.93642963  0.48579028  1  -1.254643  -0.0  -0.645361  -0.851956  -0.0  2.093905  0.0
O  O121  1  0.16860846  0.81675525  0.56983938  1  -1.290275  -1e-06  -0.605018  -0.826063  -0.0  2.081102  0.0
O  O122  1  0.83139216  0.18324526  0.43016022  1  -1.290292  -1e-06  -0.604965  -0.825896  -0.0  2.081241  0.0
O  O123  1  0.43810635  0.87495703  0.68296755  1  -1.244689  -5e-06  -0.630378  -0.834326  -3e-06  2.09711  0.0
O  O124  1  0.56189532  0.12504132  0.31703243  1  -1.244681  -5e-06  -0.630354  -0.834378  -3e-06  2.097098  0.0
O  O125  1  0.72771314  0.62195301  0.99944801  1  -1.253449  0.056145  -0.549929  -0.73229  0.028743  2.196352  0.047
O  O126  1  0.27228879  0.37804640  0.00055297  1  -1.253486  0.056145  -0.5499  -0.732301  0.028742  2.196326  0.047
O  O127  1  0.19501917  0.09882088  0.96854420  1  -1.252849  0.000605  -0.598679  -0.822603  0.00025  2.067358  0.0
O  O128  1  0.80498124  0.90117853  0.03145674  1  -1.252734  0.000605  -0.598695  -0.82265  0.00025  2.06733  0.0
O  O129  1  0.62689038  0.06008585  0.94130698  1  -1.29769  -1.2e-05  -0.646357  -0.86296  -3.8e-05  2.131514  0.0
O  O130  1  0.37310826  0.93991249  0.05869339  1  -1.297549  -1.2e-05  -0.646336  -0.862857  -3.8e-05  2.131621  0.0
