# generated using pymatgen
data_Cu2H4C6N2O7
_symmetry_space_group_name_H-M   'P 1'
_cell_length_a   5.92234744
_cell_length_b   9.11763070
_cell_length_c   9.78279603
_cell_angle_alpha   114.39048806
_cell_angle_beta   90.00094672
_cell_angle_gamma   90.08728589
_symmetry_Int_Tables_number   1
_chemical_formula_structural   Cu2H4C6N2O7
_chemical_formula_sum   'Cu4 H8 C12 N4 O14'
_cell_volume   481.10349091
_cell_formula_units_Z   2
loop_
 _symmetry_equiv_pos_site_id
 _symmetry_equiv_pos_as_xyz
  1  'x, y, z'
loop_
 _atom_site_type_symbol
 _atom_site_label
 _atom_site_symmetry_multiplicity
 _atom_site_fract_x
 _atom_site_fract_y
 _atom_site_fract_z
 _atom_site_occupancy
 _atom_site_pbe_cm5_charge
 _atom_site_pbe_ddec_charge
 _atom_site_pbe_ddec_spin_density
 _atom_site_pbe_ddec_sum_bond_order
 _atom_site_pbe_magmom
Cu  Cu0  1  0.31392797  0.82179153  0.36701224  1  0.740938  0.886577  0.565637  2.284845  0.453
Cu  Cu1  1  0.81690092  0.17638457  0.63215766  1  0.740276  0.875787  0.001022  2.311894  0.0
Cu  Cu2  1  0.11586298  0.48080087  0.24493160  1  0.71203  0.88247  -0.590255  2.181451  -0.479
Cu  Cu3  1  0.61444765  0.52201271  0.75807244  1  0.693594  0.849898  0.011208  2.187618  0.009
H  H4  1  0.15454308  0.31634207  0.99707835  1  0.285808  0.367236  -4.5e-05  0.98418  0.001
H  H5  1  0.65187472  0.68403813  0.00484289  1  0.286393  0.368344  2.8e-05  0.981489  0.0
H  H6  1  0.89352179  0.28489599  0.03524692  1  0.284201  0.371192  -0.000373  0.981872  0.0
H  H7  1  0.39158216  0.71615493  0.96660892  1  0.283852  0.369827  -2.3e-05  0.983885  0.0
H  H8  1  0.04936039  0.69243400  0.14413183  1  0.276625  0.388327  0.000112  0.948102  0.0
H  H9  1  0.55561846  0.30637228  0.85578764  1  0.276993  0.385893  -2.5e-05  0.950514  0.0
H  H10  1  0.05617492  0.03817992  0.84592886  1  0.133963  0.111384  1.7e-05  0.987761  0.0
H  H11  1  0.55770568  0.96337547  0.15384798  1  0.134145  0.111245  0.000596  0.98618  0.001
C  C12  1  0.41194356  0.62859590  0.54578842  1  0.216712  0.583682  -0.000224  4.159355  0.0
C  C13  1  0.91191349  0.36949719  0.45308885  1  0.216521  0.577261  -4e-06  4.158618  0.0
C  C14  1  0.58369319  0.75270223  0.63278991  1  0.108141  -0.03396  -0.003061  3.886059  -0.003
C  C15  1  0.08413609  0.24638714  0.36607902  1  0.108307  -0.031591  0.002906  3.889683  0.004
C  C16  1  0.87200809  0.82074973  0.81075542  1  0.107169  0.044583  -0.000873  3.937281  -0.001
C  C17  1  0.37233095  0.17976149  0.18849267  1  0.108833  0.046979  0.003288  3.935218  0.005
C  C18  1  0.91693775  0.95928462  0.78724652  1  0.07953  0.099643  0.00074  3.899869  0.001
C  C19  1  0.41825261  0.04163410  0.21251999  1  0.081511  0.103095  -0.002294  3.897223  -0.004
C  C20  1  0.62745169  0.89466688  0.60937368  1  0.221965  0.448892  0.001464  4.071723  0.001
C  C21  1  0.12905429  0.10500002  0.38979758  1  0.222685  0.449061  -0.001709  4.072375  -0.003
C  C22  1  0.01572166  0.78836103  0.92243819  1  0.215583  0.5575  -9.3e-05  4.243328  0.0
C  C23  1  0.51566934  0.21149955  0.07624836  1  0.216111  0.556542  -7.4e-05  4.243286  0.0
N  N24  1  0.79244577  0.99753958  0.69409117  1  -0.34552  -0.287768  0.002084  3.547166  0.003
N  N25  1  0.29458744  0.00304421  0.30573233  1  -0.34457  -0.29135  0.043747  3.541242  0.058
N  N26  1  0.70240937  0.72209228  0.73499941  1  -0.318713  -0.220802  -4.2e-05  3.661447  0.0
N  N27  1  0.20244819  0.27747472  0.26399228  1  -0.317321  -0.22422  -0.031421  3.658165  -0.041
O  O28  1  0.32068185  0.63993984  0.42908163  1  -0.320232  -0.549729  0.011637  2.499901  0.018
O  O29  1  0.81984684  0.35760503  0.56943667  1  -0.307811  -0.52685  0.000499  2.470081  0.001
O  O30  1  0.36398009  0.51896590  0.58577247  1  -0.292983  -0.49982  0.007652  2.234969  0.011
O  O31  1  0.86397135  0.47967649  0.41388691  1  -0.294574  -0.501293  -0.000564  2.236793  -0.001
O  O32  1  0.92313153  0.72498727  0.00228380  1  -0.29856  -0.533138  -0.000287  2.243249  0.0
O  O33  1  0.42308085  0.27253715  0.99456643  1  -0.298139  -0.53196  0.001327  2.245695  0.001
O  O34  1  0.22022990  0.83099082  0.92813338  1  -0.314256  -0.548432  -0.000191  2.205333  0.0
O  O35  1  0.72028423  0.17007845  0.07167818  1  -0.313468  -0.547197  -0.000828  2.207574  -0.001
O  O36  1  0.52905573  0.94001042  0.51655228  1  -0.327254  -0.542204  0.034824  2.48935  0.05
O  O37  1  0.03080999  0.05943752  0.48269789  1  -0.325124  -0.537464  -0.000991  2.490812  0.0
O  O38  1  0.00394860  0.36925708  0.03373568  1  -0.571571  -0.71457  -0.05653  2.149919  -0.079
O  O39  1  0.50049671  0.63177978  0.96946377  1  -0.57162  -0.713181  0.000786  2.145958  0.001
O  O40  1  0.09604740  0.68447655  0.23882090  1  -0.599792  -0.809529  0.001017  2.245878  0.002
O  O41  1  0.61120919  0.31919201  0.76481889  1  -0.59038  -0.790361  -0.000685  2.272016  -0.001
