# generated using pymatgen
data_ZnH10C6N4O5
_symmetry_space_group_name_H-M   'P 1'
_cell_length_a   6.49333012
_cell_length_b   7.74699855
_cell_length_c   21.38064640
_cell_angle_alpha   90.00046169
_cell_angle_beta   89.99993197
_cell_angle_gamma   113.75820448
_symmetry_Int_Tables_number   1
_chemical_formula_structural   ZnH10C6N4O5
_chemical_formula_sum   'Zn4 H40 C24 N16 O20'
_cell_volume   984.38123923
_cell_formula_units_Z   4
loop_
 _symmetry_equiv_pos_site_id
 _symmetry_equiv_pos_as_xyz
  1  'x, y, z'
loop_
 _atom_site_type_symbol
 _atom_site_label
 _atom_site_symmetry_multiplicity
 _atom_site_fract_x
 _atom_site_fract_y
 _atom_site_fract_z
 _atom_site_occupancy
 _atom_site_hle17_bader_spin_density
 _atom_site_hle17_ddec_charge
 _atom_site_hle17_ddec_spin_density
 _atom_site_hle17_ddec_sum_bond_order
 _atom_site_hle17_magmom
 _atom_site_hse06_10hf_bader_spin_density
 _atom_site_hse06_10hf_ddec_charge
 _atom_site_hse06_10hf_ddec_spin_density
 _atom_site_hse06_10hf_ddec_sum_bond_order
 _atom_site_hse06_10hf_magmom
 _atom_site_hse06_bader_spin_density
 _atom_site_hse06_ddec_charge
 _atom_site_hse06_ddec_spin_density
 _atom_site_hse06_ddec_sum_bond_order
 _atom_site_hse06_magmom
 _atom_site_pbe_bader_spin_density
 _atom_site_pbe_cm5_charge
 _atom_site_pbe_ddec_charge
 _atom_site_pbe_ddec_spin_density
 _atom_site_pbe_ddec_sum_bond_order
 _atom_site_pbe_magmom
Zn  Zn0  1  0.26542652  0.34279969  0.90260319  1  0  1.031142  0  1.820135  0  0  0.868413  0  2.255556  0  0  0.909489  0  2.209036  0  0  0.669892  0.839926  0  2.287134  0
Zn  Zn1  1  0.23457476  0.15719449  0.40260354  1  0  1.031202  0  1.820145  0  0  0.868453  0  2.255577  0  0  0.909528  0  2.209057  0  0  0.669879  0.839962  0  2.287155  0
Zn  Zn2  1  0.73457058  0.65719955  0.09739732  1  0  1.031175  0  1.820129  0  0  0.868438  0  2.255539  0  0  0.909513  0  2.209021  0  0  0.669895  0.839949  0  2.287117  0
Zn  Zn3  1  0.76542609  0.84280616  0.59739603  1  0  1.031223  0  1.820093  0  0  0.868491  0  2.255525  0  0  0.909566  0  2.209004  0  0  0.669907  0.840003  0  2.287099  0
H  H4  1  0.09384702  0.59247134  0.68421215  1  0  0.1008  0  0.932832  0  0  0.107807  0  0.994831  0  0  0.111567  0  0.991841  0  0  0.123992  0.104975  0  0.997195  0
H  H5  1  0.40615549  0.90751204  0.18421364  1  0  0.100869  0  0.932883  0  0  0.107833  0  0.994901  0  0  0.111589  0  0.991917  0  0  0.124043  0.105002  0  0.997267  0
H  H6  1  0.90614989  0.40753072  0.31578742  1  0  0.100862  0  0.932763  0  0  0.107849  0  0.994788  0  0  0.111608  0  0.991799  0  0  0.124004  0.105019  0  0.997153  0
H  H7  1  0.59384777  0.09248721  0.81578781  1  0  0.100862  0  0.93285  0  0  0.107864  0  0.994852  0  0  0.111621  0  0.991867  0  0  0.124049  0.105032  0  0.99722  0
H  H8  1  0.18762713  0.36699110  0.75330701  1  0  0.104143  0  0.931477  0  0  0.106029  0  1.00181  0  0  0.109921  0  0.999244  0  0  0.122188  0.103164  0  1.003876  0
H  H9  1  0.31236802  0.13299229  0.25330445  1  0  0.104153  0  0.93141  0  0  0.106063  0  1.001717  0  0  0.10995  0  0.999158  0  0  0.122225  0.103197  0  1.003787  0
H  H10  1  0.81236707  0.63300532  0.24669163  1  0  0.104166  0  0.931505  0  0  0.106036  0  1.001847  0  0  0.109926  0  0.999284  0  0  0.122214  0.10317  0  1.003919  0
H  H11  1  0.68763234  0.86700413  0.74669512  1  0  0.104113  0  0.93147  0  0  0.106009  0  1.001796  0  0  0.1099  0  0.99923  0  0  0.122218  0.103143  0  1.003863  0
H  H12  1  0.67402059  0.59398493  0.87298043  1  0  0.33315  0  0.919046  0  0  0.315012  0  0.987791  0  0  0.32214  0  0.982138  0  0  0.276045  0.309968  0  0.991721  0
H  H13  1  0.82597461  0.90601357  0.37298007  1  0  0.333191  0  0.919015  0  0  0.315045  0  0.987765  0  0  0.322172  0  0.982112  0  0  0.27606  0.310002  0  0.991695  0
H  H14  1  0.32597872  0.40601572  0.12702008  1  0  0.333183  0  0.919108  0  0  0.314992  0  0.98792  0  0  0.322121  0  0.982266  0  0  0.276032  0.309947  0  0.991849  0
H  H15  1  0.17402403  0.09398567  0.62702044  1  0  0.333175  0  0.919047  0  0  0.315029  0  0.987795  0  0  0.322156  0  0.982144  0  0  0.276052  0.309985  0  0.991725  0
H  H16  1  0.58974048  0.41512497  0.82253831  1  0  0.320108  0  0.937348  0  0  0.298839  0  1.014748  0  0  0.305695  0  1.009249  0  0  0.274844  0.293997  0  1.018601  0
H  H17  1  0.91025699  0.08487338  0.32253885  1  0  0.320123  0  0.937333  0  0  0.298839  0  1.014756  0  0  0.305695  0  1.009259  0  0  0.274857  0.293997  0  1.01861  0
H  H18  1  0.41025816  0.58487427  0.17746174  1  0  0.32012  0  0.937338  0  0  0.298851  0  1.014728  0  0  0.305706  0  1.009231  0  0  0.274846  0.294008  0  1.018583  0
H  H19  1  0.08974165  0.91512586  0.67746166  1  0  0.320095  0  0.937369  0  0  0.298812  0  1.014787  0  0  0.305668  0  1.009289  0  0  0.274835  0.29397  0  1.018641  0
H  H20  1  0.69443243  0.38973160  0.89066341  1  0  0.345023  0  0.906363  0  0  0.33123  0  0.965603  0  0  0.338086  0  0.960188  0  0  0.279141  0.326356  0  0.969437  0
H  H21  1  0.80556867  0.11026845  0.39066314  1  0  0.345007  0  0.906423  0  0  0.331208  0  0.965661  0  0  0.338067  0  0.960238  0  0  0.279141  0.326334  0  0.969495  0
H  H22  1  0.30556467  0.61026764  0.10933710  1  0  0.345104  0  0.906351  0  0  0.331305  0  0.965573  0  0  0.338161  0  0.960156  0  0  0.279191  0.326431  0  0.969407  0
H  H23  1  0.19443064  0.88973220  0.60933738  1  0  0.34502  0  0.906411  0  0  0.331222  0  0.965647  0  0  0.33808  0  0.960226  0  0  0.279148  0.326349  0  0.969481  0
H  H24  1  0.26627004  0.07589549  0.97525916  1  0  0.344868  0  0.924976  0  0  0.329638  0  0.985294  0  0  0.33646  0  0.979982  0  0  0.284333  0.32479  0  0.989126  0
H  H25  1  0.23372924  0.42410474  0.47525796  1  0  0.344848  0  0.924993  0  0  0.329636  0  0.985289  0  0  0.336461  0  0.979971  0  0  0.284325  0.324785  0  0.989129  0
H  H26  1  0.73372705  0.92410375  0.02474135  1  0  0.344882  0  0.92497  0  0  0.329644  0  0.985298  0  0  0.336466  0  0.979988  0  0  0.284342  0.324795  0  0.989135  0
H  H27  1  0.76627008  0.57589591  0.52474162  1  0  0.344852  0  0.925011  0  0  0.329642  0  0.985308  0  0  0.336468  0  0.979989  0  0  0.284329  0.324791  0  0.989148  0
H  H28  1  0.17171193  0.20947739  0.01655122  1  0  0.344195  0  0.907608  0  0  0.328895  0  0.968541  0  0  0.335189  0  0.964483  0  0  0.28627  0.324444  0  0.971423  0
H  H29  1  0.32828271  0.29052546  0.51655304  1  0  0.344181  0  0.90764  0  0  0.328881  0  0.968588  0  0  0.335177  0  0.964527  0  0  0.286239  0.324429  0  0.97147  0
H  H30  1  0.82828362  0.79052185  0.98344882  1  0  0.344206  0  0.907625  0  0  0.328897  0  0.968576  0  0  0.335191  0  0.964517  0  0  0.286266  0.324446  0  0.971457  0
H  H31  1  0.67171506  0.70947519  0.48344748  1  0  0.344162  0  0.907668  0  0  0.328868  0  0.968603  0  0  0.335164  0  0.964542  0  0  0.286239  0.324417  0  0.971487  0
H  H32  1  0.44637295  0.28145253  0.00402219  1  0  0.342687  0  0.927686  0  0  0.329221  0  0.985007  0  0  0.336059  0  0.979862  0  0  0.282382  0.324383  0  0.988656  0
H  H33  1  0.05362468  0.21855001  0.50402249  1  0  0.342675  0  0.927655  0  0  0.329202  0  0.984988  0  0  0.336041  0  0.979849  0  0  0.282409  0.324361  0  0.988626  0
H  H34  1  0.55362347  0.71854530  0.99597738  1  0  0.342724  0  0.927566  0  0  0.329257  0  0.984895  0  0  0.336094  0  0.979748  0  0  0.282412  0.324419  0  0.98854  0
H  H35  1  0.94637532  0.78145205  0.49597709  1  0  0.342707  0  0.927566  0  0  0.329242  0  0.984899  0  0  0.336078  0  0.979755  0  0  0.282411  0.324405  0  0.988543  0
H  H36  1  0.83139768  0.09663320  0.89940872  1  0  0.401908  0  0.910538  0  0  0.370023  0  0.977639  0  0  0.381459  0  0.960899  0  0  0.278797  0.361964  0  0.989402  0
H  H37  1  0.66859732  0.40336707  0.39940748  1  0  0.401928  0  0.910506  0  0  0.370054  0  0.977582  0  0  0.381489  0  0.960846  0  0  0.278826  0.361997  0  0.989343  0
H  H38  1  0.16859941  0.90336604  0.10059132  1  0  0.401927  0  0.910509  0  0  0.370046  0  0.977604  0  0  0.381481  0  0.960866  0  0  0.278809  0.36199  0  0.989364  0
H  H39  1  0.33140045  0.59663358  0.60059210  1  0  0.40196  0  0.910459  0  0  0.370094  0  0.977523  0  0  0.381527  0  0.960788  0  0  0.278842  0.362035  0  0.989288  0
H  H40  1  0.84632741  0.21150786  0.96261418  1  0  0.40575  0  0.904248  0  0  0.372007  0  0.973506  0  0  0.384031  0  0.955916  0  0  0.282467  0.36353  0  0.985885  0
H  H41  1  0.65366848  0.28848835  0.46261260  1  0  0.405684  0  0.904327  0  0  0.371984  0  0.973533  0  0  0.384009  0  0.955942  0  0  0.282435  0.363504  0  0.985916  0
H  H42  1  0.15366969  0.78849138  0.03738587  1  0  0.405733  0  0.904272  0  0  0.371984  0  0.97354  0  0  0.384009  0  0.955949  0  0  0.282457  0.363507  0  0.985918  0
H  H43  1  0.34633083  0.71151230  0.53738650  1  0  0.405678  0  0.904334  0  0  0.37198  0  0.973536  0  0  0.384003  0  0.955946  0  0  0.282429  0.363499  0  0.98592  0
C  C44  1  0.15196539  0.66066937  0.85940760  1  0  0.032956  0  3.693293  0  0  0.031126  0  3.932811  0  0  0.029307  0  3.950152  0  0  0.120602  0.031825  0  3.92174  0
C  C45  1  0.34803768  0.83931980  0.35940657  1  0  0.032849  0  3.693118  0  0  0.030996  0  3.932657  0  0  0.029185  0  3.949987  0  0  0.120565  0.031699  0  3.921587  0
C  C46  1  0.84804280  0.33933692  0.14059244  1  0  0.033025  0  3.693406  0  0  0.031172  0  3.93298  0  0  0.02936  0  3.950317  0  0  0.120601  0.031873  0  3.921903  0
C  C47  1  0.65196385  0.16068226  0.64059441  1  0  0.032912  0  3.693181  0  0  0.031104  0  3.932667  0  0  0.029241  0  3.950058  0  0  0.120558  0.031809  0  3.921596  0
C  C48  1  0.08933093  0.77975988  0.82135421  1  0  0.073606  0  3.685093  0  0  0.072312  0  3.939683  0  0  0.073883  0  3.953415  0  0  0.133399  0.070743  0  3.931101  0
C  C49  1  0.41066037  0.72022692  0.32135328  1  0  0.073829  0  3.685155  0  0  0.072546  0  3.939771  0  0  0.074116  0  3.953506  0  0  0.133445  0.070975  0  3.931191  0
C  C50  1  0.91067387  0.22023936  0.17864583  1  0  0.073435  0  3.685268  0  0  0.072084  0  3.939939  0  0  0.073648  0  3.953678  0  0  0.133352  0.070516  0  3.931356  0
C  C51  1  0.58933894  0.27977373  0.67864723  1  0  0.073631  0  3.685258  0  0  0.072307  0  3.939894  0  0  0.07389  0  3.953649  0  0  0.133337  0.070736  0  3.93131  0
C  C52  1  0.10858513  0.61083350  0.73478782  1  0  0.099825  0  3.66216  0  0  0.069348  0  3.931785  0  0  0.073199  0  3.945549  0  0  0.06033  0.066776  0  3.92275  0
C  C53  1  0.39141570  0.88915961  0.23478692  1  0  0.099856  0  3.66213  0  0  0.069474  0  3.931669  0  0  0.073319  0  3.945444  0  0  0.060303  0.066901  0  3.922637  0
C  C54  1  0.89141099  0.38915728  0.26521269  1  0  0.099848  0  3.661916  0  0  0.069381  0  3.931562  0  0  0.073228  0  3.945331  0  0  0.060357  0.066807  0  3.922531  0
C  C55  1  0.60859045  0.11084245  0.76521359  1  0  0.099913  0  3.661949  0  0  0.069433  0  3.931578  0  0  0.073281  0  3.945344  0  0  0.06032  0.066859  0  3.922547  0
C  C56  1  0.16136392  0.48705991  0.77243055  1  0  0.08265  0  3.648336  0  0  0.050081  0  3.908948  0  0  0.05265  0  3.924337  0  0  0.056163  0.047756  0  3.899355  0
C  C57  1  0.33863484  0.01291832  0.27243138  1  0  0.082618  0  3.648515  0  0  0.049973  0  3.909143  0  0  0.052573  0  3.924483  0  0  0.056097  0.047651  0  3.899547  0
C  C58  1  0.83863145  0.51294215  0.22756902  1  0  0.082626  0  3.647937  0  0  0.050072  0  3.908577  0  0  0.052653  0  3.923945  0  0  0.056131  0.047745  0  3.898988  0
C  C59  1  0.66137150  0.98708092  0.72756959  1  0  0.082619  0  3.648292  0  0  0.050039  0  3.908891  0  0  0.052621  0  3.924254  0  0  0.0561  0.047718  0  3.899302  0
C  C60  1  0.19163554  0.68750957  0.92919832  1  0  0.636659  0  3.914043  0  0  0.57792  0  4.216699  0  0  0.611494  0  4.208985  0  0  0.218098  0.555301  0  4.221375  0
C  C61  1  0.30836888  0.81249263  0.42919910  1  0  0.636821  0  3.913882  0  0  0.578114  0  4.21655  0  0  0.611692  0  4.208819  0  0  0.21812  0.555487  0  4.221235  0
C  C62  1  0.80836839  0.31249109  0.07080126  1  0  0.636683  0  3.914047  0  0  0.577956  0  4.216708  0  0  0.611528  0  4.208994  0  0  0.218075  0.555336  0  4.221385  0
C  C63  1  0.69163554  0.18751225  0.57080188  1  0  0.636611  0  3.914018  0  0  0.57793  0  4.216636  0  0  0.611524  0  4.20891  0  0  0.218064  0.555302  0  4.22132  0
C  C64  1  0.03279165  0.93828360  0.84685087  1  0  0.641842  0  3.950104  0  0  0.5798  0  4.267318  0  0  0.615566  0  4.255784  0  0  0.212213  0.555389  0  4.274418  0
C  C65  1  0.46719985  0.56170384  0.34684993  1  0  0.641839  0  3.949891  0  0  0.579754  0  4.267174  0  0  0.615512  0  4.255648  0  0  0.212182  0.555343  0  4.274275  0
C  C66  1  0.96720544  0.06171564  0.15314823  1  0  0.641906  0  3.950169  0  0  0.579927  0  4.267294  0  0  0.615696  0  4.255757  0  0  0.212205  0.555515  0  4.274396  0
C  C67  1  0.53279811  0.43829399  0.65315011  1  0  0.641879  0  3.949849  0  0  0.57983  0  4.267097  0  0  0.615575  0  4.255593  0  0  0.212216  0.555419  0  4.274197  0
N  N68  1  0.18413034  0.51487108  0.83415230  1  0  -0.262743  0  3.278806  0  0  -0.196375  0  3.533655  0  0  -0.207017  0  3.549528  0  0  -0.293377  -0.188939  0  3.523102  0
N  N69  1  0.31585404  0.98511746  0.33415030  1  0  -0.26282  0  3.278652  0  0  -0.196386  0  3.533453  0  0  -0.20704  0  3.549326  0  0  -0.293331  -0.188949  0  3.522899  0
N  N70  1  0.81587292  0.48512817  0.16584634  1  0  -0.262806  0  3.278906  0  0  -0.196418  0  3.53376  0  0  -0.207066  0  3.549633  0  0  -0.293377  -0.18898  0  3.523204  0
N  N71  1  0.68415125  0.01488601  0.66584927  1  0  -0.262778  0  3.278594  0  0  -0.196371  0  3.533384  0  0  -0.206997  0  3.54926  0  0  -0.293284  -0.188945  0  3.52284  0
N  N72  1  0.07236698  0.75563507  0.75893792  1  0  -0.270976  0  3.066398  0  0  -0.237753  0  3.330825  0  0  -0.245043  0  3.343363  0  0  -0.286415  -0.23278  0  3.32264  0
N  N73  1  0.42762418  0.74434453  0.25893939  1  0  -0.271219  0  3.06639  0  0  -0.238018  0  3.330819  0  0  -0.245315  0  3.343367  0  0  -0.286462  -0.233043  0  3.322635  0
N  N74  1  0.92762771  0.24436558  0.24106259  1  0  -0.270947  0  3.066646  0  0  -0.237691  0  3.331084  0  0  -0.244984  0  3.343629  0  0  -0.286414  -0.23272  0  3.322903  0
N  N75  1  0.57237840  0.25565330  0.74106252  1  0  -0.271179  0  3.066401  0  0  -0.237941  0  3.330856  0  0  -0.24523  0  3.343395  0  0  -0.286467  -0.232967  0  3.322671  0
N  N76  1  0.59714248  0.44963831  0.86926940  1  0  -0.892189  0  2.914979  0  0  -0.846778  0  3.146854  0  0  -0.86796  0  3.130273  0  0  -0.781899  -0.83186  0  3.158145  0
N  N77  1  0.90285247  0.05035838  0.36926938  1  0  -0.89223  0  2.914984  0  0  -0.846789  0  3.146846  0  0  -0.867969  0  3.130262  0  0  -0.781903  -0.831872  0  3.158138  0
N  N78  1  0.40285240  0.55035952  0.13073111  1  0  -0.892333  0  2.915097  0  0  -0.846843  0  3.146971  0  0  -0.868026  0  3.130387  0  0  -0.781946  -0.831927  0  3.158265  0
N  N79  1  0.09714838  0.94964227  0.63073113  1  0  -0.892219  0  2.915041  0  0  -0.846779  0  3.146901  0  0  -0.867958  0  3.130316  0  0  -0.781899  -0.831862  0  3.158192  0
N  N80  1  0.28979932  0.21272938  0.98421653  1  0  -0.892715  0  2.90609  0  0  -0.842243  0  3.126718  0  0  -0.863852  0  3.110663  0  0  -0.787113  -0.827224  0  3.137728  0
N  N81  1  0.21019696  0.28727106  0.48421680  1  0  -0.892702  0  2.90606  0  0  -0.842211  0  3.126662  0  0  -0.863823  0  3.1106  0  0  -0.787101  -0.827188  0  3.137674  0
N  N82  1  0.71019778  0.78726986  0.01578399  1  0  -0.892786  0  2.905983  0  0  -0.842306  0  3.126644  0  0  -0.863915  0  3.110588  0  0  -0.787155  -0.827288  0  3.137653  0
N  N83  1  0.78980236  0.71272959  0.51578325  1  0  -0.892723  0  2.906004  0  0  -0.84226  0  3.126617  0  0  -0.863866  0  3.110554  0  0  -0.787125  -0.827243  0  3.13763  0
O  O84  1  0.27183866  0.58217990  0.95618377  1  0  -0.610372  0  2.046481  0  0  -0.54035  0  2.285094  0  0  -0.566347  0  2.274555  0  0  -0.304085  -0.522393  0  2.291784  0
O  O85  1  0.22817899  0.91782438  0.45618348  1  0  -0.61046  0  2.046615  0  0  -0.540385  0  2.285154  0  0  -0.566375  0  2.274601  0  0  -0.304114  -0.52243  0  2.291852  0
O  O86  1  0.72816374  0.41782075  0.04381580  1  0  -0.610393  0  2.046409  0  0  -0.54036  0  2.285006  0  0  -0.566354  0  2.274465  0  0  -0.304083  -0.522402  0  2.291696  0
O  O87  1  0.77182938  0.08217909  0.54381843  1  0  -0.610332  0  2.046683  0  0  -0.540278  0  2.285218  0  0  -0.566269  0  2.274667  0  0  -0.30404  -0.522321  0  2.291911  0
O  O88  1  0.14557053  0.81340107  0.95580762  1  0  -0.621161  0  2.036774  0  0  -0.556226  0  2.250963  0  0  -0.581777  0  2.24301  0  0  -0.29797  -0.538747  0  2.256246  0
O  O89  1  0.35444575  0.68660039  0.45580989  1  0  -0.62116  0  2.036625  0  0  -0.556374  0  2.250906  0  0  -0.581935  0  2.242962  0  0  -0.29795  -0.538874  0  2.256179  0
O  O90  1  0.85442810  0.18659817  0.04419149  1  0  -0.621138  0  2.0369  0  0  -0.55622  0  2.251102  0  0  -0.58177  0  2.24315  0  0  -0.297933  -0.538739  0  2.256385  0
O  O91  1  0.64556637  0.31340450  0.54418969  1  0  -0.621096  0  2.036649  0  0  -0.556334  0  2.250941  0  0  -0.581894  0  2.242986  0  0  -0.297973  -0.538835  0  2.256215  0
O  O92  1  0.83213432  0.89360647  0.86502131  1  0  -0.623671  0  1.942781  0  0  -0.566642  0  2.159097  0  0  -0.592775  0  2.149664  0  0  -0.311389  -0.547952  0  2.164798  0
O  O93  1  0.66784000  0.60638055  0.36501873  1  0  -0.623583  0  1.942947  0  0  -0.566545  0  2.159305  0  0  -0.592664  0  2.149866  0  0  -0.311367  -0.547859  0  2.165009  0
O  O94  1  0.16786192  0.10639418  0.13497780  1  0  -0.623721  0  1.942805  0  0  -0.566701  0  2.1591  0  0  -0.592835  0  2.149661  0  0  -0.311399  -0.548012  0  2.164803  0
O  O95  1  0.33216085  0.39362010  0.63498132  1  0  -0.623586  0  1.942951  0  0  -0.566563  0  2.15931  0  0  -0.59267  0  2.149866  0  0  -0.311358  -0.547879  0  2.165015  0
O  O96  1  0.19086491  0.10117926  0.84414905  1  0  -0.628195  0  2.049765  0  0  -0.567166  0  2.317692  0  0  -0.596171  0  2.306485  0  0  -0.314145  -0.546368  0  2.32437  0
O  O97  1  0.30910688  0.39879794  0.34415242  1  0  -0.628271  0  2.049415  0  0  -0.567249  0  2.31738  0  0  -0.596264  0  2.306196  0  0  -0.314146  -0.546447  0  2.324053  0
O  O98  1  0.80913150  0.89881857  0.15585005  1  0  -0.628168  0  2.049747  0  0  -0.567178  0  2.317675  0  0  -0.596175  0  2.306445  0  0  -0.314119  -0.546378  0  2.324353  0
O  O99  1  0.69089108  0.60119989  0.65584715  1  0  -0.628223  0  2.049331  0  0  -0.567223  0  2.317286  0  0  -0.596234  0  2.306114  0  0  -0.314154  -0.546422  0  2.323959  0
O  O100  1  0.86459931  0.22533475  0.91637705  1  0  -0.839287  0  1.883181  0  0  -0.784156  0  2.066388  0  0  -0.805237  0  2.033056  0  0  -0.584773  -0.769009  0  2.089304  0
O  O101  1  0.63539602  0.27466313  0.41637638  1  0  -0.839268  0  1.883258  0  0  -0.784141  0  2.066364  0  0  -0.805236  0  2.033059  0  0  -0.584754  -0.768997  0  2.089288  0
O  O102  1  0.13539933  0.77466450  0.08362252  1  0  -0.839279  0  1.883151  0  0  -0.784138  0  2.066346  0  0  -0.805224  0  2.033021  0  0  -0.584769  -0.768993  0  2.089259  0
O  O103  1  0.36459886  0.72533470  0.58362366  1  0  -0.839274  0  1.883205  0  0  -0.784153  0  2.066303  0  0  -0.805255  0  2.033014  0  0  -0.58476  -0.76901  0  2.089226  0
