# generated using pymatgen
data_Cu2H22WC14(SN)4
_symmetry_space_group_name_H-M   'P 1'
_cell_length_a   9.10304036
_cell_length_b   9.14504322
_cell_length_c   13.57392140
_cell_angle_alpha   86.27074440
_cell_angle_beta   82.14414825
_cell_angle_gamma   65.77198127
_symmetry_Int_Tables_number   1
_chemical_formula_structural   Cu2H22WC14(SN)4
_chemical_formula_sum   'Cu4 H44 W2 C28 S8 N8'
_cell_volume   1020.74601314
_cell_formula_units_Z   2
loop_
 _symmetry_equiv_pos_site_id
 _symmetry_equiv_pos_as_xyz
  1  'x, y, z'
loop_
 _atom_site_type_symbol
 _atom_site_label
 _atom_site_symmetry_multiplicity
 _atom_site_fract_x
 _atom_site_fract_y
 _atom_site_fract_z
 _atom_site_occupancy
 _atom_site_pbe_bader_spin_density
 _atom_site_pbe_cm5_charge
 _atom_site_pbe_ddec_charge
 _atom_site_pbe_ddec_spin_density
 _atom_site_pbe_ddec_sum_bond_order
 _atom_site_pbe_magmom
Cu  Cu0  1  0.55199059  0.77980825  0.64762006  1  0  0.435066  0.299637  0  2.726137  0
Cu  Cu1  1  0.44800840  0.22018993  0.35237906  1  0  0.435085  0.29968  0  2.726122  0
Cu  Cu2  1  0.25953214  0.44705379  0.85501807  1  0  0.442353  0.322293  0  2.695717  0
Cu  Cu3  1  0.74046907  0.55294440  0.14498306  1  0  0.442383  0.322387  0  2.695639  0
H  H4  1  0.41613376  0.11532462  0.69688470  1  0  0.081941  0.133894  0  1.039075  0
H  H5  1  0.58386042  0.88467718  0.30311617  1  0  0.081968  0.133937  0  1.039078  0
H  H6  1  0.45226239  0.28634234  0.64965892  1  0  0.081049  0.124692  0  1.063083  0
H  H7  1  0.54773291  0.71365946  0.35034259  1  0  0.081064  0.124733  0  1.06302  0
H  H8  1  0.57456439  0.15563413  0.73516149  1  0  0.087856  0.132882  0  1.014198  0
H  H9  1  0.42543521  0.84436525  0.26483825  1  0  0.087859  0.132859  0  1.014179  0
H  H10  1  0.72208388  0.22884985  0.50394329  1  0  0.09827  0.147741  0  1.035264  0
H  H11  1  0.27791338  0.77114716  0.49605974  1  0  0.098263  0.14771  0  1.035264  0
H  H12  1  0.05012363  0.85257418  0.37876518  1  0  0.093788  0.139718  0  1.00897  0
H  H13  1  0.94987179  0.14743002  0.62123620  1  0  0.093768  0.139687  0  1.008975  0
H  H14  1  0.95798107  0.06222926  0.35403420  1  0  0.094889  0.151537  0  1.001432  0
H  H15  1  0.04201533  0.93777253  0.64596573  1  0  0.094891  0.151525  0  1.001396  0
H  H16  1  0.89320059  0.93227822  0.29933032  1  0  0.086987  0.134456  0  1.036726  0
H  H17  1  0.10680296  0.06772234  0.70066827  1  0  0.086982  0.134451  0  1.036705  0
H  H18  1  0.87214053  0.69363317  0.37835443  1  0  0.111846  0.098125  0  0.987191  0
H  H19  1  0.12785315  0.30636981  0.62164423  1  0  0.111826  0.098085  0  0.987303  0
H  H20  1  0.73157897  0.65343002  0.46674015  1  0  0.100964  0.095398  0  1.022874  0
H  H21  1  0.26841583  0.34657296  0.53325914  1  0  0.10097  0.095425  0  1.022827  0
H  H22  1  0.92040361  0.59530804  0.59632205  1  0  0.084591  0.087425  0  1.005805  0
H  H23  1  0.07959501  0.40469371  0.40367400  1  0  0.084591  0.08743  0  1.005792  0
H  H24  1  0.06470066  0.62934908  0.50758837  1  0  0.085388  0.092868  0  0.995764  0
H  H25  1  0.93529956  0.37065147  0.49240758  1  0  0.085364  0.092857  0  0.995839  0
H  H26  1  0.94668275  0.50920328  0.80226940  1  0  0.081595  0.132043  0  1.045567  0
H  H27  1  0.05332805  0.49078768  0.19772896  1  0  0.081589  0.132038  0  1.045581  0
H  H28  1  0.78423355  0.45217757  0.85047384  1  0  0.082077  0.137973  0  1.053398  0
H  H29  1  0.21577307  0.54781819  0.14952321  1  0  0.082098  0.138078  0  1.053331  0
H  H30  1  0.94507712  0.32642261  0.76680282  1  0  0.090523  0.135125  0  1.011788  0
H  H31  1  0.05493430  0.67356955  0.23319468  1  0  0.090514  0.135092  0  1.011756  0
H  H32  1  0.85268195  0.20954514  0.00015513  1  0  0.10543  0.150995  0  1.014217  0
H  H33  1  0.14732222  0.79045664  0.99984555  1  0  0.105427  0.150978  0  1.01418  0
H  H34  1  0.99185104  0.05505424  0.16178655  1  0  0.093594  0.14593  0  1.021127  0
H  H35  1  0.00814549  0.94494996  0.83821620  1  0  0.09359  0.145917  0  1.0212  0
H  H36  1  0.12278313  0.12997992  0.20447005  1  0  0.092256  0.139088  0  1.005401  0
H  H37  1  0.87721674  0.87002429  0.79553387  1  0  0.092246  0.139055  0  1.005471  0
H  H38  1  0.20517940  0.95555013  0.12943607  1  0  0.094777  0.138998  0  1.008416  0
H  H39  1  0.79481984  0.04445286  0.87056575  1  0  0.094773  0.138988  0  1.008413  0
H  H40  1  0.33659535  0.18071696  0.12773706  1  0  0.106883  0.09252  0  1.003729  0
H  H41  1  0.66341078  0.81928001  0.87226292  1  0  0.106867  0.092476  0  1.003761  0
H  H42  1  0.35844236  0.32785171  0.04340613  1  0  0.099075  0.090373  0  1.032902  0
H  H43  1  0.64156142  0.67214287  0.95659345  1  0  0.099065  0.090367  0  1.032893  0
H  H44  1  0.60253570  0.09201528  0.01739598  1  0  0.086457  0.098423  0  1.003166  0
H  H45  1  0.39746760  0.90798049  0.98260285  1  0  0.08643  0.09835  0  1.003209  0
H  H46  1  0.49910538  0.11632743  0.91225907  1  0  0.083762  0.081204  0  1.021202  0
H  H47  1  0.50089631  0.88366956  0.08774207  1  0  0.083749  0.081173  0  1.021195  0
W  W48  1  0.41399247  0.60643618  0.75132542  1  0  0.884174  0.881762  0  5.796972  0
W  W49  1  0.58600997  0.39356440  0.24867548  1  0  0.884189  0.881824  0  5.796906  0
C  C50  1  0.50996199  0.15990204  0.67143755  1  0  -0.24919  -0.444252  0  3.969323  0
C  C51  1  0.49003601  0.84009855  0.32856376  1  0  -0.24925  -0.444312  0  3.969371  0
C  C52  1  0.62378578  0.06404263  0.58742947  1  0  0.095141  0.277131  0  4.0043  0
C  C53  1  0.37621112  0.93595797  0.41257194  1  0  0.095147  0.277066  0  4.004521  0
C  C54  1  0.80968888  0.97755001  0.45402209  1  0  0.103673  0.217034  0  3.989697  0
C  C55  1  0.19030899  0.02244818  0.54597788  1  0  0.10365  0.216926  0  3.989934  0
C  C56  1  0.71973513  0.11122591  0.51331886  1  0  -0.125405  -0.358414  0  3.981137  0
C  C57  1  0.28026288  0.88877469  0.48668319  1  0  -0.12542  -0.358359  0  3.981336  0
C  C58  1  0.93507707  0.95356006  0.36707516  1  0  -0.238852  -0.441142  0  3.969701  0
C  C59  1  0.06491933  0.04644172  0.63292478  1  0  -0.238836  -0.44107  0  3.969603  0
C  C60  1  0.83009859  0.69466842  0.45812795  1  0  -0.056712  -0.083706  0  3.907815  0
C  C61  1  0.16989621  0.30533456  0.54187134  1  0  -0.056657  -0.083631  0  3.90789  0
C  C62  1  0.96683487  0.58655494  0.51669180  1  0  -0.169668  -0.160062  0  3.936623  0
C  C63  1  0.03316326  0.41344802  0.48330571  1  0  -0.169655  -0.160129  0  3.936665  0
C  C64  1  0.91566054  0.40859440  0.82925123  1  0  -0.245255  -0.435245  0  3.94415  0
C  C65  1  0.08434608  0.59140135  0.17074508  1  0  -0.245254  -0.435315  0  3.944196  0
C  C66  1  0.00471688  0.32491189  0.91444143  1  0  0.093443  0.271362  0  4.019284  0
C  C67  1  0.99528778  0.67508866  0.08555484  1  0  0.093459  0.271452  0  4.01928  0
C  C68  1  0.96177688  0.23202149  0.98984015  1  0  -0.124231  -0.358187  0  3.980763  0
C  C69  1  0.03822373  0.76798628  0.01015911  1  0  -0.124306  -0.358273  0  3.980667  0
C  C70  1  0.08554842  0.17683926  0.05070892  1  0  0.103684  0.213593  0  3.994771  0
C  C71  1  0.91444749  0.82316373  0.94929174  1  0  0.103681  0.213634  0  3.994725  0
C  C72  1  0.10358350  0.07348654  0.14125475  1  0  -0.236564  -0.435738  0  3.967415  0
C  C73  1  0.89641365  0.92651886  0.85874788  1  0  -0.236521  -0.435689  0  3.967519  0
C  C74  1  0.34705864  0.21268305  0.04856461  1  0  -0.059809  -0.08709  0  3.904072  0
C  C75  1  0.65294021  0.78731275  0.95143685  1  0  -0.05977  -0.087048  0  3.904064  0
C  C76  1  0.49611458  0.08468121  0.99195894  1  0  -0.171958  -0.167237  0  3.932778  0
C  C77  1  0.50388552  0.91531697  0.00804156  1  0  -0.171892  -0.16704  0  3.932698  0
S  S78  1  0.37138223  0.85807007  0.78317614  1  0  -0.398316  -0.47965  0  2.546349  0
S  S79  1  0.62861430  0.14193410  0.21682219  1  0  -0.398308  -0.479648  0  2.546351  0
S  S80  1  0.60385994  0.52422655  0.62060736  1  0  -0.403358  -0.470604  0  2.50841  0
S  S81  1  0.39613918  0.47577404  0.37939238  1  0  -0.403385  -0.470685  0  2.508384  0
S  S82  1  0.18502521  0.59572008  0.71903396  1  0  -0.399228  -0.487934  0  2.546673  0
S  S83  1  0.81497724  0.40428050  0.28096620  1  0  -0.399273  -0.48802  0  2.546724  0
S  S84  1  0.49391200  0.44962743  0.88304511  1  0  -0.398926  -0.467303  0  2.61535  0
S  S85  1  0.50609032  0.55037075  0.11695518  1  0  -0.398895  -0.467284  0  2.615315  0
N  N86  1  0.65093394  0.90939158  0.57351693  1  0  -0.300037  -0.246288  0  3.526484  0
N  N87  1  0.34905814  0.09061260  0.42648183  1  0  -0.300082  -0.246334  0  3.526746  0
N  N88  1  0.76312184  0.85949096  0.49095481  1  0  -0.15467  0.099922  0  3.707402  0
N  N89  1  0.23687123  0.14051083  0.50904470  1  0  -0.154597  0.100073  0  3.707569  0
N  N90  1  0.14779390  0.32811433  0.92863191  1  0  -0.297991  -0.246032  0  3.511811  0
N  N91  1  0.85221112  0.67188263  0.07136597  1  0  -0.297997  -0.246139  0  3.511899  0
N  N92  1  0.19519021  0.23739363  0.01233595  1  0  -0.151379  0.104728  0  3.68247  0
N  N93  1  0.80480681  0.76260936  0.98766461  1  0  -0.151371  0.104741  0  3.682579  0
