# generated using pymatgen
data_Zn4H8C40Cl4O13F8
_symmetry_space_group_name_H-M   'P 1'
_cell_length_a   23.95861555
_cell_length_b   23.96001788
_cell_length_c   23.95829619
_cell_angle_alpha   66.60753142
_cell_angle_beta   72.45860254
_cell_angle_gamma   107.55060052
_symmetry_Int_Tables_number   1
_chemical_formula_structural   Zn4H8C40Cl4O13F8
_chemical_formula_sum   'Zn8 H16 C80 Cl8 O26 F16'
_cell_volume   10550.00899342
_cell_formula_units_Z   2
loop_
 _symmetry_equiv_pos_site_id
 _symmetry_equiv_pos_as_xyz
  1  'x, y, z'
loop_
 _atom_site_type_symbol
 _atom_site_label
 _atom_site_symmetry_multiplicity
 _atom_site_fract_x
 _atom_site_fract_y
 _atom_site_fract_z
 _atom_site_occupancy
 _atom_site_pbe_bader_charge
 _atom_site_pbe_bader_spin_density
 _atom_site_pbe_cm5_charge
 _atom_site_pbe_ddec_charge
 _atom_site_pbe_ddec_spin_density
 _atom_site_pbe_ddec_sum_bond_order
 _atom_site_pbe_magmom
Zn  Zn0  1  0.05712553  0.95765184  0.48523283  1  1.322651  0  0.678263  0.977312  0  2.362004  0
Zn  Zn1  1  0.05712513  0.09947367  0.45765403  1  1.321751  0  0.678232  0.977205  0  2.362012  0
Zn  Zn2  1  0.94286850  0.98522933  0.45764403  1  1.322709  0  0.67826  0.977282  0  2.361822  0
Zn  Zn3  1  0.94288664  0.95764869  0.59947638  1  1.321659  0  0.678246  0.977235  0  2.362062  0
Zn  Zn4  1  0.94287638  0.54234838  0.01476810  1  1.322595  0  0.678265  0.97735  0  2.361944  0
Zn  Zn5  1  0.05713332  0.51477287  0.04235530  1  1.322738  0  0.678271  0.977262  0  2.361708  0
Zn  Zn6  1  0.94287483  0.40052545  0.04235053  1  1.32171  0  0.678257  0.977229  0  2.362062  0
Zn  Zn7  1  0.05711277  0.54234755  0.90052368  1  1.321615  0  0.678253  0.977279  0  2.362019  0
H  H8  1  0.92328333  0.71460569  0.17478487  1  0.102829  0  0.119701  0.1505  0  0.971714  0
H  H9  1  0.07670340  0.67477462  0.21464583  1  0.103268  0  0.119635  0.150347  0  0.971841  0
H  H10  1  0.92329083  0.82521843  0.28536318  1  0.102317  0  0.119694  0.15056  0  0.971642  0
H  H11  1  0.07665784  0.78532126  0.32529013  1  0.091473  0  0.119703  0.150304  0  0.972082  0
H  H12  1  0.07671986  0.40190292  0.70868833  1  0.13787  0  0.119725  0.1505  0  0.971812  0
H  H13  1  0.92329520  0.20865172  0.90194134  1  0.13852  0  0.119645  0.150341  0  0.971914  0
H  H14  1  0.07666423  0.29133547  0.59807112  1  0.138118  0  0.119647  0.150331  0  0.972177  0
H  H15  1  0.92329187  0.09806911  0.79133732  1  0.138466  0  0.119704  0.150461  0  0.971777  0
H  H16  1  0.61059565  0.40192217  0.17475323  1  0.117507  0  0.119736  0.150458  0  0.972034  0
H  H17  1  0.61059239  0.20865797  0.21464494  1  0.084668  0  0.119694  0.150446  0  0.971895  0
H  H18  1  0.38940999  0.29134307  0.28534518  1  0.08465  0  0.119624  0.150257  0  0.972004  0
H  H19  1  0.38940417  0.09809038  0.32517217  1  0.120067  0  0.119726  0.150521  0  0.97169  0
H  H20  1  0.38941461  0.67473321  0.90192274  1  0.096337  0  0.119682  0.150372  0  0.972037  0
H  H21  1  0.38939712  0.71463628  0.70864994  1  0.084304  0  0.119646  0.150416  0  0.971855  0
H  H22  1  0.61060590  0.78535578  0.79135235  1  0.084399  0  0.119642  0.150307  0  0.971935  0
H  H23  1  0.61058456  0.82519066  0.59809480  1  0.118641  0  0.119666  0.150421  0  0.971784  0
C  C24  1  0.18119332  0.09060325  0.40940180  1  1.593669  0  0.224963  0.635861  0  4.168377  0
C  C25  1  0.99999755  0.13692625  0.36307258  1  1.608965  0  0.228746  0.629822  0  4.130991  0
C  C26  1  0.99999021  0.90940311  0.40940829  1  1.612977  0  0.224995  0.635849  0  4.168189  0
C  C27  1  0.81880927  0.90939577  0.59060953  1  1.594403  0  0.225144  0.636329  0  4.168162  0
C  C28  1  0.00000286  0.86307059  0.63692859  1  1.609662  0  0.2288  0.630023  0  4.13169  0
C  C29  1  0.99999425  0.09059316  0.59060042  1  1.647836  0  0.224782  0.635637  0  4.168529  0
C  C30  1  0.00000119  0.59058659  0.09060373  1  1.613192  0  0.224908  0.635845  0  4.168227  0
C  C31  1  0.00000352  0.36307346  0.13692849  1  1.609395  0  0.22881  0.629884  0  4.131525  0
C  C32  1  0.81880699  0.40939830  0.09058958  1  1.59343  0  0.224961  0.635854  0  4.168554  0
C  C33  1  0.99999297  0.40939103  0.90941403  1  1.647528  0  0.225037  0.636028  0  4.168296  0
C  C34  1  0.99999783  0.63692795  0.86307100  1  1.60955  0  0.228726  0.629829  0  4.131565  0
C  C35  1  0.18119125  0.59059069  0.90939156  1  1.593837  0  0.225077  0.636123  0  4.168469  0
C  C36  1  0.00000140  0.80516280  0.69483700  1  0.056164  0  -0.015767  -0.12388  0  3.852536  0
C  C37  1  0.00000013  0.69483678  0.80516318  1  0.056259  0  -0.015735  -0.123727  0  3.852465  0
C  C38  1  0.95721288  0.77696334  0.76582231  1  0.122591  0  0.015454  0.074244  0  3.983359  0
C  C39  1  0.04278911  0.72303652  0.73417845  1  0.121951  0  0.015492  0.074231  0  3.983448  0
C  C40  1  0.95721313  0.72303313  0.81975327  1  0.123339  0  0.015573  0.074351  0  3.98337  0
C  C41  1  0.04278843  0.77696629  0.68024780  1  0.123008  0  0.015506  0.074323  0  3.983403  0
C  C42  1  0.99999853  0.19483460  0.30516368  1  0.056939  0  -0.015694  -0.123648  0  3.852175  0
C  C43  1  0.00000254  0.30516511  0.19483697  1  0.056262  0  -0.015672  -0.123611  0  3.852222  0
C  C44  1  0.95721179  0.18025008  0.27695728  1  0.122033  0  0.015356  0.073963  0  3.983586  0
C  C45  1  0.04278908  0.31974892  0.22304330  1  0.121959  0  0.015395  0.074028  0  3.983525  0
C  C46  1  0.95721329  0.23418204  0.22302718  1  0.124222  0  0.015527  0.074356  0  3.983342  0
C  C47  1  0.04278710  0.26581751  0.27697332  1  0.124262  0  0.015508  0.074323  0  3.983349  0
C  C48  1  0.99999785  0.62799788  0.12801910  1  0.039284  0  -0.028868  -0.261855  0  3.898012  0
C  C49  1  0.95789340  0.65806841  0.13623530  1  0.466966  0  0.115696  0.314171  0  4.039592  0
C  C50  1  0.95709253  0.69286495  0.17061451  1  0.076713  0  -0.097571  -0.280939  0  3.939006  0
C  C51  1  0.99999380  0.69949160  0.19951329  1  0.094419  0  0.011601  0.202681  0  4.139336  0
C  C52  1  0.04289714  0.67060095  0.19289581  1  0.074917  0  -0.097497  -0.280643  0  3.939204  0
C  C53  1  0.04210094  0.63622254  0.15809788  1  0.467103  0  0.115559  0.314011  0  4.040075  0
C  C54  1  0.99998922  0.73476404  0.23479051  1  -0.272095  0  -0.031695  -0.089282  0  4.07648  0
C  C55  1  0.99998432  0.76520655  0.26524159  1  -0.056053  0  -0.03152  -0.089061  0  4.07625  0
C  C56  1  0.99997764  0.80047481  0.30052276  1  0.093621  0  0.01152  0.202751  0  4.139149  0
C  C57  1  0.95708663  0.82938059  0.30712510  1  0.076597  0  -0.097564  -0.281107  0  3.939016  0
C  C58  1  0.95788307  0.86375872  0.34192432  1  0.467207  0  0.115716  0.314338  0  4.0396  0
C  C59  1  0.99997625  0.87197017  0.37201425  1  0.042111  0  -0.028927  -0.26206  0  3.898487  0
C  C60  1  0.04206228  0.84187670  0.36382145  1  0.464941  0  0.115578  0.31418  0  4.039618  0
C  C61  1  0.04286247  0.80708000  0.32944126  1  0.087501  0  -0.097474  -0.280658  0  3.939168  0
C  C62  1  0.00000780  0.37197307  0.87200745  1  0.052152  0  -0.028952  -0.262045  0  3.898159  0
C  C63  1  0.04211652  0.40585198  0.79983460  1  0.459197  0  0.115859  0.31457  0  4.039293  0
C  C64  1  0.04291060  0.37227302  0.76423787  1  0.035078  0  -0.097673  -0.280997  0  3.939003  0
C  C65  1  0.00000146  0.30048192  0.80051328  1  0.106212  0  0.011546  0.202528  0  4.139355  0
C  C66  1  0.95710373  0.26420291  0.87230797  1  0.035858  0  -0.097492  -0.280671  0  3.939339  0
C  C67  1  0.95790532  0.29979709  0.90588959  1  0.458147  0  0.115706  0.314158  0  4.039899  0
C  C68  1  0.99999175  0.26520796  0.76523431  1  -0.27305  0  -0.031688  -0.089151  0  4.076647  0
C  C69  1  0.99998743  0.23477232  0.73478329  1  -0.058489  0  -0.031563  -0.089152  0  4.076835  0
C  C70  1  0.99998195  0.19950020  0.69950314  1  0.105727  0  0.011498  0.202582  0  4.139344  0
C  C71  1  0.04286766  0.23578274  0.62770651  1  0.036314  0  -0.097282  -0.280443  0  3.93942  0
C  C72  1  0.04206722  0.20018816  0.59412470  1  0.456693  0  0.115648  0.314037  0  4.039798  0
C  C73  1  0.99997948  0.12800929  0.62800896  1  0.053194  0  -0.02889  -0.261879  0  3.898353  0
C  C74  1  0.95788468  0.09412561  0.70018618  1  0.458798  0  0.115698  0.314183  0  4.039714  0
C  C75  1  0.95708856  0.12770409  0.73578372  1  0.035768  0  -0.097477  -0.280798  0  3.939114  0
C  C76  1  0.74398166  0.37198407  0.12800778  1  0.056111  0  -0.028973  -0.26217  0  3.898268  0
C  C77  1  0.70568840  0.40586741  0.13621593  1  0.459205  0  0.115761  0.314142  0  4.039728  0
C  C78  1  0.63651262  0.37228750  0.17059220  1  0.072423  0  -0.0975  -0.280597  0  3.939312  0
C  C79  1  0.60099623  0.30049168  0.19949613  1  0.12534  0  0.011595  0.202674  0  4.139288  0
C  C80  1  0.63651104  0.26421063  0.19288999  1  -0.006999  0  -0.097515  -0.28081  0  3.939334  0
C  C81  1  0.70568743  0.29980637  0.15809544  1  0.560697  0  0.115686  0.314297  0  4.039756  0
C  C82  1  0.53044772  0.26522017  0.23476413  1  -0.029619  0  -0.031699  -0.089368  0  4.076453  0
C  C83  1  0.46955303  0.23478184  0.26520273  1  -0.347086  0  -0.031523  -0.088975  0  4.07621  0
C  C84  1  0.39900419  0.19951260  0.30046784  1  0.124882  0  0.011513  0.202435  0  4.1396  0
C  C85  1  0.36349082  0.23579197  0.30708883  1  0.133042  0  -0.097334  -0.280248  0  3.939174  0
C  C86  1  0.29431459  0.20019794  0.34188390  1  0.420346  0  0.115518  0.313737  0  4.040104  0
C  C87  1  0.25601848  0.12802148  0.37196163  1  0.056541  0  -0.028915  -0.261802  0  3.898018  0
C  C88  1  0.29431040  0.09414253  0.36372876  1  0.459347  0  0.115591  0.314188  0  4.039551  0
C  C89  1  0.36348603  0.12772073  0.32935279  1  0.070023  0  -0.097535  -0.28083  0  3.938919  0
C  C90  1  0.25601678  0.62799526  0.87197964  1  0.057905  0  -0.028922  -0.262196  0  3.898557  0
C  C91  1  0.29431654  0.63619802  0.90586537  1  0.457904  0  0.115659  0.314142  0  4.040025  0
C  C92  1  0.36349265  0.67057585  0.87228476  1  0.093591  0  -0.09729  -0.28045  0  3.939263  0
C  C93  1  0.39900389  0.69948570  0.80048696  1  0.125109  0  0.011426  0.202497  0  4.13939  0
C  C94  1  0.36348286  0.69287918  0.76420394  1  -0.006803  0  -0.097441  -0.280745  0  3.939424  0
C  C95  1  0.29430676  0.65808235  0.79980003  1  0.560572  0  0.115638  0.314232  0  4.03965  0
C  C96  1  0.46955542  0.73476127  0.76521769  1  -0.348722  0  -0.031655  -0.089176  0  4.076679  0
C  C97  1  0.53044519  0.76520244  0.73479072  1  -0.027953  0  -0.031558  -0.089098  0  4.076496  0
C  C98  1  0.60099740  0.80047817  0.69952035  1  0.125453  0  0.011471  0.202407  0  4.139502  0
C  C99  1  0.63651817  0.80710103  0.73580031  1  0.132915  0  -0.097448  -0.280576  0  3.939335  0
C  C100  1  0.70569510  0.84189973  0.70020239  1  0.4201  0  0.115722  0.314214  0  4.039647  0
C  C101  1  0.74398337  0.87197371  0.62802599  1  0.055665  0  -0.02891  -0.262081  0  3.898237  0
C  C102  1  0.70568462  0.86374808  0.59414526  1  0.459721  0  0.115728  0.314356  0  4.039564  0
C  C103  1  0.63650768  0.82936838  0.62772645  1  0.071443  0  -0.097524  -0.280769  0  3.938969  0
Cl  Cl104  1  0.90262356  0.80549605  0.79187453  1  -0.135346  0  0.0079  -0.030207  0  1.662283  0
Cl  Cl105  1  0.09737950  0.69450540  0.70812570  1  -0.13351  0  0.007925  -0.030187  0  1.662236  0
Cl  Cl106  1  0.90262264  0.69449536  0.90287615  1  -0.12731  0  0.007903  -0.030216  0  1.662253  0
Cl  Cl107  1  0.09737891  0.80550407  0.59712408  1  -0.127488  0  0.007903  -0.030215  0  1.662186  0
Cl  Cl108  1  0.90262294  0.09712783  0.30548462  1  -0.136781  0  0.007943  -0.0301  0  1.662357  0
Cl  Cl109  1  0.09737818  0.40287089  0.19451557  1  -0.136812  0  0.007943  -0.030114  0  1.662365  0
Cl  Cl110  1  0.90262377  0.20813051  0.19448474  1  -0.126067  0  0.007928  -0.030212  0  1.662242  0
Cl  Cl111  1  0.09737575  0.29186817  0.30551720  1  -0.126072  0  0.007901  -0.030235  0  1.662212  0
O  O112  1  0.99999968  0.00000024  0.49999902  1  -1.235126  0  -0.572052  -1.037896  0  2.538429  0
O  O113  1  0.15238319  0.02567924  0.43400219  1  -1.152492  0  -0.312246  -0.541247  0  2.357155  0
O  O114  1  0.03968903  0.15420578  0.38547871  1  -1.16538  0  -0.312586  -0.541798  0  2.449671  0
O  O115  1  0.95965636  0.93399027  0.41362559  1  -1.153087  0  -0.312285  -0.541277  0  2.357002  0
O  O116  1  0.15238355  0.12671101  0.41363776  1  -1.153398  0  -0.312195  -0.541287  0  2.357083  0
O  O117  1  0.04033881  0.91364219  0.43398384  1  -1.152815  0  -0.312142  -0.541193  0  2.356997  0
O  O118  1  0.96030388  0.07483637  0.38547614  1  -1.167979  0  -0.312576  -0.541914  0  2.449717  0
O  O119  1  0.84761396  0.93398642  0.52568555  1  -1.152729  0  -0.312258  -0.541516  0  2.357244  0
O  O120  1  0.96031861  0.88547580  0.65421097  1  -1.165823  0  -0.312631  -0.541983  0  2.45032  0
O  O121  1  0.84762508  0.91362350  0.62671993  1  -1.15327  0  -0.312391  -0.541455  0  2.357082  0
O  O122  1  0.03968905  0.88547602  0.57483689  1  -1.167929  0  -0.312569  -0.541921  0  2.449781  0
O  O123  1  0.04033649  0.12670407  0.52567990  1  -1.169482  0  -0.31214  -0.541169  0  2.357202  0
O  O124  1  0.95966859  0.02567007  0.62671306  1  -1.169797  0  -0.312144  -0.541166  0  2.357143  0
O  O125  1  0.00000160  0.49999936  0.00000118  1  -1.23512  0  -0.572067  -1.037864  0  2.538412  0
O  O126  1  0.95966515  0.58636320  0.06601233  1  -1.15297  0  -0.312127  -0.541238  0  2.357038  0
O  O127  1  0.03969356  0.42516283  0.11452748  1  -1.167981  0  -0.312582  -0.541868  0  2.449718  0
O  O128  1  0.84761660  0.37328882  0.08636103  1  -1.152947  0  -0.312206  -0.541243  0  2.357045  0
O  O129  1  0.04033743  0.56600234  0.08638373  1  -1.153101  0  -0.312273  -0.541349  0  2.357064  0
O  O130  1  0.84761816  0.47431920  0.06600263  1  -1.152413  0  -0.312234  -0.541249  0  2.357356  0
O  O131  1  0.96031412  0.34579342  0.11452068  1  -1.165758  0  -0.312664  -0.541928  0  2.450083  0
O  O132  1  0.95965518  0.37328266  0.97433387  1  -1.169754  0  -0.312297  -0.541356  0  2.357046  0
O  O133  1  0.03967988  0.61452056  0.84578931  1  -1.165723  0  -0.312624  -0.541905  0  2.450072  0
O  O134  1  0.04031881  0.47431499  0.87329932  1  -1.169253  0  -0.312209  -0.541321  0  2.357209  0
O  O135  1  0.96031251  0.61452340  0.92516292  1  -1.167928  0  -0.31257  -0.54192  0  2.449834  0
O  O136  1  0.15238708  0.56601456  0.97431172  1  -1.152628  0  -0.312111  -0.541235  0  2.357494  0
O  O137  1  0.15237551  0.58636666  0.87327967  1  -1.153264  0  -0.312466  -0.541524  0  2.356968  0
F  F138  1  0.91525043  0.65393595  0.10996501  1  -0.619647  0  -0.089849  -0.122688  0  1.35458  0
F  F139  1  0.08474399  0.60995949  0.15397421  1  -0.619381  0  -0.089822  -0.122691  0  1.354659  0
F  F140  1  0.91524844  0.89003280  0.34603606  1  -0.619705  0  -0.089778  -0.122684  0  1.354621  0
F  F141  1  0.08468446  0.84598316  0.39011708  1  -0.619742  0  -0.089947  -0.122813  0  1.35442  0
F  F142  1  0.08476978  0.47475512  0.76132474  1  -0.617942  0  -0.089985  -0.122958  0  1.354517  0
F  F143  1  0.91526909  0.26128477  0.97479804  1  -0.618263  0  -0.089861  -0.122701  0  1.354697  0
F  F144  1  0.08469050  0.23870414  0.52521371  1  -0.618092  0  -0.090084  -0.122848  0  1.354399  0
F  F145  1  0.91524857  0.02521679  0.73869980  1  -0.618078  0  -0.089859  -0.122723  0  1.354552  0
F  F146  1  0.73608378  0.47477597  0.10993727  1  -0.619901  0  -0.090042  -0.12281  0  1.354562  0
F  F147  1  0.73608072  0.26128974  0.15398630  1  -0.620656  0  -0.089897  -0.122764  0  1.354633  0
F  F148  1  0.26392142  0.23871158  0.34600462  1  -0.620598  0  -0.089836  -0.122651  0  1.35476  0
F  F149  1  0.26391456  0.02523925  0.38998001  1  -0.619774  0  -0.089897  -0.122876  0  1.354839  0
F  F150  1  0.26392669  0.60991202  0.97477736  1  -0.619798  0  -0.090063  -0.122872  0  1.354497  0
F  F151  1  0.26390716  0.65396787  0.76128238  1  -0.620857  0  -0.089812  -0.12266  0  1.354412  0
F  F152  1  0.73609529  0.84602675  0.73871656  1  -0.620522  0  -0.089914  -0.122738  0  1.354525  0
F  F153  1  0.73607206  0.89000572  0.52523981  1  -0.619783  0  -0.089928  -0.122828  0  1.354569  0
