# generated using pymatgen
data_CoH9C16N2O4F3
_symmetry_space_group_name_H-M   'P 1'
_cell_length_a   9.69649928
_cell_length_b   11.13414634
_cell_length_c   17.93961842
_cell_angle_alpha   90.00125135
_cell_angle_beta   90.00110201
_cell_angle_gamma   102.07550382
_symmetry_Int_Tables_number   1
_chemical_formula_structural   CoH9C16N2O4F3
_chemical_formula_sum   'Co4 H36 C64 N8 O16 F12'
_cell_volume   1893.94536781
_cell_formula_units_Z   4
loop_
 _symmetry_equiv_pos_site_id
 _symmetry_equiv_pos_as_xyz
  1  'x, y, z'
loop_
 _atom_site_type_symbol
 _atom_site_label
 _atom_site_symmetry_multiplicity
 _atom_site_fract_x
 _atom_site_fract_y
 _atom_site_fract_z
 _atom_site_occupancy
 _atom_site_pbe_bader_charge
 _atom_site_pbe_bader_spin_density
 _atom_site_pbe_cm5_charge
 _atom_site_pbe_ddec_charge
 _atom_site_pbe_ddec_spin_density
 _atom_site_pbe_ddec_sum_bond_order
 _atom_site_pbe_magmom
Co  Co0  1  0.00000202  0.00000095  0.99999897  1  1.339349  2.596  0.682451  0.941959  2.829746  2.505177  2.582
Co  Co1  1  0.99999864  0.49999649  0.49999916  1  1.339793  2.595911  0.68261  0.94258  2.829635  2.505268  2.582
Co  Co2  1  0.50000219  0.50000268  0.50000046  1  1.345557  2.619476  0.692998  0.950713  2.853232  2.487426  2.605
Co  Co3  1  0.50000096  0.00000024  0.99999934  1  1.345624  2.619496  0.692962  0.95034  2.853249  2.488105  2.605
H  H4  1  0.13793268  0.95912301  0.84818748  1  0.124377  0.001771  0.122259  0.117703  0.00043  1.017665  0.001
H  H5  1  0.72863820  0.84848977  0.93062578  1  0.214467  0.001559  0.124121  0.13013  0.000278  1.059071  0.001
H  H6  1  0.68095033  0.70293866  0.68606583  1  0.10342  0.000303  0.100545  0.097743  0.000198  1.041256  0.0
H  H7  1  0.98074228  0.71970062  0.62380809  1  0.114651  0.001055  0.105601  0.135822  0.000326  1.030505  0.001
H  H8  1  0.47319121  0.45365796  0.33395244  1  0.122643  0.001378  0.113205  0.086656  0.000359  1.052108  0.001
H  H9  1  0.66753156  0.75415723  0.45901390  1  0.14826  0.001754  0.12848  0.125988  0.000426  0.981066  0.001
H  H10  1  0.54491042  0.73013203  0.12915101  1  0.102201  0.000661  0.109297  0.131164  0.000226  0.985236  0.0
H  H11  1  0.55810077  0.55884765  0.21432731  1  0.100184  0.001035  0.111403  0.122943  0.000466  0.987029  0.0
H  H12  1  0.82261710  0.85496617  0.20618838  1  0.107446  -0.000134  0.103758  0.101146  -0.000152  1.021382  0.0
H  H13  1  0.86204012  0.54089079  0.34813707  1  0.125034  0.001775  0.122204  0.117575  0.000432  1.017499  0.001
H  H14  1  0.27136180  0.65154190  0.43059471  1  0.215283  0.001559  0.124088  0.130109  0.000279  1.058834  0.001
H  H15  1  0.31905864  0.79712351  0.18602720  1  0.10323  0.000303  0.100448  0.097606  0.000199  1.041579  0.0
H  H16  1  0.01928389  0.78033349  0.12376667  1  0.115048  0.001055  0.105581  0.135899  0.000325  1.030844  0.001
H  H17  1  0.52682247  0.04635953  0.83397731  1  0.122561  0.001378  0.113088  0.086558  0.000359  1.052006  0.001
H  H18  1  0.33247012  0.74584613  0.95903332  1  0.148158  0.001758  0.128478  0.126006  0.000428  0.981042  0.001
H  H19  1  0.45514363  0.76984726  0.62916479  1  0.101694  0.000662  0.109397  0.131312  0.000228  0.985543  0.0
H  H20  1  0.44190719  0.94115669  0.71433827  1  0.099933  0.001036  0.11148  0.122958  0.000466  0.987002  0.0
H  H21  1  0.17742389  0.64503159  0.70616191  1  0.107905  -0.000134  0.103711  0.101098  -0.000152  1.02159  0.0
H  H22  1  0.86206999  0.04087592  0.15180899  1  0.124523  0.001772  0.122298  0.11779  0.00043  1.017571  0.001
H  H23  1  0.27136945  0.15150075  0.06937682  1  0.214296  0.001558  0.124065  0.130011  0.000278  1.059194  0.001
H  H24  1  0.31904741  0.29706500  0.31393622  1  0.103543  0.000303  0.100581  0.097813  0.000198  1.04127  0.0
H  H25  1  0.01925990  0.28029648  0.37619507  1  0.11466  0.001055  0.105574  0.135796  0.000325  1.030526  0.001
H  H26  1  0.52682006  0.54635003  0.66605072  1  0.122474  0.001378  0.113147  0.086657  0.000359  1.052023  0.001
H  H27  1  0.33247790  0.24585172  0.54098815  1  0.148372  0.001753  0.128521  0.126035  0.000426  0.981074  0.001
H  H28  1  0.45509626  0.26987421  0.87085494  1  0.102266  0.000661  0.10933  0.131219  0.000226  0.985284  0.0
H  H29  1  0.44190737  0.44116409  0.78567752  1  0.100041  0.001035  0.111356  0.122849  0.000466  0.986941  0.0
H  H30  1  0.17739314  0.14504184  0.79381701  1  0.107642  -0.000134  0.103717  0.101075  -0.000152  1.021436  0.0
H  H31  1  0.13794442  0.45910206  0.65186608  1  0.125207  0.001774  0.122198  0.117641  0.000432  1.01759  0.001
H  H32  1  0.72863168  0.34845353  0.56940399  1  0.215196  0.001559  0.124064  0.130044  0.000279  1.058838  0.001
H  H33  1  0.68092673  0.20286471  0.81397318  1  0.103032  0.000303  0.100555  0.097739  0.000199  1.041408  0.0
H  H34  1  0.98070994  0.21967486  0.87623370  1  0.115172  0.001054  0.105557  0.135798  0.000325  1.030957  0.001
H  H35  1  0.47318743  0.95363556  0.16601526  1  0.122198  0.001378  0.113053  0.086546  0.000359  1.051973  0.001
H  H36  1  0.66752346  0.25416130  0.04096593  1  0.148036  0.001757  0.128473  0.125975  0.000427  0.981065  0.001
H  H37  1  0.54485962  0.23014612  0.37083279  1  0.101775  0.000663  0.109396  0.131284  0.000228  0.98564  0.0
H  H38  1  0.55809812  0.05883664  0.28565820  1  0.099999  0.001036  0.111422  0.122847  0.000466  0.987043  0.0
H  H39  1  0.82256979  0.35496846  0.29383735  1  0.107931  -0.000134  0.103695  0.101107  -0.000152  1.021569  0.0
C  C40  1  0.02950150  0.91137143  0.83893612  1  0.527577  -0.008131  0.02701  -0.061426  -0.008991  3.982089  -0.005
C  C41  1  0.80359823  0.84742113  0.88536767  1  0.520314  -0.008672  0.025081  -0.065371  -0.009899  3.955648  -0.005
C  C42  1  0.76183402  0.78697348  0.81919284  1  0.395725  0.003616  0.106037  0.219886  0.001626  4.023356  0.003
C  C43  1  0.85068833  0.78944967  0.75702310  1  0.107374  -0.012883  -0.014478  -0.079208  -0.013937  4.065037  -0.008
C  C44  1  0.98804764  0.85674741  0.77078376  1  0.447203  0.004398  0.107762  0.217035  0.002201  4.022658  0.004
C  C45  1  0.79571792  0.72942465  0.68833923  1  -0.030196  0.000256  -0.086571  -0.061757  -0.001204  4.003414  0.001
C  C46  1  0.78767473  0.63717304  0.56320546  1  1.477192  0.001702  0.210166  0.62122  0.000195  4.162145  0.003
C  C47  1  0.86619222  0.70100662  0.62815807  1  -0.013778  -0.004864  -0.088081  -0.21341  -0.007033  3.854932  -0.001
C  C48  1  0.69499589  0.77620188  0.33988958  1  0.513954  0.005552  0.101491  0.194084  0.002727  4.028476  0.005
C  C49  1  0.53614482  0.54661292  0.33339653  1  0.50975  -0.006759  0.031824  0.060664  -0.007318  3.984144  -0.004
C  C50  1  0.64470532  0.71298284  0.40417342  1  0.522823  -0.008669  0.040608  -0.02085  -0.009784  3.957534  -0.006
C  C51  1  0.65242127  0.78348778  0.13550491  1  -0.015337  -0.000648  -0.086914  -0.216731  -0.003034  3.881052  0.001
C  C52  1  0.58217843  0.60634366  0.26736902  1  -0.054268  0.005828  -0.082253  -0.156627  0.002862  3.959381  0.004
C  C53  1  0.66471332  0.72622447  0.26861889  1  -0.011784  -0.01091  -0.006406  0.027868  -0.011792  4.059945  -0.007
C  C54  1  0.71489865  0.85268625  0.06839112  1  1.539393  0.003471  0.214693  0.630446  0.001727  4.154839  0.006
C  C55  1  0.71973527  0.79281933  0.20152902  1  -0.103607  0.003075  -0.080734  -0.075329  0.001157  4.005657  0.002
C  C56  1  0.97049759  0.58865711  0.33888972  1  0.529365  -0.008086  0.026955  -0.061585  -0.008946  3.981592  -0.005
C  C57  1  0.19636215  0.65259551  0.38533305  1  0.520974  -0.008639  0.025316  -0.065255  -0.009866  3.955553  -0.005
C  C58  1  0.23815078  0.71305817  0.31915278  1  0.396346  0.003628  0.105982  0.219691  0.001635  4.023738  0.003
C  C59  1  0.14930836  0.71058820  0.25698487  1  0.107307  -0.012814  -0.014681  -0.079249  -0.013864  4.065529  -0.008
C  C60  1  0.01195193  0.64327624  0.27072368  1  0.446433  0.004406  0.107557  0.216688  0.002207  4.022285  0.004
C  C61  1  0.20431415  0.77062328  0.18830016  1  -0.030022  0.000294  -0.086377  -0.061262  -0.001168  4.003541  0.001
C  C62  1  0.21233837  0.86281987  0.06314989  1  1.478521  0.001759  0.210103  0.621193  0.000254  4.163696  0.003
C  C63  1  0.13380190  0.79900342  0.12813092  1  -0.015503  -0.004781  -0.088282  -0.213917  -0.006947  3.855044  -0.001
C  C64  1  0.30501536  0.72380245  0.83989839  1  0.513427  0.005548  0.101435  0.194002  0.002725  4.028218  0.005
C  C65  1  0.46386168  0.95339768  0.83341736  1  0.509484  -0.006766  0.031685  0.060604  -0.007325  3.983442  -0.004
C  C66  1  0.35529863  0.78702449  0.90418362  1  0.523025  -0.00867  0.040528  -0.020915  -0.009786  3.957666  -0.006
C  C67  1  0.34761325  0.71653744  0.63550570  1  -0.015015  -0.000645  -0.087013  -0.216815  -0.003029  3.882269  0.001
C  C68  1  0.41783334  0.89365651  0.76738633  1  -0.053393  0.005823  -0.082234  -0.156559  0.002859  3.959446  0.004
C  C69  1  0.33532083  0.77377436  0.76863316  1  -0.010509  -0.010913  -0.006261  0.028108  -0.011797  4.059579  -0.007
C  C70  1  0.28516493  0.64734831  0.56839478  1  1.538431  0.003467  0.214769  0.630297  0.001722  4.154169  0.005
C  C71  1  0.28029184  0.70718498  0.70152174  1  -0.104858  0.003054  -0.080679  -0.075473  0.001143  4.005756  0.002
C  C72  1  0.97050849  0.08863566  0.16106425  1  0.526318  -0.00813  0.027069  -0.06138  -0.00899  3.982173  -0.005
C  C73  1  0.19641044  0.15256937  0.11463604  1  0.520003  -0.00867  0.025222  -0.065122  -0.009897  3.955649  -0.005
C  C74  1  0.23817665  0.21302067  0.18080865  1  0.396253  0.003617  0.105817  0.219552  0.001627  4.023792  0.003
C  C75  1  0.14930950  0.21054659  0.24297393  1  0.106997  -0.012881  -0.014392  -0.079084  -0.013934  4.064895  -0.008
C  C76  1  0.01195679  0.14325425  0.22921327  1  0.447028  0.004399  0.107733  0.216903  0.002201  4.022876  0.004
C  C77  1  0.20428924  0.27058342  0.31166003  1  -0.029978  0.000262  -0.086634  -0.061928  -0.001199  4.003296  0.001
C  C78  1  0.21232691  0.36282592  0.43679547  1  1.477206  0.001709  0.210193  0.62126  0.0002  4.162375  0.003
C  C79  1  0.13380761  0.29899329  0.37184062  1  -0.01376  -0.004857  -0.088067  -0.213312  -0.007026  3.854837  -0.001
C  C80  1  0.30500917  0.22380993  0.66011358  1  0.513728  0.00555  0.101522  0.194103  0.002726  4.028297  0.005
C  C81  1  0.46386361  0.45339605  0.66660997  1  0.50988  -0.00676  0.031809  0.060477  -0.00732  3.984285  -0.004
C  C82  1  0.35529700  0.28702256  0.59582695  1  0.522704  -0.008671  0.040465  -0.020997  -0.009785  3.957291  -0.006
C  C83  1  0.34759131  0.21651741  0.86449993  1  -0.015324  -0.000648  -0.087028  -0.216867  -0.003034  3.881026  0.001
C  C84  1  0.41782649  0.39365984  0.73263247  1  -0.054162  0.005827  -0.082171  -0.156403  0.002862  3.959752  0.004
C  C85  1  0.33529375  0.27379099  0.73138259  1  -0.010932  -0.01091  -0.006401  0.027876  -0.011792  4.060141  -0.007
C  C86  1  0.28510631  0.14731356  0.93161093  1  1.539256  0.00347  0.214733  0.630442  0.001726  4.154915  0.006
C  C87  1  0.28026701  0.20718977  0.79847470  1  -0.104831  0.003075  -0.080643  -0.075213  0.001157  4.005292  0.002
C  C88  1  0.02949536  0.41134018  0.66111121  1  0.529142  -0.008086  0.026935  -0.061716  -0.008946  3.981627  -0.005
C  C89  1  0.80362966  0.34738980  0.61466732  1  0.521458  -0.008637  0.025437  -0.064825  -0.009864  3.955573  -0.005
C  C90  1  0.76184231  0.28692804  0.68084425  1  0.396232  0.003629  0.105678  0.219152  0.001635  4.024069  0.003
C  C91  1  0.85067085  0.28940014  0.74301438  1  0.106183  -0.012814  -0.014544  -0.078984  -0.013863  4.065134  -0.008
C  C92  1  0.98803363  0.35671659  0.72927892  1  0.447083  0.004406  0.107569  0.216682  0.002208  4.02212  0.004
C  C93  1  0.79567322  0.22936858  0.81169966  1  -0.029379  0.000298  -0.086604  -0.061521  -0.001165  4.003485  0.001
C  C94  1  0.78766048  0.13717637  0.93684881  1  1.478806  0.001759  0.210139  0.621265  0.000255  4.163733  0.003
C  C95  1  0.86619417  0.20099012  0.87186666  1  -0.01579  -0.004783  -0.088197  -0.213774  -0.006949  3.855085  -0.001
C  C96  1  0.69497979  0.27620311  0.16010031  1  0.513888  0.00555  0.101482  0.194083  0.002726  4.027895  0.005
C  C97  1  0.53614152  0.04659940  0.16657967  1  0.509268  -0.006766  0.031731  0.060701  -0.007324  3.98325  -0.004
C  C98  1  0.64470243  0.21298002  0.09581007  1  0.522741  -0.008672  0.04061  -0.020764  -0.009787  3.957331  -0.006
C  C99  1  0.65238384  0.28345607  0.36449467  1  -0.014971  -0.000644  -0.087016  -0.216765  -0.003028  3.882102  0.001
C  C100  1  0.58216625  0.10634249  0.23260959  1  -0.053343  0.005823  -0.082124  -0.15643  0.00286  3.959323  0.004
C  C101  1  0.66467466  0.22622472  0.23136498  1  -0.010517  -0.010911  -0.006385  0.028055  -0.011795  4.059714  -0.007
C  C102  1  0.71483647  0.35264972  0.43160559  1  1.538437  0.003468  0.214805  0.630351  0.001722  4.154201  0.005
C  C103  1  0.71970697  0.29281496  0.29847584  1  -0.105049  0.003056  -0.080696  -0.075583  0.001144  4.005719  0.002
N  N104  1  0.93747441  0.90866334  0.89548605  1  -1.175343  0.043191  -0.305853  -0.179072  0.022421  3.571543  0.042
N  N105  1  0.56616520  0.59838322  0.40110194  1  -1.201762  0.049139  -0.320289  -0.221651  0.025837  3.592131  0.046
N  N106  1  0.06249837  0.59138303  0.39543973  1  -1.176976  0.043235  -0.305737  -0.178728  0.022442  3.571802  0.042
N  N107  1  0.43385638  0.90161715  0.90112231  1  -1.202187  0.049133  -0.320066  -0.221456  0.025833  3.591856  0.046
N  N108  1  0.06253314  0.09133457  0.10451264  1  -1.174126  0.043192  -0.305904  -0.179133  0.022421  3.571529  0.042
N  N109  1  0.43384445  0.40163034  0.59890122  1  -1.201372  0.049143  -0.320182  -0.221505  0.02584  3.591741  0.046
N  N110  1  0.93749413  0.40860873  0.60456008  1  -1.177198  0.043237  -0.305767  -0.178924  0.022442  3.571876  0.042
N  N111  1  0.56614804  0.09838452  0.09887583  1  -1.201689  0.049142  -0.320102  -0.22163  0.025838  3.592045  0.046
O  O112  1  0.65324965  0.61915865  0.56312549  1  -1.108528  0.084955  -0.306797  -0.564892  0.044701  2.362196  0.074
O  O113  1  0.85987010  0.60661419  0.50945978  1  -1.142132  0.083142  -0.31661  -0.560832  0.042322  2.396459  0.069
O  O114  1  0.84860539  0.87582778  0.06204903  1  -1.133954  0.073859  -0.299651  -0.54903  0.038984  2.332757  0.064
O  O115  1  0.62865755  0.88097126  0.02085418  1  -1.160988  0.07747  -0.313003  -0.563747  0.039696  2.408184  0.063
O  O116  1  0.34673322  0.88083303  0.06312786  1  -1.10914  0.084993  -0.306746  -0.564732  0.044718  2.362899  0.074
O  O117  1  0.14020055  0.89331512  0.00939942  1  -1.142131  0.083012  -0.316335  -0.560543  0.042251  2.397276  0.069
O  O118  1  0.15142897  0.62416372  0.56207049  1  -1.132567  0.073845  -0.299742  -0.548986  0.03899  2.331749  0.064
O  O119  1  0.37138098  0.61906448  0.52083661  1  -1.160894  0.077452  -0.313176  -0.563867  0.039684  2.407657  0.063
O  O120  1  0.34674940  0.38084220  0.43687656  1  -1.108531  0.084941  -0.306763  -0.564857  0.044694  2.362238  0.074
O  O121  1  0.14012704  0.39337563  0.49053836  1  -1.142079  0.083137  -0.316626  -0.560856  0.042317  2.396646  0.069
O  O122  1  0.15139880  0.12417297  0.93795023  1  -1.133786  0.073855  -0.299663  -0.549032  0.038986  2.332877  0.064
O  O123  1  0.37134360  0.11902586  0.97914842  1  -1.160997  0.077474  -0.312999  -0.563665  0.039698  2.408146  0.063
O  O124  1  0.65326833  0.11917331  0.93687140  1  -1.109119  0.084988  -0.306783  -0.564801  0.044715  2.362953  0.074
O  O125  1  0.85980261  0.10668565  0.99059817  1  -1.142154  0.083009  -0.316326  -0.560524  0.04225  2.397269  0.069
O  O126  1  0.84856832  0.37583441  0.43792820  1  -1.132596  0.073845  -0.299799  -0.549074  0.038988  2.33189  0.064
O  O127  1  0.62862042  0.38093356  0.47916042  1  -1.160857  0.077443  -0.31314  -0.563815  0.03968  2.407707  0.063
F  F128  1  0.62703455  0.72079246  0.81414866  1  -0.636344  0.001429  -0.088641  -0.12937  0.000727  1.385377  0.001
F  F129  1  0.77414435  0.89202799  0.34673485  1  -0.628112  0.001625  -0.099441  -0.138012  0.00081  1.351081  0.001
F  F130  1  0.08404025  0.87072313  0.71472947  1  -0.625869  0.001608  -0.075416  -0.109689  0.000834  1.423432  0.001
F  F131  1  0.37294201  0.77924375  0.31410421  1  -0.636379  0.001429  -0.088406  -0.129119  0.000726  1.385535  0.001
F  F132  1  0.22584585  0.60796230  0.84673011  1  -0.628026  0.001625  -0.099516  -0.138078  0.00081  1.350592  0.001
F  F133  1  0.91596949  0.62932275  0.21466745  1  -0.626831  0.00161  -0.075262  -0.109468  0.000835  1.42378  0.001
F  F134  1  0.37296480  0.27920562  0.18585283  1  -0.636415  0.001429  -0.088532  -0.1292  0.000727  1.385639  0.001
F  F135  1  0.22585968  0.10798384  0.65326664  1  -0.627928  0.001625  -0.099482  -0.138063  0.00081  1.350785  0.001
F  F136  1  0.91596393  0.12927762  0.28526811  1  -0.625772  0.001608  -0.075467  -0.109676  0.000835  1.423219  0.001
F  F137  1  0.62704238  0.22074079  0.68589337  1  -0.636248  0.00143  -0.08833  -0.12901  0.000726  1.385539  0.001
F  F138  1  0.77414670  0.39204516  0.15327137  1  -0.628098  0.001626  -0.099539  -0.138146  0.000811  1.350639  0.001
F  F139  1  0.08400977  0.37068129  0.78533125  1  -0.626982  0.00161  -0.075164  -0.109338  0.000834  1.423961  0.001
