# generated using pymatgen
data_AlH12C24NO12
_symmetry_space_group_name_H-M   'P 1'
_cell_length_a   4.08610558
_cell_length_b   13.45999027
_cell_length_c   13.46003708
_cell_angle_alpha   119.99951881
_cell_angle_beta   90.00058130
_cell_angle_gamma   90.00038786
_symmetry_Int_Tables_number   1
_chemical_formula_structural   AlH12C24NO12
_chemical_formula_sum   'Al1 H12 C24 N1 O12'
_cell_volume   641.11113994
_cell_formula_units_Z   1
loop_
 _symmetry_equiv_pos_site_id
 _symmetry_equiv_pos_as_xyz
  1  'x, y, z'
loop_
 _atom_site_type_symbol
 _atom_site_label
 _atom_site_symmetry_multiplicity
 _atom_site_fract_x
 _atom_site_fract_y
 _atom_site_fract_z
 _atom_site_occupancy
 _atom_site_pbe_bader_charge
 _atom_site_pbe_bader_spin_density
 _atom_site_pbe_cm5_charge
 _atom_site_pbe_ddec_charge
 _atom_site_pbe_ddec_spin_density
 _atom_site_pbe_ddec_sum_bond_order
 _atom_site_pbe_magmom
Al  Al0  1  0.05711452  0.49999555  0.49998755  1  2.508858  0  0.438388  1.607851  0  2.551049  0
H  H1  1  0.25353672  0.80193313  0.77270011  1  0.106557  0  0.122258  0.137884  0  0.954727  0
H  H2  1  0.18481141  0.00932115  0.88628302  1  0.096652  0  0.115931  0.129322  0  0.997527  0
H  H3  1  0.72469092  0.04489553  0.62960583  1  0.107965  0  0.109776  0.113198  0  1.053982  0
H  H4  1  0.72470886  0.08470003  0.95509746  1  0.12771  0  0.109765  0.113108  0  1.05401  0
H  H5  1  0.25357267  0.47075461  0.19804004  1  0.119866  0  0.122295  0.137791  0  0.954983  0
H  H6  1  0.18483925  0.37694262  0.99064815  1  0.100035  0  0.115955  0.129314  0  0.997619  0
H  H7  1  0.72474569  0.37037597  0.91528094  1  0.115337  0  0.109726  0.113106  0  1.053908  0
H  H8  1  0.25351654  0.22729809  0.52924420  1  0.125507  0  0.122293  0.137832  0  0.954911  0
H  H9  1  0.18477896  0.11371090  0.62304444  1  0.141633  0  0.115957  0.129377  0  0.997651  0
H  H10  1  0.04734179  0.70302020  0.47376158  1  0.624116  0  0.306871  0.342226  0  0.991855  0
H  H11  1  0.04732918  0.27073878  0.29697287  1  0.625871  0  0.306819  0.342107  0  0.992044  0
H  H12  1  0.04732190  0.52622806  0.72926033  1  0.624502  0  0.306815  0.342045  0  0.992148  0
C  C13  1  0.55705843  0.39692619  0.32307696  1  1.588788  0  0.288344  0.676228  0  4.039986  0
C  C14  1  0.55705838  0.42615642  0.60306765  1  1.525976  0  0.28827  0.676258  0  4.040454  0
C  C15  1  0.55705583  0.67690880  0.57382852  1  1.52266  0  0.288351  0.676369  0  4.040256  0
C  C16  1  0.35999271  0.85549233  0.74144619  1  0.0343  0  -0.074418  -0.072719  0  3.939725  0
C  C17  1  0.31835640  0.97365824  0.80569775  1  -0.042753  0  -0.07754  -0.142726  0  3.937943  0
C  C18  1  0.45397573  0.04528532  0.76808521  1  0.283571  0  0.097041  0.183903  0  4.010806  0
C  C19  1  0.62269792  0.99386193  0.66405294  1  -0.016997  0  -0.085793  -0.187159  0  3.979938  0
C  C20  1  0.66020065  0.87521745  0.59677922  1  0.005454  0  -0.014376  -0.062036  0  3.997666  0
C  C21  1  0.53160129  0.80476216  0.63692910  1  0.011683  0  -0.01931  -0.097013  0  3.9871  0
C  C22  1  0.62272454  0.17017587  0.00612069  1  -0.063443  0  -0.085825  -0.186976  0  3.979345  0
C  C23  1  0.66021995  0.22155201  0.12477134  1  0.017286  0  -0.014418  -0.062142  0  3.997318  0
C  C24  1  0.53162066  0.33215753  0.19522025  1  -0.061614  0  -0.019305  -0.096728  0  3.986506  0
C  C25  1  0.36001695  0.38594183  0.14448592  1  -0.056318  0  -0.074423  -0.072678  0  3.939668  0
C  C26  1  0.31838800  0.33202704  0.02631892  1  0.067323  0  -0.077566  -0.142728  0  3.937824  0
C  C27  1  0.45399787  0.22279089  0.95469843  1  0.316995  0  0.097087  0.183769  0  4.010645  0
C  C28  1  0.62272502  0.33593590  0.82980931  1  -0.032166  0  -0.085696  -0.186905  0  3.979539  0
C  C29  1  0.66021052  0.40321375  0.77844279  1  -0.015904  0  -0.014414  -0.062147  0  3.997403  0
C  C30  1  0.53160906  0.36306562  0.66783394  1  0.002738  0  -0.019306  -0.096887  0  3.986792  0
C  C31  1  0.35999373  0.25854893  0.61405220  1  0.021044  0  -0.074501  -0.072686  0  3.939971  0
C  C32  1  0.31835032  0.19429413  0.66795877  1  -0.106381  0  -0.077545  -0.142857  0  3.938321  0
C  C33  1  0.45399511  0.23190104  0.77719656  1  0.324572  0  0.097031  0.183759  0  4.010717  0
C  C34  1  0.81757314  0.83621909  0.48160164  1  1.521076  0  0.228493  0.567812  0  4.115485  0
C  C35  1  0.81758227  0.14537641  0.16378125  1  1.538578  0  0.228554  0.567862  0  4.115496  0
C  C36  1  0.81760986  0.51839116  0.85461839  1  1.562611  0  0.228525  0.567778  0  4.115422  0
N  N37  1  0.42458341  0.16665930  0.83332637  1  -1.192034  0  -0.245255  -0.142453  0  3.60263  0
O  O38  1  0.79815811  0.63155689  0.59582950  1  -1.250494  0  -0.225729  -0.586994  0  2.387893  0
O  O39  1  0.79813788  0.46429212  0.36843059  1  -1.251504  0  -0.225739  -0.586982  0  2.387789  0
O  O40  1  0.79813746  0.40415012  0.53571504  1  -1.253879  0  -0.225676  -0.586915  0  2.388033  0
O  O41  1  0.32480847  0.61924838  0.50430458  1  -1.267176  0  -0.229125  -0.603151  0  2.415336  0
O  O42  1  0.32480642  0.49567047  0.61492190  1  -1.25797  0  -0.229068  -0.603076  0  2.415307  0
O  O43  1  0.32480874  0.38507282  0.38073978  1  -1.262839  0  -0.229109  -0.603141  0  2.415373  0
O  O44  1  0.95098901  0.72994961  0.42395771  1  -1.13019  0  -0.34527  -0.473349  0  2.26015  0
O  O45  1  0.81353752  0.89769183  0.43929699  1  -1.064032  0  -0.261534  -0.413992  0  2.040259  0
O  O46  1  0.95098540  0.19400805  0.27005522  1  -1.146903  0  -0.345249  -0.473271  0  2.260312  0
O  O47  1  0.81356651  0.04159792  0.10231429  1  -1.065435  0  -0.261544  -0.414033  0  2.040199  0
O  O48  1  0.95105219  0.57603847  0.80599882  1  -1.137463  0  -0.345236  -0.47315  0  2.260462  0
O  O49  1  0.81359351  0.56069963  0.95839614  1  -1.093769  0  -0.261575  -0.414002  0  2.040235  0
