# generated using pymatgen
data_Zn4H20C44O29
_symmetry_space_group_name_H-M   'P 1'
_cell_length_a   23.69815774
_cell_length_b   23.69956424
_cell_length_c   23.69855062
_cell_angle_alpha   65.83573323
_cell_angle_beta   72.82901338
_cell_angle_gamma   107.18015395
_symmetry_Int_Tables_number   1
_chemical_formula_structural   Zn4H20C44O29
_chemical_formula_sum   'Zn8 H40 C88 O58'
_cell_volume   10194.34101742
_cell_formula_units_Z   2
loop_
 _symmetry_equiv_pos_site_id
 _symmetry_equiv_pos_as_xyz
  1  'x, y, z'
loop_
 _atom_site_type_symbol
 _atom_site_label
 _atom_site_symmetry_multiplicity
 _atom_site_fract_x
 _atom_site_fract_y
 _atom_site_fract_z
 _atom_site_occupancy
 _atom_site_pbe_bader_charge
 _atom_site_pbe_bader_spin_density
 _atom_site_pbe_cm5_charge
 _atom_site_pbe_ddec_charge
 _atom_site_pbe_ddec_spin_density
 _atom_site_pbe_ddec_sum_bond_order
 _atom_site_pbe_magmom
Zn  Zn0  1  0.05971939  0.95935712  0.48394177  1  1.320057  0  0.680173  0.970412  0  2.353313  0
Zn  Zn1  1  0.05971402  0.10035437  0.45636031  1  1.317752  0  0.680211  0.970532  0  2.352974  0
Zn  Zn2  1  0.94026621  0.98393381  0.45937020  1  1.320221  0  0.680246  0.970555  0  2.353191  0
Zn  Zn3  1  0.94029048  0.95634750  0.60036127  1  1.318163  0  0.680216  0.97038  0  2.353018  0
Zn  Zn4  1  0.94328979  0.54364688  0.01605937  1  1.319635  0  0.680183  0.970466  0  2.353337  0
Zn  Zn5  1  0.05670873  0.51606085  0.04366503  1  1.319552  0  0.68026  0.970545  0  2.353318  0
Zn  Zn6  1  0.94330343  0.39963532  0.04064182  1  1.319661  0  0.680325  0.970497  0  2.352981  0
Zn  Zn7  1  0.05669265  0.54063318  0.89964759  1  1.319629  0  0.680293  0.970585  0  2.353205  0
H  H8  1  0.92148714  0.65213447  0.11447526  1  0.106653  0  0.117904  0.150347  0  0.978351  0
H  H9  1  0.07850739  0.61450227  0.15213668  1  0.106251  0  0.117975  0.150525  0  0.978459  0
H  H10  1  0.92797050  0.89584870  0.34197415  1  0.134403  0  0.120244  0.154287  0  0.972664  0
H  H11  1  0.07194574  0.84193681  0.39590834  1  0.13367  0  0.120046  0.153863  0  0.972888  0
H  H12  1  0.07851684  0.46400962  0.76936652  1  0.135627  0  0.117899  0.150496  0  0.97833  0
H  H13  1  0.92149541  0.26935883  0.96400892  1  0.135688  0  0.117956  0.150513  0  0.978419  0
H  H14  1  0.07197730  0.23002143  0.53215218  1  0.149386  0  0.120076  0.154016  0  0.972833  0
H  H15  1  0.92800806  0.03214300  0.73002198  1  0.148927  0  0.120096  0.154094  0  0.972975  0
H  H16  1  0.73784389  0.46784018  0.10412338  1  0.146491  0  0.120057  0.154117  0  0.973153  0
H  H17  1  0.73783866  0.26995983  0.15802652  1  0.132587  0  0.120254  0.154276  0  0.972695  0
H  H18  1  0.26663630  0.23063759  0.34786913  1  0.12248  0  0.117933  0.152582  0  0.976031  0
H  H19  1  0.26662016  0.03598665  0.38549358  1  0.098234  0  0.117882  0.150687  0  0.978404  0
H  H20  1  0.26218576  0.60412940  0.96786246  1  0.146235  0  0.120161  0.154365  0  0.972767  0
H  H21  1  0.26213504  0.65801166  0.77000059  1  0.133138  0  0.120185  0.154045  0  0.97276  0
H  H22  1  0.73337318  0.84786455  0.73064280  1  0.122465  0  0.117906  0.150609  0  0.978425  0
H  H23  1  0.73336924  0.88550744  0.53598447  1  0.098402  0  0.117959  0.15257  0  0.975993  0
H  H24  1  0.83722669  0.73537890  0.80928934  1  0.627272  0  0.349311  0.386241  0  0.844954  0
H  H25  1  0.04464370  0.64652318  0.69069998  1  0.627749  0  0.34963  0.386585  0  0.845363  0
H  H26  1  0.95535562  0.76463898  0.89813949  1  0.607267  0  0.349582  0.386508  0  0.845202  0
H  H27  1  0.16278033  0.85347226  0.60186152  1  0.617897  0  0.349374  0.386356  0  0.845106  0
H  H28  1  0.83723578  0.10185097  0.35345318  1  0.617972  0  0.349255  0.386028  0  0.845338  0
H  H29  1  0.04464752  0.39812580  0.26466179  1  0.607546  0  0.34955  0.386506  0  0.845273  0
H  H30  1  0.95535119  0.19072257  0.14650179  1  0.628241  0  0.349564  0.386506  0  0.845304  0
H  H31  1  0.16279121  0.30930556  0.23538559  1  0.627445  0  0.349387  0.386405  0  0.845056  0
H  H32  1  0.08322199  0.70442506  0.24012825  1  0.581787  0  0.318877  0.339914  0  0.925102  0
H  H33  1  0.91676127  0.74012118  0.20440442  1  0.582422  0  0.31894  0.339921  0  0.925214  0
H  H34  1  0.07428800  0.75092525  0.30895197  1  0.565424  0  0.318333  0.339748  0  0.927669  0
H  H35  1  0.92563341  0.80889611  0.25096355  1  0.570437  0  0.318319  0.339777  0  0.927841  0
H  H36  1  0.91683594  0.17663331  0.87881710  1  0.580308  0  0.31889  0.339975  0  0.925026  0
H  H37  1  0.08329554  0.37877914  0.67667935  1  0.580931  0  0.318913  0.339991  0  0.925138  0
H  H38  1  0.92559982  0.11676661  0.82337075  1  0.565289  0  0.318277  0.339586  0  0.927652  0
H  H39  1  0.07425215  0.32338795  0.61675771  1  0.5728  0  0.318378  0.339759  0  0.927665  0
H  H40  1  0.55986230  0.17659726  0.24909770  1  0.574637  0  0.318322  0.339856  0  0.927649  0
H  H41  1  0.55987104  0.38321907  0.19112885  1  0.571999  0  0.318324  0.339588  0  0.927671  0
H  H42  1  0.44454077  0.12119892  0.29550227  1  0.592958  0  0.318937  0.339987  0  0.92525  0
H  H43  1  0.44455399  0.32335419  0.25980564  1  0.585307  0  0.318885  0.340113  0  0.925024  0
H  H44  1  0.44010639  0.74902403  0.67662661  1  0.57388  0  0.318223  0.33931  0  0.928069  0
H  H45  1  0.44015949  0.69107916  0.88323004  1  0.571484  0  0.318376  0.339755  0  0.927636  0
H  H46  1  0.55544796  0.79555567  0.62118899  1  0.592411  0  0.31883  0.339781  0  0.925605  0
H  H47  1  0.55545898  0.75985579  0.82333956  1  0.584573  0  0.318862  0.339964  0  0.925126  0
C  C48  1  0.18459748  0.09230141  0.40770851  1  1.526132  0  0.230034  0.604625  0  4.154491  0
C  C49  1  0.00001176  0.13732097  0.36267928  1  1.566374  0  0.230517  0.6029  0  4.16526  0
C  C50  1  0.99996900  0.90986494  0.40989804  1  1.584493  0  0.232982  0.609106  0  4.149364  0
C  C51  1  0.81540068  0.90770757  0.59231181  1  1.52638  0  0.230172  0.60488  0  4.15433  0
C  C52  1  0.99999736  0.86267909  0.63732828  1  1.56585  0  0.230385  0.602575  0  4.165824  0
C  C53  1  0.00000311  0.09011420  0.59013448  1  1.596089  0  0.233013  0.609023  0  4.150429  0
C  C54  1  0.99999937  0.59230208  0.09229342  1  1.525963  0  0.230067  0.604812  0  4.154638  0
C  C55  1  0.99999735  0.36267240  0.13733110  1  1.56157  0  0.230606  0.602983  0  4.165158  0
C  C56  1  0.81975898  0.40985943  0.09011506  1  1.566101  0  0.233025  0.609111  0  4.149819  0
C  C57  1  0.99999828  0.40770327  0.90769644  1  1.54  0  0.230015  0.604625  0  4.154539  0
C  C58  1  0.99999301  0.63731549  0.86268106  1  1.560801  0  0.230383  0.602748  0  4.165397  0
C  C59  1  0.18023913  0.59010856  0.90989434  1  1.565651  0  0.232918  0.6088  0  4.150386  0
C  C60  1  0.00000161  0.80446164  0.69554431  1  0.07342  0  0.000438  -0.042542  0  3.911849  0
C  C61  1  0.00000467  0.69554724  0.80445748  1  0.049225  0  0.000498  -0.042582  0  3.9115  0
C  C62  1  0.95737280  0.77791190  0.76602223  1  -0.01886  0  -0.001592  -0.087738  0  3.961927  0
C  C63  1  0.04392971  0.72337934  0.73397810  1  0.034966  0  -0.001537  -0.087769  0  3.961908  0
C  C64  1  0.95607811  0.72209795  0.82054523  1  -0.069164  0  -0.001588  -0.087952  0  3.962096  0
C  C65  1  0.04263392  0.77661533  0.67946401  1  -0.032471  0  -0.001592  -0.088296  0  3.962453  0
C  C66  1  0.00000555  0.19553570  0.30445523  1  0.072839  0  0.000691  -0.041867  0  3.911514  0
C  C67  1  0.00000655  0.30445197  0.19555191  1  0.048989  0  0.000188  -0.043297  0  3.912194  0
C  C68  1  0.95737883  0.17945935  0.27660677  1  -0.0327  0  -0.001717  -0.088707  0  3.963274  0
C  C69  1  0.04393135  0.32053932  0.22210728  1  -0.069398  0  -0.001309  -0.087214  0  3.961838  0
C  C70  1  0.95607850  0.23397562  0.22337984  1  0.035298  0  -0.001551  -0.087551  0  3.961649  0
C  C71  1  0.04264677  0.26601242  0.27791497  1  -0.018578  0  -0.001745  -0.088359  0  3.961538  0
C  C72  1  0.99999928  0.62982247  0.12982231  1  0.06705  0  -0.013058  0.007714  0  4.032839  0
C  C73  1  0.95570819  0.65771997  0.13628837  1  0.025336  0  -0.104122  -0.243559  0  3.955035  0
C  C74  1  0.95571858  0.69264798  0.17118994  1  0.480273  0  0.089005  0.300758  0  4.07013  0
C  C75  1  0.99999111  0.70019085  0.20018494  1  0.181722  0  -0.037139  -0.13346  0  4.152592  0
C  C76  1  0.04426083  0.67119432  0.19265643  1  0.481165  0  0.08904  0.300727  0  4.070081  0
C  C77  1  0.04427977  0.63628951  0.15773296  1  0.025583  0  -0.104295  -0.243735  0  3.955742  0
C  C78  1  0.99998254  0.73563389  0.23564194  1  -0.21606  0  -0.051529  -0.120157  0  4.237591  0
C  C79  1  0.99996747  0.76657426  0.26660681  1  -0.348141  0  -0.050145  -0.114187  0  4.236048  0
C  C80  1  0.99996636  0.80200964  0.30204863  1  0.196427  0  -0.036346  -0.131204  0  4.151467  0
C  C81  1  0.95903705  0.83518025  0.30537545  1  0.452805  0  0.090038  0.298551  0  4.068996  0
C  C82  1  0.95910938  0.87019619  0.34018642  1  0.079559  0  -0.101681  -0.23849  0  3.942906  0
C  C83  1  0.99996704  0.87235454  0.37237756  1  -0.058355  0  -0.011926  0.006195  0  4.027677  0
C  C84  1  0.04081807  0.84015795  0.37024136  1  0.080001  0  -0.101434  -0.237559  0  3.943103  0
C  C85  1  0.04089186  0.80534557  0.33522635  1  0.440161  0  0.089872  0.298069  0  4.070374  0
C  C86  1  0.99999980  0.37017636  0.87017566  1  0.180895  0  -0.012914  0.007912  0  4.032738  0
C  C87  1  0.04429159  0.40798793  0.79799334  1  -0.060875  0  -0.104294  -0.243881  0  3.955427  0
C  C88  1  0.04428470  0.37306928  0.76308401  1  0.518068  0  0.089142  0.300813  0  4.070568  0
C  C89  1  0.00001460  0.29980851  0.79981380  1  0.092757  0  -0.037071  -0.133305  0  4.152436  0
C  C90  1  0.95574482  0.26307563  0.87307542  1  0.51867  0  0.089135  0.300979  0  4.069616  0
C  C91  1  0.95571730  0.29798769  0.90799178  1  -0.061151  0  -0.104282  -0.243838  0  3.955352  0
C  C92  1  0.00000436  0.26435391  0.76437002  1  -0.213191  0  -0.051557  -0.120206  0  4.237559  0
C  C93  1  0.99998334  0.23340345  0.73341492  1  -0.34671  0  -0.050194  -0.114191  0  4.236112  0
C  C94  1  0.99998123  0.19796801  0.69797282  1  0.107491  0  -0.036432  -0.131369  0  4.151429  0
C  C95  1  0.04090847  0.23556526  0.62388102  1  0.492269  0  0.089995  0.29845  0  4.069574  0
C  C96  1  0.04084878  0.20067717  0.58893971  1  0.064735  0  -0.101355  -0.237926  0  3.942686  0
C  C97  1  0.00000284  0.12762821  0.62764953  1  -0.060798  0  -0.011825  0.00662  0  4.02803  0
C  C98  1  0.95913517  0.08893115  0.70067823  1  0.06407  0  -0.101395  -0.238182  0  3.94369  0
C  C99  1  0.95904288  0.12386864  0.73556488  1  0.493872  0  0.089869  0.298353  0  4.069842  0
C  C100  1  0.74473060  0.37233988  0.12763899  1  -0.087453  0  -0.012025  0.005988  0  4.028189  0
C  C101  1  0.71039500  0.41105055  0.12978782  1  0.076443  0  -0.101321  -0.237966  0  3.943278  0
C  C102  1  0.64056245  0.37610831  0.16480702  1  0.43883  0  0.089953  0.297876  0  4.069638  0
C  C103  1  0.60406141  0.30201962  0.19796362  1  0.198194  0  -0.036389  -0.12972  0  4.149468  0
C  C104  1  0.64056352  0.26441808  0.19463441  1  0.540728  0  0.090002  0.29803  0  4.068692  0
C  C105  1  0.71039338  0.29930441  0.15981575  1  0.048024  0  -0.101533  -0.238189  0  3.943142  0
C  C106  1  0.53318815  0.26657923  0.23339244  1  -0.304611  0  -0.05035  -0.114659  0  4.236215  0
C  C107  1  0.47128227  0.23563060  0.26433898  1  -0.285404  0  -0.051372  -0.120351  0  4.237902  0
C  C108  1  0.40037937  0.20018460  0.29978693  1  0.154906  0  -0.03713  -0.133183  0  4.152405  0
C  C109  1  0.36385308  0.23691853  0.30732392  1  0.450938  0  0.089141  0.300811  0  4.070209  0
C  C110  1  0.29402094  0.20200992  0.34226827  1  0.029311  0  -0.104267  -0.245611  0  3.955134  0
C  C111  1  0.25964632  0.12982097  0.37017763  1  0.070775  0  -0.013036  0.007775  0  4.033386  0
C  C112  1  0.29401691  0.09201034  0.36368997  1  0.079877  0  -0.104303  -0.244191  0  3.955709  0
C  C113  1  0.36384663  0.12692152  0.32877780  1  0.497124  0  0.089062  0.300681  0  4.070497  0
C  C114  1  0.25526659  0.62762820  0.87237530  1  -0.086477  0  -0.011935  0.006362  0  4.028073  0
C  C115  1  0.28962055  0.62978464  0.91106971  1  0.075075  0  -0.101655  -0.23866  0  3.943291  0
C  C116  1  0.35944610  0.66479186  0.87612435  1  0.439147  0  0.090171  0.298764  0  4.069259  0
C  C117  1  0.39593907  0.69795723  0.80202632  1  0.206258  0  -0.036394  -0.131359  0  4.151438  0
C  C118  1  0.35941749  0.69461221  0.76444586  1  0.533395  0  0.089855  0.298278  0  4.069797  0
C  C119  1  0.28959302  0.65980219  0.79933728  1  0.047293  0  -0.101374  -0.237759  0  3.943092  0
C  C120  1  0.46681262  0.73338594  0.76658228  1  -0.304077  0  -0.050271  -0.114092  0  4.236437  0
C  C121  1  0.52871835  0.76434342  0.73562758  1  -0.285605  0  -0.051395  -0.120272  0  4.237757  0
C  C122  1  0.59962090  0.79979746  0.70018156  1  0.155907  0  -0.037064  -0.133183  0  4.152299  0
C  C123  1  0.63615618  0.80733483  0.73691944  1  0.450687  0  0.089076  0.300874  0  4.069765  0
C  C124  1  0.70598011  0.84226807  0.70201024  1  0.029029  0  -0.104303  -0.244051  0  3.955937  0
C  C125  1  0.74035133  0.87017344  0.62982677  1  0.070681  0  -0.01299  0.00765  0  4.033357  0
C  C126  1  0.70597860  0.86369833  0.59200620  1  0.080059  0  -0.10427  -0.245543  0  3.955144  0
C  C127  1  0.63615031  0.82879121  0.62691927  1  0.496416  0  0.089051  0.300793  0  4.07076  0
C  C128  1  0.91720451  0.81245108  0.78534761  1  1.574216  0  0.227509  0.573347  0  4.17961  0
C  C129  1  0.09778723  0.70253062  0.71465703  1  1.559873  0  0.227682  0.573943  0  4.179904  0
C  C130  1  0.90221649  0.68756091  0.89525019  1  1.574489  0  0.227558  0.573626  0  4.18042  0
C  C131  1  0.08279729  0.79745234  0.60475875  1  1.569798  0  0.22747  0.573548  0  4.179606  0
C  C132  1  0.91721153  0.10475666  0.29743470  1  1.570295  0  0.227626  0.573651  0  4.179062  0
C  C133  1  0.09779300  0.39524633  0.18758256  1  1.574704  0  0.227726  0.573668  0  4.179437  0
C  C134  1  0.90221427  0.21465447  0.20252853  1  1.559542  0  0.227662  0.573782  0  4.179898  0
C  C135  1  0.08281121  0.28533272  0.31246794  1  1.574345  0  0.227603  0.573661  0  4.179427  0
O  O136  1  0.00000135  0.99999506  0.50000226  1  -1.23359  0  -0.572189  -1.037599  0  2.531332  0
O  O137  1  0.15541846  0.02771944  0.42775763  1  -1.175853  0  -0.312674  -0.541491  0  2.336651  0
O  O138  1  0.05115249  0.15383883  0.37186842  1  -1.154328  0  -0.294645  -0.523932  0  2.358219  0
O  O139  1  0.96340458  0.94015757  0.40860966  1  -1.172474  0  -0.310239  -0.538863  0  2.344328  0
O  O140  1  0.15541757  0.12769547  0.41684005  1  -1.169418  0  -0.312562  -0.541617  0  2.33745  0
O  O141  1  0.03654617  0.90857134  0.44019696  1  -1.172043  0  -0.310466  -0.539111  0  2.343758  0
O  O142  1  0.94886321  0.07698322  0.39729186  1  -1.153645  0  -0.294713  -0.523922  0  2.35779  0
O  O143  1  0.84456953  0.92776260  0.52772184  1  -1.175878  0  -0.312919  -0.542042  0  2.336697  0
O  O144  1  0.94885878  0.87186585  0.65383979  1  -1.154372  0  -0.294601  -0.52361  0  2.358472  0
O  O145  1  0.84458179  0.91683004  0.62770606  1  -1.169826  0  -0.312411  -0.541257  0  2.337467  0
O  O146  1  0.05114491  0.89729674  0.57699224  1  -1.153608  0  -0.294624  -0.523741  0  2.357658  0
O  O147  1  0.03656877  0.12797555  0.52327010  1  -1.176852  0  -0.310413  -0.539057  0  2.34464  0
O  O148  1  0.96344281  0.02325458  0.62798936  1  -1.17773  0  -0.310382  -0.539013  0  2.344565  0
O  O149  1  0.00000178  0.49999933  0.00000391  1  -1.23328  0  -0.572194  -1.037689  0  2.531414  0
O  O150  1  0.95548257  0.58318038  0.07223027  1  -1.16698  0  -0.312541  -0.541391  0  2.337227  0
O  O151  1  0.02571402  0.42301128  0.12813749  1  -1.153499  0  -0.294624  -0.523843  0  2.357928  0
O  O152  1  0.84876789  0.37201530  0.09141298  1  -1.174921  0  -0.310215  -0.538729  0  2.344598  0
O  O153  1  0.04453044  0.57224846  0.08317892  1  -1.166685  0  -0.312744  -0.541671  0  2.336565  0
O  O154  1  0.84876361  0.47673614  0.05980597  1  -1.172395  0  -0.310608  -0.539311  0  2.344007  0
O  O155  1  0.97429461  0.34615023  0.10270217  1  -1.153223  0  -0.294731  -0.523792  0  2.35798  0
O  O156  1  0.95547062  0.37229819  0.97227976  1  -1.173773  0  -0.312661  -0.541534  0  2.336622  0
O  O157  1  0.02570125  0.60269195  0.84616344  1  -1.152903  0  -0.294611  -0.523824  0  2.357942  0
O  O158  1  0.04451895  0.47227923  0.87229925  1  -1.173929  0  -0.312647  -0.541456  0  2.337048  0
O  O159  1  0.97428361  0.62812398  0.92301714  1  -1.153554  0  -0.294609  -0.523797  0  2.357995  0
O  O160  1  0.15123113  0.55981239  0.97675570  1  -1.173041  0  -0.310409  -0.538888  0  2.344465  0
O  O161  1  0.15122483  0.59139395  0.87203843  1  -1.174385  0  -0.310357  -0.53899  0  2.34468  0
O  O162  1  0.84995128  0.77773243  0.81079888  1  -1.092307  0  -0.320747  -0.448566  0  2.204375  0
O  O163  1  0.94357506  0.86588995  0.78379454  1  -1.101579  0  -0.276898  -0.441359  0  2.041884  0
O  O164  1  0.08849124  0.66074096  0.68920457  1  -1.094224  0  -0.320905  -0.448899  0  2.205383  0
O  O165  1  0.14966928  0.72732235  0.71621883  1  -1.09677  0  -0.277189  -0.441722  0  2.042162  0
O  O166  1  0.91149892  0.72229203  0.92776448  1  -1.070153  0  -0.320882  -0.448735  0  2.205157  0
O  O167  1  0.85033887  0.63412341  0.92232225  1  -1.09997  0  -0.277008  -0.441515  0  2.042537  0
O  O168  1  0.15005225  0.83924835  0.57222727  1  -1.090281  0  -0.320783  -0.448709  0  2.204472  0
O  O169  1  0.05642725  0.77265154  0.57767917  1  -1.099794  0  -0.276921  -0.44138  0  2.041942  0
O  O170  1  0.84995814  0.07222106  0.33922466  1  -1.090496  0  -0.320725  -0.448349  0  2.204704  0
O  O171  1  0.94357761  0.07767544  0.27263640  1  -1.100086  0  -0.276986  -0.441411  0  2.041239  0
O  O172  1  0.08850846  0.42776384  0.22231200  1  -1.070491  0  -0.3208  -0.448775  0  2.205089  0
O  O173  1  0.14967170  0.42233049  0.13414412  1  -1.099815  0  -0.277247  -0.441626  0  2.041723  0
O  O174  1  0.91149593  0.18920909  0.16073080  1  -1.0944  0  -0.320854  -0.448751  0  2.205233  0
O  O175  1  0.85033379  0.21620822  0.22733084  1  -1.097046  0  -0.277154  -0.441686  0  2.042171  0
O  O176  1  0.15006938  0.31080553  0.27773732  1  -1.092622  0  -0.320732  -0.448672  0  2.204194  0
O  O177  1  0.05643897  0.28376329  0.36590903  1  -1.102014  0  -0.277066  -0.44159  0  2.042262  0
O  O178  1  0.08776168  0.67682835  0.21943165  1  -1.110997  0  -0.346782  -0.417686  0  2.244351  0
O  O179  1  0.91222029  0.71941013  0.17682115  1  -1.111351  0  -0.346789  -0.417587  0  2.244758  0
O  O180  1  0.08125260  0.77463448  0.33354816  1  -1.087451  0  -0.345808  -0.41698  0  2.245734  0
O  O181  1  0.91868108  0.83350088  0.27465074  1  -1.093472  0  -0.345909  -0.417213  0  2.245042  0
O  O182  1  0.91226144  0.19280657  0.91094204  1  -1.103925  0  -0.346876  -0.417876  0  2.244151  0
O  O183  1  0.08779815  0.41092103  0.69282575  1  -1.10392  0  -0.346744  -0.417653  0  2.244967  0
O  O184  1  0.91866546  0.08519757  0.80663653  1  -1.090027  0  -0.345874  -0.417046  0  2.245423  0
O  O185  1  0.08126459  0.30663182  0.58520970  1  -1.097412  0  -0.345908  -0.417121  0  2.245491  0
O  O186  1  0.60816091  0.19334359  0.22535049  1  -1.099629  0  -0.345966  -0.417386  0  2.245078  0
O  O187  1  0.60817553  0.41478157  0.16650784  1  -1.096298  0  -0.345788  -0.416839  0  2.245627  0
O  O188  1  0.39624360  0.08906334  0.32312370  1  -1.125267  0  -0.346691  -0.417485  0  2.245055  0
O  O189  1  0.39625778  0.30718972  0.28054009  1  -1.115009  0  -0.346853  -0.417959  0  2.244094  0
O  O190  1  0.39180495  0.72531688  0.69337160  1  -1.098916  0  -0.345798  -0.416706  0  2.24586  0
O  O191  1  0.39185759  0.66648882  0.91478802  1  -1.095831  0  -0.345972  -0.417222  0  2.245159  0
O  O192  1  0.60374109  0.82315329  0.58905893  1  -1.124781  0  -0.34668  -0.417584  0  2.245144  0
O  O193  1  0.60374974  0.78055915  0.80718878  1  -1.114139  0  -0.346825  -0.417791  0  2.244103  0
