# generated using pymatgen
data_NiH26C20(NO3)2
_symmetry_space_group_name_H-M   'P 1'
_cell_length_a   8.47345170
_cell_length_b   8.56218235
_cell_length_c   14.73780000
_cell_angle_alpha   90.00000000
_cell_angle_beta   90.00000000
_cell_angle_gamma   110.75726161
_symmetry_Int_Tables_number   1
_chemical_formula_structural   NiH26C20(NO3)2
_chemical_formula_sum   'Ni2 H52 C40 N4 O12'
_cell_volume   999.84122930
_cell_formula_units_Z   2
loop_
 _symmetry_equiv_pos_site_id
 _symmetry_equiv_pos_as_xyz
  1  'x, y, z'
loop_
 _atom_site_type_symbol
 _atom_site_label
 _atom_site_symmetry_multiplicity
 _atom_site_fract_x
 _atom_site_fract_y
 _atom_site_fract_z
 _atom_site_occupancy
 _atom_site_pbe_bader_charge
 _atom_site_pbe_bader_spin_density
 _atom_site_pbe_cm5_charge
 _atom_site_pbe_ddec_charge
 _atom_site_pbe_ddec_spin_density
 _atom_site_pbe_ddec_sum_bond_order
 _atom_site_pbe_magmom
Ni  Ni0  1  0.00000118  0.00000000  0.00000000  1  1.162326  1.553434  0.640267  0.739933  1.769682  2.451028  1.541
Ni  Ni1  1  0.50000221  0.50000165  0.49999932  1  1.162306  1.553417  0.640236  0.739862  1.769676  2.451159  1.541
H  H2  1  0.19217855  0.93399496  0.89462674  1  0.620704  -0.000301  0.28296  0.31746  -0.00029  1.049244  0.0
H  H3  1  0.30782207  0.56600248  0.39462674  1  0.620703  -0.000301  0.28296  0.317501  -0.00029  1.049221  0.0
H  H4  1  0.80782099  0.06600458  0.10537258  1  0.620701  -0.000301  0.282972  0.317434  -0.00029  1.049272  0.0
H  H5  1  0.69217911  0.43399831  0.60537190  1  0.620707  -0.000301  0.282944  0.317438  -0.00029  1.049264  0.0
H  H6  1  0.79920097  0.89873573  0.72738468  1  0.041704  -0.000291  0.098347  0.108484  -0.000236  1.00441  0.0
H  H7  1  0.70080416  0.60126171  0.22738740  1  0.041764  -0.000291  0.098375  0.108491  -0.000236  1.004496  0.0
H  H8  1  0.20079857  0.10126382  0.27261464  1  0.041707  -0.000291  0.098357  0.108517  -0.000236  1.004398  0.0
H  H9  1  0.29919611  0.39873658  0.77261192  1  0.041784  -0.000291  0.098369  0.108497  -0.000236  1.004482  0.0
H  H10  1  0.75645257  0.84259948  0.84355399  1  0.09066  -2.7e-05  0.105522  0.130409  -7.6e-05  1.007528  0.0
H  H11  1  0.74355138  0.65739796  0.34355670  1  0.090608  -2.6e-05  0.105492  0.130398  -7.5e-05  1.007515  0.0
H  H12  1  0.24354579  0.15740006  0.15644601  1  0.090665  -2.7e-05  0.105529  0.130422  -7.6e-05  1.007535  0.0
H  H13  1  0.25645007  0.34260033  0.65644262  1  0.090599  -2.5e-05  0.105489  0.130371  -7.5e-05  1.007555  0.0
H  H14  1  0.03842227  0.56872905  0.88227347  1  0.129565  0.000969  0.104314  0.109931  0.000586  1.045535  0.0
H  H15  1  0.46157054  0.93126964  0.38227551  1  0.129528  0.00097  0.104278  0.109892  0.000587  1.045619  0.0
H  H16  1  0.96157536  0.43127175  0.11772720  1  0.129568  0.000969  0.104286  0.109885  0.000586  1.045569  0.0
H  H17  1  0.53842384  0.06872865  0.61772449  1  0.129539  0.000971  0.104299  0.109883  0.000587  1.045609  0.0
H  H18  1  0.83809692  0.17254917  0.68677347  1  0.068462  0.001197  0.106896  0.115096  0.00056  1.023853  0.001
H  H19  1  0.66189932  0.32744623  0.18677550  1  0.068513  0.001196  0.106933  0.115105  0.00056  1.023934  0.001
H  H20  1  0.16190144  0.82745038  0.31322653  1  0.068436  0.001197  0.106902  0.115091  0.00056  1.023878  0.001
H  H21  1  0.33809742  0.67255206  0.81322450  1  0.068519  0.001196  0.106942  0.115166  0.00056  1.023822  0.001
H  H22  1  0.04802969  0.34937241  0.99349903  1  0.124733  0.001794  0.117892  0.087858  0.000565  1.02956  0.001
H  H23  1  0.45196691  0.15062674  0.49350242  1  0.124605  0.001796  0.117921  0.087899  0.000567  1.029511  0.001
H  H24  1  0.95196867  0.65062714  0.00650165  1  0.124688  0.001794  0.11789  0.087869  0.000565  1.02953  0.001
H  H25  1  0.54803264  0.84937280  0.50649826  1  0.124619  0.001796  0.117916  0.087897  0.000567  1.029482  0.001
H  H26  1  0.97335024  0.74453185  0.76932649  1  0.063184  0.00376  0.096202  0.060597  0.001725  0.996908  0.002
H  H27  1  0.52665579  0.75546809  0.26932785  1  0.063199  0.003761  0.096254  0.060613  0.001725  0.996999  0.002
H  H28  1  0.02664931  0.25546769  0.23067351  1  0.063189  0.00376  0.096216  0.060602  0.001725  0.99689  0.002
H  H29  1  0.47334656  0.24453271  0.73067283  1  0.063212  0.003761  0.096225  0.060598  0.001725  0.996975  0.002
H  H30  1  0.11016481  0.95608100  0.76002185  1  0.043372  0.000287  0.095465  0.052793  5.7e-05  0.989963  0.0
H  H31  1  0.38984142  0.54391894  0.26002253  1  0.043431  0.000288  0.095465  0.052818  5.7e-05  0.989905  0.0
H  H32  1  0.88983356  0.04391854  0.23997747  1  0.043367  0.000286  0.095466  0.052795  5.7e-05  0.989958  0.0
H  H33  1  0.61016064  0.45608435  0.73997747  1  0.043394  0.000289  0.095466  0.052781  5.8e-05  0.989939  0.0
H  H34  1  0.93204334  0.47527272  0.72319206  1  0.12858  0.000126  0.105399  0.110043  5e-06  1.05767  0.0
H  H35  1  0.56794744  0.02472393  0.22319342  1  0.128583  0.000126  0.105416  0.110149  5e-06  1.0576  0.0
H  H36  1  0.06795503  0.52472682  0.27680794  1  0.12858  0.000126  0.105407  0.110113  5e-06  1.057671  0.0
H  H37  1  0.43204693  0.97527437  0.77680658  1  0.128581  0.000126  0.105419  0.110087  5e-06  1.05768  0.0
H  H38  1  0.45216534  0.40846378  0.09089281  1  0.019066  0.000296  0.085359  0.076689  0.000176  1.006049  0.0
H  H39  1  0.04783508  0.09153287  0.59089416  1  0.019042  0.000297  0.085367  0.076675  0.000176  1.006038  0.0
H  H40  1  0.54783493  0.59153451  0.90910584  1  0.019036  0.000296  0.085357  0.076675  0.000176  1.006039  0.0
H  H41  1  0.95216564  0.90846668  0.40910652  1  0.019056  0.000297  0.085369  0.076688  0.000176  1.006068  0.0
H  H42  1  0.66034162  0.52349406  0.05460109  1  0.023439  -1.6e-05  0.082354  0.069838  -8.1e-05  1.033975  0.0
H  H43  1  0.83966043  0.97650463  0.55460177  1  0.023459  -1.4e-05  0.082378  0.069875  -8e-05  1.033947  0.0
H  H44  1  0.33966029  0.47650548  0.94539891  1  0.023453  -1.6e-05  0.082352  0.069862  -8.1e-05  1.033994  0.0
H  H45  1  0.16034193  0.02349616  0.44539823  1  0.023439  -1.4e-05  0.082387  0.069901  -8e-05  1.033862  0.0
H  H46  1  0.61555789  0.32388659  0.91977229  1  0.054482  0.001041  0.094013  0.107475  0.000439  0.998896  0.0
H  H47  1  0.88444530  0.17611506  0.41977432  1  0.054548  0.001043  0.094029  0.107477  0.000439  0.99896  0.0
H  H48  1  0.38444446  0.67611420  0.08022636  1  0.054514  0.001041  0.094005  0.107468  0.000439  0.998956  0.0
H  H49  1  0.11555750  0.82388698  0.58022704  1  0.054511  0.001043  0.094015  0.107471  0.00044  0.998963  0.0
H  H50  1  0.60796369  0.22738395  0.02557844  1  0.066385  0.00021  0.100544  0.122935  1.8e-05  0.987909  0.0
H  H51  1  0.89204141  0.27261644  0.52558048  1  0.066399  0.000212  0.100565  0.122973  2e-05  0.987875  0.0
H  H52  1  0.39203939  0.77261559  0.97442088  1  0.0664  0.00021  0.100558  0.122945  1.8e-05  0.98789  0.0
H  H53  1  0.10796330  0.72738435  0.47441952  1  0.066384  0.000212  0.100543  0.122936  2e-05  0.987904  0.0
C  C54  1  0.85157116  0.92158491  0.79627896  1  -0.004729  0.003944  -0.166519  -0.294828  0.001763  3.965894  0.003
C  C55  1  0.64843251  0.57841503  0.29628099  1  -0.004693  0.003944  -0.166463  -0.294723  0.001763  3.965944  0.003
C  C56  1  0.14842956  0.07841463  0.20372104  1  -0.004734  0.003943  -0.166536  -0.294895  0.001763  3.965905  0.003
C  C57  1  0.35156630  0.42158576  0.70371833  1  -0.004667  0.003944  -0.166468  -0.294748  0.001764  3.965952  0.003
C  C58  1  0.99542459  0.43741432  0.86271153  1  -0.086032  0.005492  -0.093286  -0.155677  0.003123  4.00194  0.004
C  C59  1  0.50457018  0.06258358  0.36271425  1  -0.086034  0.005493  -0.093285  -0.155579  0.003124  4.001942  0.004
C  C60  1  0.00457378  0.56258522  0.13728847  1  -0.08605  0.005492  -0.093257  -0.155566  0.003123  4.001833  0.004
C  C61  1  0.49542582  0.93741597  0.63728643  1  -0.08646  0.005495  -0.09324  -0.155463  0.003124  4.001931  0.004
C  C62  1  0.89417488  0.10214061  0.81963590  1  0.476687  -0.002333  0.126507  0.276309  -0.003149  3.916347  -0.002
C  C63  1  0.60582506  0.39785853  0.31963794  1  0.476656  -0.002331  0.126553  0.276369  -0.003147  3.916293  -0.002
C  C64  1  0.10582865  0.89786018  0.18036410  1  0.476675  -0.002334  0.126575  0.276445  -0.00315  3.916397  -0.002
C  C65  1  0.39417567  0.60214101  0.68036138  1  0.4766  -0.00233  0.126552  0.276435  -0.003146  3.916166  -0.002
C  C66  1  0.88396458  0.21707597  0.75444775  1  -0.032344  0.005896  -0.084947  -0.178254  0.00337  3.924286  0.005
C  C67  1  0.61603491  0.28292193  0.25445046  1  -0.032307  0.005895  -0.084999  -0.178235  0.003369  3.924342  0.005
C  C68  1  0.11603496  0.78292357  0.24555225  1  -0.032387  0.005896  -0.084968  -0.178274  0.00337  3.924378  0.005
C  C69  1  0.38396183  0.71707636  0.74554886  1  -0.032295  0.005895  -0.085012  -0.178316  0.00337  3.924201  0.005
C  C70  1  0.00104985  0.31717572  0.92471332  1  0.424045  -0.003963  0.044353  0.092265  -0.004883  3.955764  -0.003
C  C71  1  0.49895501  0.18282343  0.42471671  1  0.424179  -0.003959  0.044286  0.092174  -0.004878  3.955762  -0.003
C  C72  1  0.99895413  0.68282632  0.07528600  1  0.424114  -0.003964  0.044369  0.092299  -0.004884  3.955624  -0.003
C  C73  1  0.50104335  0.81717611  0.57528329  1  0.42461  -0.003961  0.044291  0.092147  -0.004877  3.955749  -0.003
C  C74  1  0.00611249  0.86913071  0.80021577  1  0.411394  0.001559  -0.071278  0.105849  0.000959  3.886424  0.0
C  C75  1  0.49389301  0.63087048  0.30021849  1  0.411092  0.00156  -0.07134  0.105741  0.000959  3.88653  0.0
C  C76  1  0.99388706  0.13086883  0.19978423  1  0.411405  0.001559  -0.071249  0.10587  0.000958  3.88632  0.0
C  C77  1  0.50610669  0.36913281  0.69978287  1  0.411335  0.00156  -0.07128  0.105809  0.000959  3.886464  0.0
C  C78  1  0.93566461  0.38624534  0.77538642  1  -0.038668  -0.005693  -0.072016  -0.029976  -0.006344  3.976078  -0.004
C  C79  1  0.56432824  0.11375380  0.27538710  1  -0.038563  -0.005695  -0.071989  -0.03014  -0.006346  3.976203  -0.004
C  C80  1  0.06433139  0.61375420  0.22461426  1  -0.038598  -0.005694  -0.072029  -0.030112  -0.006345  3.976226  -0.004
C  C81  1  0.43566613  0.88624449  0.72461222  1  -0.038575  -0.005693  -0.072063  -0.03016  -0.006344  3.9763  -0.004
C  C82  1  0.37192011  0.15980688  0.96177109  1  1.542051  -0.001382  0.216532  0.634802  -0.002309  4.108958  -0.002
C  C83  1  0.12808239  0.34019227  0.46177313  1  1.542645  -0.00138  0.216482  0.634698  -0.002307  4.109005  -0.002
C  C84  1  0.62808017  0.84019141  0.03822755  1  1.542637  -0.001382  0.216515  0.634738  -0.002309  4.10906  -0.002
C  C85  1  0.87191878  0.65980853  0.53822687  1  1.54265  -0.001381  0.2165  0.634719  -0.002307  4.10896  -0.002
C  C86  1  0.53364574  0.44680929  0.03059344  1  -0.033426  0.000408  -0.17283  -0.127307  0.000272  3.956388  0.0
C  C87  1  0.96635465  0.05319111  0.53059412  1  -0.001661  0.000409  -0.172818  -0.12727  0.000273  3.956337  0.0
C  C88  1  0.46635425  0.55319150  0.96940588  1  -0.001653  0.000407  -0.172832  -0.127334  0.000272  3.956414  0.0
C  C89  1  0.03364624  0.94681218  0.46940588  1  -0.033388  0.00041  -0.172869  -0.127392  0.000273  3.956318  0.0
C  C90  1  0.54258428  0.29170739  0.98318813  1  -0.048729  0.007164  -0.16753  -0.297483  0.004332  3.925161  0.005
C  C91  1  0.95741802  0.20829176  0.48319084  1  -0.048783  0.007166  -0.167571  -0.297497  0.004333  3.925227  0.005
C  C92  1  0.45741718  0.70829091  0.01681051  1  -0.048797  0.007164  -0.167541  -0.297466  0.004332  3.925244  0.005
C  C93  1  0.04258433  0.79170903  0.51681051  1  -0.048745  0.007167  -0.167512  -0.297458  0.004333  3.925194  0.005
N  N94  1  0.95213753  0.15340202  0.90426862  1  -1.207933  0.067205  -0.326137  -0.269777  0.039273  3.506909  0.06
N  N95  1  0.54786477  0.34659713  0.40427133  1  -1.208099  0.067213  -0.326144  -0.269818  0.039277  3.506913  0.06
N  N96  1  0.04786409  0.84660002  0.09573206  1  -1.207946  0.067204  -0.326213  -0.269939  0.039273  3.507008  0.06
N  N97  1  0.45213522  0.65340366  0.59572867  1  -1.208115  0.067214  -0.326151  -0.269835  0.039278  3.506905  0.06
O  O98  1  0.24471685  0.16655897  0.00540786  1  -1.158506  0.070322  -0.30931  -0.545841  0.039449  2.383199  0.066
O  O99  1  0.25528756  0.33343893  0.50540854  1  -1.158592  0.07033  -0.30931  -0.54581  0.039454  2.383259  0.066
O  O100  1  0.75528388  0.83344057  0.99459146  1  -1.15853  0.07032  -0.309317  -0.545846  0.039448  2.383294  0.066
O  O101  1  0.74471243  0.66656186  0.49459146  1  -1.158594  0.070329  -0.309316  -0.545807  0.039454  2.383265  0.066
O  O102  1  0.06243146  0.86313177  0.89155912  1  -1.121855  0.066029  -0.392118  -0.488362  0.037063  2.428604  0.06
O  O103  1  0.43757050  0.63686942  0.39156183  1  -1.121646  0.066039  -0.392141  -0.488398  0.037069  2.428612  0.06
O  O104  1  0.93756853  0.13686902  0.10844088  1  -1.121855  0.066029  -0.392182  -0.488363  0.037063  2.428574  0.06
O  O105  1  0.56242949  0.36313138  0.60843952  1  -1.12187  0.066043  -0.392151  -0.488351  0.03707  2.428566  0.06
O  O106  1  0.36660264  0.04817887  0.90316804  1  -1.193344  -0.000229  -0.326827  -0.561303  -0.001021  2.223638  0.0
O  O107  1  0.13340414  0.45181902  0.40317076  1  -1.193836  -0.000225  -0.326768  -0.56125  -0.001019  2.223704  0.0
O  O108  1  0.63340045  0.95182067  0.09683060  1  -1.193887  -0.00023  -0.326804  -0.561244  -0.001022  2.223662  0.0
O  O109  1  0.86659939  0.54818177  0.59682924  1  -1.193844  -0.000225  -0.326782  -0.561235  -0.001019  2.223698  0.0
