# generated using pymatgen
data_CdH16C18(N7O)2
_symmetry_space_group_name_H-M   'P 1'
_cell_length_a   7.55236170
_cell_length_b   7.70027615
_cell_length_c   9.52116048
_cell_angle_alpha   98.26378507
_cell_angle_beta   97.30019170
_cell_angle_gamma   111.12589801
_symmetry_Int_Tables_number   1
_chemical_formula_structural   CdH16C18(N7O)2
_chemical_formula_sum   'Cd1 H16 C18 N14 O2'
_cell_volume   501.44114978
_cell_formula_units_Z   1
loop_
 _symmetry_equiv_pos_site_id
 _symmetry_equiv_pos_as_xyz
  1  'x, y, z'
loop_
 _atom_site_type_symbol
 _atom_site_label
 _atom_site_symmetry_multiplicity
 _atom_site_fract_x
 _atom_site_fract_y
 _atom_site_fract_z
 _atom_site_occupancy
 _atom_site_hle17_bader_spin_density
 _atom_site_hle17_ddec_charge
 _atom_site_hle17_ddec_spin_density
 _atom_site_hle17_ddec_sum_bond_order
 _atom_site_hle17_magmom
 _atom_site_hse06_10hf_bader_spin_density
 _atom_site_hse06_10hf_ddec_charge
 _atom_site_hse06_10hf_ddec_spin_density
 _atom_site_hse06_10hf_ddec_sum_bond_order
 _atom_site_hse06_10hf_magmom
 _atom_site_hse06_bader_spin_density
 _atom_site_hse06_ddec_charge
 _atom_site_hse06_ddec_spin_density
 _atom_site_hse06_ddec_sum_bond_order
 _atom_site_hse06_magmom
 _atom_site_pbe_bader_spin_density
 _atom_site_pbe_cm5_charge
 _atom_site_pbe_ddec_charge
 _atom_site_pbe_ddec_spin_density
 _atom_site_pbe_ddec_sum_bond_order
 _atom_site_pbe_magmom
Cd  Cd0  1  0.49999787  0.49999913  0.49999978  1  0  1.105014  0  1.766803  0  0  0.908415  0  2.225043  0  0  0.958047  0  2.178432  0  0  0.800306  0.872358  0  2.257735  0
H  H1  1  0.25843383  0.11136902  0.53959561  1  0  0.381466  0  0.9414  0  0  0.336762  0  1.028589  0  0  0.347918  0  1.012622  0  0  0.277763  0.328863  0  1.039856  0
H  H2  1  0.74156405  0.88862784  0.46040295  1  0  0.381508  0  0.941346  0  0  0.336806  0  1.028533  0  0  0.347961  0  1.012565  0  0  0.277774  0.328905  0  1.039803  0
H  H3  1  0.18002729  0.25448801  0.62436965  1  0  0.391596  0  0.923479  0  0  0.353458  0  1.000831  0  0  0.364377  0  0.985233  0  0  0.279642  0.345635  0  1.012025  0
H  H4  1  0.81997059  0.74550885  0.37562892  1  0  0.391618  0  0.923453  0  0  0.353481  0  1.000796  0  0  0.3644  0  0.985199  0  0  0.279652  0.345658  0  1.01199  0
H  H5  1  0.38161565  0.03522894  0.26842306  1  0  0.112738  0  0.944983  0  0  0.112944  0  1.022678  0  0  0.116013  0  1.017592  0  0  0.144449  0.110577  0  1.025654  0
H  H6  1  0.61837743  0.96476932  0.73157517  1  0  0.112662  0  0.945001  0  0  0.112911  0  1.022665  0  0  0.115979  0  1.017581  0  0  0.144422  0.110544  0  1.025639  0
H  H7  1  0.45878321  0.56118499  0.15707233  1  0  0.096859  0  0.943933  0  0  0.10314  0  1.011167  0  0  0.105668  0  1.007904  0  0  0.133566  0.101041  0  1.013966  0
H  H8  1  0.54121441  0.43881468  0.84292865  1  0  0.096876  0  0.943918  0  0  0.103149  0  1.011159  0  0  0.105678  0  1.007896  0  0  0.133567  0.101051  0  1.013956  0
H  H9  1  0.09160175  0.06922191  0.81279113  1  0  0.113501  0  0.970601  0  0  0.114542  0  1.048246  0  0  0.118904  0  1.044572  0  0  0.107213  0.111177  0  1.051356  0
H  H10  1  0.90839613  0.93077495  0.18720743  1  0  0.113503  0  0.970594  0  0  0.114533  0  1.048256  0  0  0.118894  0  1.044583  0  0  0.107204  0.111169  0  1.051363  0
H  H11  1  0.91712436  0.76583373  0.63496330  1  0  0.091767  0  0.977327  0  0  0.100015  0  1.045764  0  0  0.102871  0  1.043907  0  0  0.102711  0.098017  0  1.046953  0
H  H12  1  0.08286970  0.23416023  0.36503765  1  0  0.091774  0  0.977267  0  0  0.099983  0  1.045761  0  0  0.102849  0  1.043885  0  0  0.102709  0.097984  0  1.046948  0
H  H13  1  0.15783673  0.47503302  0.90972329  1  0  0.101411  0  0.966657  0  0  0.10664  0  1.037116  0  0  0.109711  0  1.035657  0  0  0.103355  0.104349  0  1.038432  0
H  H14  1  0.84216682  0.52496811  0.09027639  1  0  0.101473  0  0.966644  0  0  0.106686  0  1.037112  0  0  0.109761  0  1.035647  0  0  0.103379  0.104395  0  1.038429  0
H  H15  1  0.33500300  0.77887234  0.08687077  1  0  0.106175  0  0.945433  0  0  0.119142  0  1.003653  0  0  0.121807  0  1.002642  0  0  0.108328  0.117298  0  1.00429  0
H  H16  1  0.66500785  0.22113031  0.91312461  1  0  0.106246  0  0.945358  0  0  0.119203  0  1.003586  0  0  0.121872  0  1.002572  0  0  0.108342  0.117345  0  1.004242  0
C  C17  1  0.38188106  0.14425840  0.20803585  1  0  0.191752  0  3.618642  0  0  0.113001  0  3.893375  0  0  0.139597  0  3.905864  0  0  0.170649  0.102637  0  3.886934  0
C  C18  1  0.61811526  0.85574131  0.79196184  1  0  0.191846  0  3.618532  0  0  0.113049  0  3.893289  0  0  0.13964  0  3.905779  0  0  0.1707  0.102684  0  3.886851  0
C  C19  1  0.41540303  0.40921579  0.14855982  1  0  0.206729  0  3.713237  0  0  0.153637  0  4.003217  0  0  0.165998  0  4.013158  0  0  0.150202  0.146195  0  3.993813  0
C  C20  1  0.58459437  0.59078674  0.85144044  1  0  0.206671  0  3.71321  0  0  0.153609  0  4.003164  0  0  0.16597  0  4.013103  0  0  0.150194  0.146168  0  3.993761  0
C  C21  1  0.21986179  0.94087469  0.96131309  1  0  0.164383  0  3.77905  0  0  0.144088  0  4.030093  0  0  0.160413  0  4.052651  0  0  0.095877  0.140578  0  4.015278  0
C  C22  1  0.78013909  0.05912644  0.03868630  1  0  0.164346  0  3.778915  0  0  0.144039  0  4.029968  0  0  0.160362  0  4.052529  0  0  0.095861  0.140528  0  4.015153  0
C  C23  1  0.10450735  0.93853891  0.83353660  1  0  -0.12893  0  3.713546  0  0  -0.152808  0  3.974987  0  0  -0.156387  0  3.991147  0  0  -0.089589  -0.15074  0  3.962649  0
C  C24  1  0.89549297  0.06146080  0.16646256  1  0  -0.12895  0  3.713463  0  0  -0.152802  0  3.974867  0  0  -0.156383  0  3.991033  0  0  -0.089586  -0.150735  0  3.962531  0
C  C25  1  0.00659869  0.76781879  0.73469190  1  0  -0.066163  0  3.726583  0  0  -0.089426  0  3.975098  0  0  -0.090524  0  3.997483  0  0  -0.084755  -0.088615  0  3.960343  0
C  C26  1  0.99339869  0.23218370  0.26531044  1  0  -0.066207  0  3.726433  0  0  -0.089492  0  3.974982  0  0  -0.090594  0  3.997347  0  0  -0.084771  -0.088677  0  3.960223  0
C  C27  1  0.02143225  0.59865269  0.76162837  1  0  0.004209  0  3.779869  0  0  0.02212  0  4.014268  0  0  0.018941  0  4.03745  0  0  -0.005603  0.023943  0  3.999026  0
C  C28  1  0.97857235  0.40135123  0.23837597  1  0  0.004306  0  3.779908  0  0  0.022278  0  4.014201  0  0  0.019101  0  4.037385  0  0  -0.005591  0.024099  0  3.998957  0
C  C29  1  0.14266378  0.60486839  0.88871997  1  0  -0.067639  0  3.717086  0  0  -0.08752  0  3.964477  0  0  -0.088177  0  3.985778  0  0  -0.082059  -0.087215  0  3.950622  0
C  C30  1  0.85733975  0.39513273  0.11128076  1  0  -0.067772  0  3.717077  0  0  -0.087647  0  3.964415  0  0  -0.088307  0  3.985722  0  0  -0.082073  -0.08734  0  3.950553  0
C  C31  1  0.24136922  0.77512686  0.98856412  1  0  -0.147339  0  3.74321  0  0  -0.173402  0  4.007782  0  0  -0.177537  0  4.026008  0  0  -0.094574  -0.17057  0  3.992943  0
C  C32  1  0.75863704  0.22487432  0.01143270  1  0  -0.147351  0  3.743051  0  0  -0.173407  0  4.007607  0  0  -0.177545  0  4.025837  0  0  -0.094599  -0.170564  0  3.992771  0
C  C33  1  0.90805843  0.41809307  0.66099905  1  0  0.277193  0  3.800441  0  0  0.248177  0  4.070905  0  0  0.259734  0  4.088158  0  0  0.209377  0.240986  0  4.058056  0
C  C34  1  0.09194048  0.58190655  0.33900626  1  0  0.277072  0  3.800605  0  0  0.248066  0  4.071022  0  0  0.259623  0  4.088273  0  0  0.209339  0.240877  0  4.058173  0
N  N35  1  0.44671963  0.32981884  0.26366927  1  0  -0.408016  0  3.197799  0  0  -0.335021  0  3.48769  0  0  -0.356789  0  3.497876  0  0  -0.345384  -0.319808  0  3.477554  0
N  N36  1  0.55327401  0.67018085  0.73632919  1  0  -0.408014  0  3.197619  0  0  -0.335047  0  3.487546  0  0  -0.356814  0  3.497731  0  0  -0.345411  -0.319833  0  3.477412  0
N  N37  1  0.33432945  0.28390609  0.02512583  1  0  -0.267268  0  2.865462  0  0  -0.261304  0  3.135591  0  0  -0.259837  0  3.155005  0  0  -0.214799  -0.255243  0  3.126372  0
N  N38  1  0.66567144  0.71609505  0.97487252  1  0  -0.267266  0  2.865624  0  0  -0.261291  0  3.135714  0  0  -0.259828  0  3.155127  0  0  -0.214794  -0.255232  0  3.126498  0
N  N39  1  0.31313199  0.11447519  0.06446703  1  0  0.004134  0  3.602022  0  0  0.120276  0  3.780019  0  0  0.077389  0  3.843183  0  0  -0.117203  0.127305  0  3.764562  0
N  N40  1  0.68686811  0.88552737  0.93553141  1  0  0.004161  0  3.602181  0  0  0.120304  0  3.780194  0  0  0.077424  0  3.843349  0  0  -0.117186  0.127341  0  3.764725  0
N  N41  1  0.74081458  0.38095267  0.56862027  1  0  -0.355903  0  3.120576  0  0  -0.29283  0  3.407866  0  0  -0.311827  0  3.424664  0  0  -0.237565  -0.279893  0  3.395751  0
N  N42  1  0.25918514  0.61904557  0.43138181  1  0  -0.355851  0  3.120566  0  0  -0.292789  0  3.407849  0  0  -0.311785  0  3.424644  0  0  -0.237544  -0.279854  0  3.395735  0
N  N43  1  0.67962267  0.19829766  0.50016752  1  0  -0.075568  0  2.979925  0  0  -0.07385  0  3.27134  0  0  -0.072787  0  3.286304  0  0  -0.10055  -0.074047  0  3.260832  0
N  N44  1  0.32037575  0.80170061  0.49983233  1  0  -0.075576  0  2.979948  0  0  -0.073864  0  3.271374  0  0  -0.072799  0  3.286337  0  0  -0.10055  -0.07406  0  3.260865  0
N  N45  1  0.80436855  0.12767902  0.54831061  1  0  -0.11339  0  3.093354  0  0  -0.075098  0  3.374265  0  0  -0.079593  0  3.387507  0  0  -0.092985  -0.071785  0  3.364723  0
N  N46  1  0.19562990  0.87231928  0.45168714  1  0  -0.113355  0  3.093345  0  0  -0.07506  0  3.374248  0  0  -0.079558  0  3.387489  0  0  -0.092984  -0.071746  0  3.364706  0
N  N47  1  0.95018931  0.26127276  0.64950151  1  0  -0.334668  0  3.000274  0  0  -0.293856  0  3.265975  0  0  -0.306817  0  3.27928  0  0  -0.22186  -0.284767  0  3.25586  0
N  N48  1  0.04980911  0.73872551  0.35049833  1  0  -0.334631  0  3.000348  0  0  -0.29383  0  3.266047  0  0  -0.30679  0  3.279351  0  0  -0.221837  -0.284742  0  3.255933  0
O  O49  1  0.29824905  0.24563294  0.59324200  1  0  -0.83154  0  1.933267  0  0  -0.767024  0  2.150039  0  0  -0.788084  0  2.115604  0  0  -0.596356  -0.752092  0  2.174516  0
O  O50  1  0.70174937  0.75436533  0.40675784  1  0  -0.83159  0  1.933226  0  0  -0.767085  0  2.149999  0  0  -0.788142  0  2.115568  0  0  -0.596373  -0.75215  0  2.174479  0
