# generated using pymatgen
data_PH13PbC18S(NO3)2
_symmetry_space_group_name_H-M   'P 1'
_cell_length_a   7.20259542
_cell_length_b   11.14525939
_cell_length_c   11.31778838
_cell_angle_alpha   89.36282033
_cell_angle_beta   79.35140541
_cell_angle_gamma   84.71227950
_symmetry_Int_Tables_number   1
_chemical_formula_structural   PH13PbC18S(NO3)2
_chemical_formula_sum   'P2 H26 Pb2 C36 S2 N4 O12'
_cell_volume   889.07135238
_cell_formula_units_Z   2
loop_
 _symmetry_equiv_pos_site_id
 _symmetry_equiv_pos_as_xyz
  1  'x, y, z'
loop_
 _atom_site_type_symbol
 _atom_site_label
 _atom_site_symmetry_multiplicity
 _atom_site_fract_x
 _atom_site_fract_y
 _atom_site_fract_z
 _atom_site_occupancy
 _atom_site_hle17_bader_spin_density
 _atom_site_hle17_ddec_charge
 _atom_site_hle17_ddec_spin_density
 _atom_site_hle17_ddec_sum_bond_order
 _atom_site_hle17_magmom
 _atom_site_hse06_10hf_bader_spin_density
 _atom_site_hse06_10hf_ddec_charge
 _atom_site_hse06_10hf_ddec_spin_density
 _atom_site_hse06_10hf_ddec_sum_bond_order
 _atom_site_hse06_10hf_magmom
 _atom_site_hse06_bader_spin_density
 _atom_site_hse06_ddec_charge
 _atom_site_hse06_ddec_spin_density
 _atom_site_hse06_ddec_sum_bond_order
 _atom_site_hse06_magmom
 _atom_site_pbe_bader_spin_density
 _atom_site_pbe_cm5_charge
 _atom_site_pbe_ddec_charge
 _atom_site_pbe_ddec_spin_density
 _atom_site_pbe_ddec_sum_bond_order
 _atom_site_pbe_magmom
P  P0  1  0.25625725  0.17519487  0.05629766  1  0  1.442235  0  4.87317  0  0  1.281666  0  5.368072  0  0  1.333408  0  5.330433  0  0  0.355972  1.245727  0  5.393138  0
P  P1  1  0.74374277  0.82480043  0.94370455  1  0  1.442009  0  4.87342  0  0  1.281387  0  5.368304  0  0  1.333127  0  5.330673  0  0  0.355896  1.245436  0  5.393385  0
H  H2  1  0.36151747  0.56470789  0.97802413  1  0  0.079739  0  0.971058  0  0  0.08784  0  1.039307  0  0  0.089919  0  1.037234  0  0  0.116929  0.086387  0  1.040617  0
H  H3  1  0.63848045  0.43530184  0.02197113  1  0  0.079752  0  0.971098  0  0  0.087834  0  1.039372  0  0  0.089915  0  1.037298  0  0  0.116954  0.086386  0  1.040675  0
H  H4  1  0.55436892  0.40579300  0.83903328  1  0  0.117126  0  0.952125  0  0  0.127436  0  1.010202  0  0  0.1308  0  1.008441  0  0  0.1125  0.125092  0  1.011554  0
H  H5  1  0.44564315  0.59421672  0.16096381  1  0  0.117086  0  0.9522  0  0  0.127347  0  1.010359  0  0  0.130723  0  1.008569  0  0  0.112535  0.125007  0  1.011719  0
H  H6  1  0.65111404  0.45431632  0.62283691  1  0  0.103543  0  0.948517  0  0  0.114492  0  1.009225  0  0  0.116865  0  1.008312  0  0  0.109292  0.112609  0  1.010233  0
H  H7  1  0.34889250  0.54569251  0.37715997  1  0  0.10355  0  0.948461  0  0  0.114496  0  1.009171  0  0  0.11687  0  1.008257  0  0  0.109278  0.112619  0  1.010171  0
H  H8  1  0.10899628  0.08900032  0.80584645  1  0  0.076589  0  0.977882  0  0  0.081593  0  1.051675  0  0  0.084437  0  1.048419  0  0  0.117  0.079473  0  1.054027  0
H  H9  1  0.89098960  0.91099500  0.19415568  1  0  0.076522  0  0.977768  0  0  0.081534  0  1.051588  0  0  0.084381  0  1.048327  0  0  0.116979  0.079409  0  1.053946  0
H  H10  1  0.11445258  0.13969630  0.59103814  1  0  0.11832  0  0.966587  0  0  0.125917  0  1.028149  0  0  0.129434  0  1.027054  0  0  0.108373  0.123647  0  1.02865  0
H  H11  1  0.88553203  0.86030802  0.40896671  1  0  0.118406  0  0.96648  0  0  0.126038  0  1.027993  0  0  0.129555  0  1.026894  0  0  0.108399  0.12377  0  1.028495  0
H  H12  1  0.28804578  0.99004838  0.43147181  1  0  0.103132  0  0.924918  0  0  0.118839  0  0.976582  0  0  0.121591  0  0.975038  0  0  0.113694  0.116874  0  0.977685  0
H  H13  1  0.71194765  0.00996315  0.56852661  1  0  0.103174  0  0.924968  0  0  0.118832  0  0.976679  0  0  0.121582  0  0.975141  0  0  0.113707  0.116871  0  0.977778  0
H  H14  1  0.48807460  0.79372099  0.38327138  1  0  0.116777  0  0.926174  0  0  0.130758  0  0.977576  0  0  0.133821  0  0.976459  0  0  0.112774  0.128578  0  0.978466  0
H  H15  1  0.51191535  0.20628515  0.61672398  1  0  0.116754  0  0.926113  0  0  0.130714  0  0.977557  0  0  0.133777  0  0.976441  0  0  0.112785  0.128538  0  0.978441  0
H  H16  1  0.62516140  0.60214706  0.45264539  1  0  0.099825  0  0.969535  0  0  0.109431  0  1.035069  0  0  0.112034  0  1.034237  0  0  0.103734  0.107441  0  1.036109  0
H  H17  1  0.37483278  0.39785908  0.54734681  1  0  0.099759  0  0.969608  0  0  0.109354  0  1.035164  0  0  0.111963  0  1.034319  0  0  0.1037  0.107365  0  1.036198  0
H  H18  1  0.90709023  0.50285217  0.43303911  1  0  0.091367  0  0.969004  0  0  0.102711  0  1.033621  0  0  0.10538  0  1.031687  0  0  0.104272  0.100776  0  1.035007  0
H  H19  1  0.09291650  0.49713591  0.56696854  1  0  0.091394  0  0.968923  0  0  0.102721  0  1.033577  0  0  0.1054  0  1.031616  0  0  0.10428  0.100782  0  1.034967  0
H  H20  1  0.97357158  0.28687984  0.47704487  1  0  0.102829  0  0.970008  0  0  0.11295  0  1.031283  0  0  0.116196  0  1.029886  0  0  0.100107  0.110694  0  1.032311  0
H  H21  1  0.02643115  0.71310645  0.52295798  1  0  0.102858  0  0.97007  0  0  0.112988  0  1.031341  0  0  0.116232  0  1.029947  0  0  0.100074  0.110728  0  1.032372  0
H  H22  1  0.13139645  0.14510903  0.31048582  1  0  0.087001  0  0.943813  0  0  0.099992  0  1.004854  0  0  0.10273  0  1.003093  0  0  0.10179  0.097891  0  1.006325  0
H  H23  1  0.86860432  0.85488089  0.68951105  1  0  0.08689  0  0.94387  0  0  0.09991  0  1.004865  0  0  0.102659  0  1.003088  0  0  0.101742  0.097796  0  1.006363  0
H  H24  1  0.13322127  0.43756233  0.05788075  1  0  0.105956  0  0.95396  0  0  0.114419  0  1.020435  0  0  0.117664  0  1.018022  0  0  0.107197  0.112135  0  1.022205  0
H  H25  1  0.86678816  0.56243656  0.94212648  1  0  0.105953  0  0.954048  0  0  0.114453  0  1.020475  0  0  0.117694  0  1.018041  0  0  0.107211  0.112165  0  1.022246  0
H  H26  1  0.29171532  0.27838004  0.88198152  1  0  0.43493  0  0.869554  0  0  0.401873  0  0.936313  0  0  0.41385  0  0.919049  0  0  0.305457  0.393427  0  0.948441  0
H  H27  1  0.70828729  0.72161706  0.11802477  1  0  0.435154  0  0.869194  0  0  0.402002  0  0.936132  0  0  0.413984  0  0.918856  0  0  0.305523  0.393557  0  0.948258  0
Pb  Pb28  1  0.25005847  0.87105393  0.98935361  1  0  1.321502  0  1.442513  0  0  1.131754  0  1.831697  0  0  1.183754  0  1.794961  0  0  0.660366  1.094853  0  1.856916  0
Pb  Pb29  1  0.74995196  0.12893777  0.01064738  1  0  1.321459  0  1.442594  0  0  1.131716  0  1.831781  0  0  1.183716  0  1.79504  0  0  0.660346  1.094815  0  1.857001  0
C  C30  1  0.40736496  0.58211891  0.88276407  1  0  0.147702  0  3.676982  0  0  0.113127  0  3.935679  0  0  0.121179  0  3.952914  0  0  0.058649  0.108189  0  3.923814  0
C  C31  1  0.59263322  0.41788902  0.11723206  1  0  0.14768  0  3.677053  0  0  0.113132  0  3.935753  0  0  0.121182  0  3.952991  0  0  0.058652  0.108192  0  3.923891  0
C  C32  1  0.51317589  0.49375613  0.80458078  1  0  -0.095541  0  3.706762  0  0  -0.11108  0  3.963756  0  0  -0.117109  0  3.983293  0  0  -0.078021  -0.107919  0  3.951042  0
C  C33  1  0.48683103  0.50625000  0.19541519  1  0  -0.095432  0  3.706814  0  0  -0.110958  0  3.963773  0  0  -0.116988  0  3.98332  0  0  -0.078096  -0.107809  0  3.951059  0
C  C34  1  0.56535993  0.52092669  0.68445980  1  0  -0.038442  0  3.675517  0  0  -0.062342  0  3.922023  0  0  -0.060022  0  3.94038  0  0  -0.060193  -0.06365  0  3.909885  0
C  C35  1  0.43464249  0.47908124  0.31553581  1  0  -0.038515  0  3.67544  0  0  -0.062367  0  3.921912  0  0  -0.060049  0  3.940272  0  0  -0.060184  -0.063674  0  3.909779  0
C  C36  1  0.50524129  0.63472692  0.64210169  1  0  0.021333  0  3.797569  0  0  0.03853  0  4.026483  0  0  0.035275  0  4.052231  0  0  -0.000554  0.040974  0  4.00874  0
C  C37  1  0.49475547  0.36528102  0.35789372  1  0  0.021343  0  3.797294  0  0  0.038487  0  4.026252  0  0  0.035235  0  4.051995  0  0  -0.000564  0.04092  0  4.008526  0
C  C38  1  0.40097221  0.71925890  0.72807186  1  0  0.135411  0  3.758848  0  0  0.128976  0  3.993831  0  0  0.133198  0  4.016602  0  0  0.124598  0.126552  0  3.977961  0
C  C39  1  0.59903070  0.28074544  0.27192019  1  0  0.135239  0  3.758824  0  0  0.128883  0  3.993835  0  0  0.133106  0  4.016605  0  0  0.124605  0.126473  0  3.977956  0
C  C40  1  0.33528527  0.83622622  0.68842430  1  0  0.137091  0  3.743004  0  0  0.128352  0  3.980101  0  0  0.133295  0  4.001497  0  0  0.125345  0.124845  0  3.965592  0
C  C41  1  0.66471432  0.16378172  0.31156989  1  0  0.137193  0  3.74308  0  0  0.128353  0  3.980309  0  0  0.133292  0  4.001719  0  0  0.12527  0.124846  0  3.9658  0
C  C42  1  0.17308679  0.02424093  0.73529487  1  0  0.146723  0  3.682101  0  0  0.112906  0  3.936033  0  0  0.121809  0  3.951746  0  0  0.062592  0.107299  0  3.924768  0
C  C43  1  0.82690499  0.97576250  0.26470648  1  0  0.146813  0  3.681798  0  0  0.113007  0  3.935722  0  0  0.121909  0  3.951435  0  0  0.062597  0.107391  0  3.924475  0
C  C44  1  0.18024028  0.05264091  0.61333410  1  0  -0.121317  0  3.735553  0  0  -0.134159  0  3.99149  0  0  -0.141079  0  4.012368  0  0  -0.082971  -0.129922  0  3.977209  0
C  C45  1  0.81975127  0.94736432  0.38666991  1  0  -0.121424  0  3.735542  0  0  -0.134319  0  3.991526  0  0  -0.141236  0  4.012399  0  0  -0.083012  -0.130078  0  3.977248  0
C  C46  1  0.27495985  0.97066496  0.52721490  1  0  -0.048893  0  3.698904  0  0  -0.073659  0  3.947269  0  0  -0.07155  0  3.966023  0  0  -0.061149  -0.074545  0  3.934614  0
C  C47  1  0.72503693  0.02934297  0.47278404  1  0  -0.048996  0  3.699117  0  0  -0.073706  0  3.947522  0  0  -0.071597  0  3.966274  0  0  -0.061192  -0.074588  0  3.934865  0
C  C48  1  0.35906697  0.86002111  0.56304052  1  0  0.022174  0  3.800354  0  0  0.038622  0  4.033446  0  0  0.035673  0  4.058298  0  0  0.000519  0.04011  0  4.016883  0
C  C49  1  0.64092825  0.13998773  0.43695594  1  0  0.022303  0  3.800392  0  0  0.038726  0  4.033573  0  0  0.035779  0  4.058429  0  0  0.000643  0.040204  0  4.017026  0
C  C50  1  0.46562724  0.77302229  0.47892573  1  0  -0.092646  0  3.726979  0  0  -0.114993  0  3.980543  0  0  -0.117537  0  4.002196  0  0  -0.080311  -0.112836  0  3.965958  0
C  C51  1  0.53436360  0.22698745  0.52106772  1  0  -0.092643  0  3.727044  0  0  -0.114942  0  3.980635  0  0  -0.117488  0  4.002286  0  0  -0.080288  -0.112784  0  3.966052  0
C  C52  1  0.54068497  0.66611920  0.51760203  1  0  -0.096472  0  3.739991  0  0  -0.119451  0  3.995439  0  0  -0.122593  0  4.018295  0  0  -0.082281  -0.117522  0  3.980417  0
C  C53  1  0.45931076  0.33388604  0.48239264  1  0  -0.096367  0  3.740136  0  0  -0.119335  0  3.995567  0  0  -0.122479  0  4.018435  0  0  -0.082257  -0.117405  0  3.980544  0
C  C54  1  0.96777640  0.43988639  0.36022573  1  0  -0.061651  0  3.738692  0  0  -0.090516  0  3.992455  0  0  -0.088225  0  4.011127  0  0  -0.086225  -0.091507  0  3.979604  0
C  C55  1  0.03222995  0.56010440  0.63978195  1  0  -0.061317  0  3.738861  0  0  -0.090201  0  3.992597  0  0  -0.087904  0  4.011274  0  0  -0.086029  -0.091193  0  3.979739  0
C  C56  1  0.00694975  0.31823617  0.38458894  1  0  -0.075783  0  3.739558  0  0  -0.089355  0  3.99924  0  0  -0.09328  0  4.019716  0  0  -0.092781  -0.086837  0  3.985249  0
C  C57  1  0.99305389  0.68175372  0.61541553  1  0  -0.076043  0  3.739898  0  0  -0.089664  0  3.99961  0  0  -0.093592  0  4.020089  0  0  -0.09286  -0.087141  0  3.98561  0
C  C58  1  0.09423975  0.23955940  0.29150093  1  0  -0.024026  0  3.72716  0  0  -0.055933  0  3.983748  0  0  -0.052902  0  4.002627  0  0  -0.079412  -0.058051  0  3.97133  0
C  C59  1  0.90575810  0.76043140  0.70850335  1  0  -0.023932  0  3.727363  0  0  -0.055846  0  3.983871  0  0  -0.052822  0  4.002745  0  0  -0.079445  -0.057967  0  3.971446  0
C  C60  1  0.13759312  0.28095719  0.17289059  1  0  -0.230148  0  3.730582  0  0  -0.187245  0  3.977498  0  0  -0.197576  0  3.99822  0  0  -0.022736  -0.180452  0  3.963796  0
C  C61  1  0.86240433  0.71903631  0.82711105  1  0  -0.230075  0  3.730714  0  0  -0.187032  0  3.97735  0  0  -0.197363  0  3.99807  0  0  -0.022739  -0.18024  0  3.963647  0
C  C62  1  0.09643608  0.40328581  0.14875484  1  0  -0.032659  0  3.729657  0  0  -0.069816  0  3.976919  0  0  -0.066982  0  3.997215  0  0  -0.077675  -0.071755  0  3.963265  0
C  C63  1  0.90356858  0.59670679  0.85124949  1  0  -0.032779  0  3.729949  0  0  -0.070014  0  3.977191  0  0  -0.067158  0  3.99747  0  0  -0.07774  -0.071945  0  3.963528  0
C  C64  1  0.01559546  0.48238281  0.24282590  1  0  -0.122479  0  3.72953  0  0  -0.091163  0  3.97169  0  0  -0.099352  0  3.994354  0  0  -0.020384  -0.085917  0  3.956654  0
C  C65  1  0.98440909  0.51761068  0.75718197  1  0  -0.122582  0  3.729845  0  0  -0.091212  0  3.971912  0  0  -0.099415  0  3.994584  0  0  -0.020357  -0.085963  0  3.956868  0
S  S66  1  0.99549606  0.64194584  0.21954644  1  0  1.289655  0  5.656288  0  0  1.191897  0  6.175727  0  0  1.240492  0  6.151867  0  0  0.509587  1.158139  0  6.191559  0
S  S67  1  0.00451014  0.35804586  0.78045594  1  0  1.289391  0  5.656335  0  0  1.191677  0  6.175756  0  0  1.240278  0  6.151894  0  0  0.509484  1.157915  0  6.191595  0
N  N68  1  0.35584268  0.69201563  0.84611720  1  0  -0.35028  0  3.2188  0  0  -0.279859  0  3.469771  0  0  -0.299164  0  3.49169  0  0  -0.293076  -0.267291  0  3.45476  0
N  N69  1  0.64415448  0.30798960  0.15387907  1  0  -0.350314  0  3.218829  0  0  -0.279933  0  3.469792  0  0  -0.299235  0  3.49171  0  0  -0.29315  -0.267364  0  3.454776  0
N  N70  1  0.24627608  0.91929196  0.77166145  1  0  -0.33759  0  3.214752  0  0  -0.261761  0  3.460749  0  0  -0.280655  0  3.481093  0  0  -0.28595  -0.248497  0  3.446402  0
N  N71  1  0.75372415  0.08071147  0.22833358  1  0  -0.337555  0  3.214696  0  0  -0.261692  0  3.460703  0  0  -0.280587  0  3.481053  0  0  -0.285861  -0.248422  0  3.44635  0
O  O72  1  0.10975636  0.10411776  0.01213467  1  0  -0.889407  0  2.010679  0  0  -0.787691  0  2.269783  0  0  -0.819949  0  2.254248  0  0  -0.345684  -0.764905  0  2.279636  0
O  O73  1  0.89024376  0.89587666  0.98786311  1  0  -0.889364  0  2.010778  0  0  -0.787609  0  2.269817  0  0  -0.819868  0  2.254286  0  0  -0.345672  -0.764822  0  2.279679  0
O  O74  1  0.40815808  0.09666918  0.10535266  1  0  -0.869686  0  1.934766  0  0  -0.788654  0  2.186495  0  0  -0.818707  0  2.171698  0  0  -0.361163  -0.767086  0  2.195627  0
O  O75  1  0.59183925  0.90332523  0.89465164  1  0  -0.869595  0  1.934817  0  0  -0.788563  0  2.186566  0  0  -0.818613  0  2.171771  0  0  -0.361141  -0.766994  0  2.195713  0
O  O76  1  0.36079374  0.25486698  0.95104371  1  0  -0.770823  0  2.048444  0  0  -0.695865  0  2.275155  0  0  -0.718272  0  2.25051  0  0  -0.384526  -0.680145  0  2.291943  0
O  O77  1  0.63920733  0.74513102  0.04896277  1  0  -0.770845  0  2.048143  0  0  -0.695906  0  2.274949  0  0  -0.718319  0  2.250303  0  0  -0.384554  -0.680181  0  2.29174  0
O  O78  1  0.78969791  0.68072406  0.23270265  1  0  -0.676933  0  1.985803  0  0  -0.617175  0  2.229248  0  0  -0.640051  0  2.216797  0  0  -0.33828  -0.600956  0  2.236966  0
O  O79  1  0.21030854  0.31926583  0.76729884  1  0  -0.676586  0  1.985666  0  0  -0.61701  0  2.229183  0  0  -0.639881  0  2.216734  0  0  -0.338235  -0.600788  0  2.236896  0
O  O80  1  0.09799316  0.66059968  0.09658663  1  0  -0.705745  0  2.023259  0  0  -0.650617  0  2.292633  0  0  -0.674167  0  2.28044  0  0  -0.333087  -0.633947  0  2.300353  0
O  O81  1  0.90201045  0.33939022  0.90341343  1  0  -0.70568  0  2.023431  0  0  -0.650565  0  2.292776  0  0  -0.674114  0  2.280576  0  0  -0.333062  -0.633899  0  2.3005  0
O  O82  1  0.07976001  0.69318039  0.31354304  1  0  -0.660546  0  1.920043  0  0  -0.612753  0  2.161843  0  0  -0.633661  0  2.149137  0  0  -0.344263  -0.597973  0  2.169951  0
O  O83  1  0.92024936  0.30681852  0.68645448  1  0  -0.66053  0  1.920111  0  0  -0.612708  0  2.161879  0  0  -0.633619  0  2.149174  0  0  -0.344244  -0.59793  0  2.169989  0
