# generated using pymatgen
data_CaH6C4N8O9
_symmetry_space_group_name_H-M   'P 1'
_cell_length_a   6.41929981
_cell_length_b   8.10730142
_cell_length_c   11.11809247
_cell_angle_alpha   102.85525960
_cell_angle_beta   89.99989584
_cell_angle_gamma   90.00013530
_symmetry_Int_Tables_number   1
_chemical_formula_structural   CaH6C4N8O9
_chemical_formula_sum   'Ca2 H12 C8 N16 O18'
_cell_volume   564.11808590
_cell_formula_units_Z   2
loop_
 _symmetry_equiv_pos_site_id
 _symmetry_equiv_pos_as_xyz
  1  'x, y, z'
loop_
 _atom_site_type_symbol
 _atom_site_label
 _atom_site_symmetry_multiplicity
 _atom_site_fract_x
 _atom_site_fract_y
 _atom_site_fract_z
 _atom_site_occupancy
 _atom_site_hle17_bader_spin_density
 _atom_site_hle17_ddec_charge
 _atom_site_hle17_ddec_spin_density
 _atom_site_hle17_ddec_sum_bond_order
 _atom_site_hle17_magmom
 _atom_site_hse06_10hf_bader_spin_density
 _atom_site_hse06_10hf_ddec_charge
 _atom_site_hse06_10hf_ddec_spin_density
 _atom_site_hse06_10hf_ddec_sum_bond_order
 _atom_site_hse06_10hf_magmom
 _atom_site_hse06_bader_spin_density
 _atom_site_hse06_ddec_charge
 _atom_site_hse06_ddec_spin_density
 _atom_site_hse06_ddec_sum_bond_order
 _atom_site_hse06_magmom
 _atom_site_pbe_bader_spin_density
 _atom_site_pbe_cm5_charge
 _atom_site_pbe_ddec_charge
 _atom_site_pbe_ddec_spin_density
 _atom_site_pbe_ddec_sum_bond_order
 _atom_site_pbe_magmom
Ca  Ca0  1  0.13788570  0.74999880  0.75000036  1  0  1.51881  0  1.076671  0  0  1.37134  0  1.437125  0  0  1.412473  0  1.395842  0  0  0.864893  1.340196  0  1.466493  0
Ca  Ca1  1  0.86211581  0.25000029  0.24999979  1  0  1.518795  0  1.076665  0  0  1.371328  0  1.43713  0  0  1.412459  0  1.39585  0  0  0.864891  1.340182  0  1.466501  0
H  H2  1  0.59034927  0.65344497  0.72752009  1  0  0.435529  0  0.858806  0  0  0.404127  0  0.924153  0  0  0.414822  0  0.908237  0  0  0.304122  0.396445  0  0.935592  0
H  H3  1  0.59034948  0.84655340  0.77247936  1  0  0.435427  0  0.858946  0  0  0.404067  0  0.924206  0  0  0.414761  0  0.908294  0  0  0.304107  0.39639  0  0.935634  0
H  H4  1  0.40964913  0.34655285  0.27247895  1  0  0.435562  0  0.858755  0  0  0.404159  0  0.924102  0  0  0.414853  0  0.908189  0  0  0.304131  0.396476  0  0.935544  0
H  H5  1  0.40965047  0.15344443  0.22752058  1  0  0.435415  0  0.858958  0  0  0.404073  0  0.924183  0  0  0.414765  0  0.908276  0  0  0.304121  0.396401  0  0.9356  0
H  H6  1  0.82644108  0.01625881  0.72640733  1  0  0.429984  0  0.862331  0  0  0.394881  0  0.937077  0  0  0.404468  0  0.922868  0  0  0.307737  0.388044  0  0.947193  0
H  H7  1  0.82644013  0.48374271  0.77359335  1  0  0.429974  0  0.862369  0  0  0.394877  0  0.937089  0  0  0.404465  0  0.92288  0  0  0.307732  0.388039  0  0.947205  0
H  H8  1  0.17355732  0.98374028  0.27359191  1  0  0.42999  0  0.862344  0  0  0.394892  0  0.937064  0  0  0.404478  0  0.922859  0  0  0.307743  0.388057  0  0.947177  0
H  H9  1  0.17355827  0.51625891  0.22640810  1  0  0.429962  0  0.862385  0  0  0.394861  0  0.937112  0  0  0.404447  0  0.922905  0  0  0.307725  0.388022  0  0.947232  0
H  H10  1  0.84683720  0.03789801  0.87147289  1  0  0.430137  0  0.869752  0  0  0.388459  0  0.951765  0  0  0.400779  0  0.933633  0  0  0.300747  0.379717  0  0.964597  0
H  H11  1  0.84683974  0.46210228  0.62852847  1  0  0.430153  0  0.869734  0  0  0.388463  0  0.951767  0  0  0.400783  0  0.933635  0  0  0.300748  0.37972  0  0.964599  0
H  H12  1  0.15316120  0.96210235  0.12852746  1  0  0.430139  0  0.869746  0  0  0.388461  0  0.951756  0  0  0.400781  0  0.933626  0  0  0.300752  0.379715  0  0.964596  0
H  H13  1  0.15316178  0.53789681  0.37147167  1  0  0.43019  0  0.869694  0  0  0.388421  0  0.951829  0  0  0.40074  0  0.9337  0  0  0.300718  0.379678  0  0.964663  0
C  C14  1  0.26272419  0.10666557  0.58102036  1  0  0.276413  0  3.828088  0  0  0.246959  0  4.129396  0  0  0.258838  0  4.141086  0  0  0.221108  0.238934  0  4.121627  0
C  C15  1  0.26272565  0.39333500  0.91898079  1  0  0.276317  0  3.828149  0  0  0.246955  0  4.129338  0  0  0.258836  0  4.14103  0  0  0.221082  0.238921  0  4.121578  0
C  C16  1  0.73727421  0.89333352  0.41897888  1  0  0.276409  0  3.828012  0  0  0.246935  0  4.129335  0  0  0.258815  0  4.141026  0  0  0.221055  0.238906  0  4.121575  0
C  C17  1  0.73727275  0.60666535  0.08101776  1  0  0.276199  0  3.828218  0  0  0.246933  0  4.1293  0  0  0.25881  0  4.140993  0  0  0.221076  0.238896  0  4.121551  0
C  C18  1  0.28388542  0.24896559  0.68487691  1  0  0.082583  0  3.733169  0  0  0.06905  0  4.003527  0  0  0.073027  0  4.014133  0  0  0.13316  0.06628  0  3.996568  0
C  C19  1  0.28388523  0.25103375  0.81512402  1  0  0.082594  0  3.733195  0  0  0.069026  0  4.003562  0  0  0.073001  0  4.014166  0  0  0.133147  0.066261  0  3.996602  0
C  C20  1  0.71611453  0.75103350  0.31512143  1  0  0.082667  0  3.733035  0  0  0.069147  0  4.003407  0  0  0.073123  0  4.014013  0  0  0.133232  0.066382  0  3.996456  0
C  C21  1  0.71611473  0.74896281  0.18487482  1  0  0.082768  0  3.733099  0  0  0.069121  0  4.003501  0  0  0.073098  0  4.014109  0  0  0.13322  0.06635  0  3.996557  0
N  N22  1  0.31719617  0.38688825  0.64377587  1  0  -0.139944  0  2.75425  0  0  -0.137912  0  3.032733  0  0  -0.133953  0  3.0367  0  0  -0.166771  -0.140632  0  3.030153  0
N  N23  1  0.31719390  0.11311115  0.85622503  1  0  -0.139919  0  2.754253  0  0  -0.137909  0  3.032792  0  0  -0.133948  0  3.036759  0  0  -0.166765  -0.140648  0  3.03021  0
N  N24  1  0.68280223  0.61310958  0.35622407  1  0  -0.140085  0  2.75422  0  0  -0.138054  0  3.032726  0  0  -0.134094  0  3.036696  0  0  -0.166865  -0.140785  0  3.030157  0
N  N25  1  0.68280762  0.88688794  0.14377331  1  0  -0.140014  0  2.7542  0  0  -0.138006  0  3.032798  0  0  -0.134044  0  3.036767  0  0  -0.166842  -0.140753  0  3.030223  0
N  N26  1  0.28668187  0.16246891  0.47824069  1  0  -0.19162  0  2.693959  0  0  -0.199494  0  2.98778  0  0  -0.200259  0  2.994198  0  0  -0.189551  -0.199477  0  2.98384  0
N  N27  1  0.28668281  0.33753196  0.02176135  1  0  -0.191627  0  2.693938  0  0  -0.199504  0  2.987715  0  0  -0.200272  0  2.994135  0  0  -0.189538  -0.199499  0  2.983771  0
N  N28  1  0.71331809  0.83753144  0.52175875  1  0  -0.191631  0  2.69396  0  0  -0.199486  0  2.987758  0  0  -0.200255  0  2.994181  0  0  -0.189526  -0.199466  0  2.983815  0
N  N29  1  0.71331715  0.66246840  0.97823810  1  0  -0.191596  0  2.693926  0  0  -0.199475  0  2.987634  0  0  -0.200243  0  2.994058  0  0  -0.189507  -0.19947  0  2.983679  0
N  N30  1  0.21581684  0.94733711  0.59544566  1  0  -0.437971  0  2.958244  0  0  -0.42855  0  3.261219  0  0  -0.446294  0  3.270664  0  0  -0.251059  -0.416209  0  3.254526  0
N  N31  1  0.21581736  0.55266190  0.90455519  1  0  -0.4379  0  2.958198  0  0  -0.42851  0  3.261151  0  0  -0.446247  0  3.270575  0  0  -0.251011  -0.416163  0  3.25445  0
N  N32  1  0.78418312  0.05266198  0.40455358  1  0  -0.437863  0  2.958223  0  0  -0.428414  0  3.261176  0  0  -0.446153  0  3.270613  0  0  -0.250943  -0.416074  0  3.254484  0
N  N33  1  0.78417948  0.44733846  0.09544425  1  0  -0.437874  0  2.958182  0  0  -0.428491  0  3.261066  0  0  -0.446232  0  3.270508  0  0  -0.251051  -0.416148  0  3.254364  0
N  N34  1  0.20420028  0.82403628  0.49611818  1  0  0.629992  0  4.015994  0  0  0.642915  0  4.327651  0  0  0.667559  0  4.339279  0  0  0.1057  0.62642  0  4.319344  0
N  N35  1  0.20420237  0.67596549  0.00388221  1  0  0.630002  0  4.015845  0  0  0.642958  0  4.327483  0  0  0.667605  0  4.339107  0  0  0.105711  0.62646  0  4.319178  0
N  N36  1  0.79579968  0.17596407  0.50388127  1  0  0.629832  0  4.016093  0  0  0.642769  0  4.327747  0  0  0.667416  0  4.339371  0  0  0.10556  0.626275  0  4.319436  0
N  N37  1  0.79579603  0.32403360  0.99611703  1  0  0.629902  0  4.016067  0  0  0.642869  0  4.327697  0  0  0.667517  0  4.339321  0  0  0.105662  0.626385  0  4.319375  0
O  O38  1  0.32160020  0.33537139  0.51738378  1  0  0.016427  0  2.301129  0  0  0.085764  0  2.546169  0  0  0.071752  0  2.552829  0  0  0.083049  0.095508  0  2.541364  0
O  O39  1  0.32159925  0.16462801  0.98261712  1  0  0.016442  0  2.301077  0  0  0.085756  0  2.546153  0  0  0.071745  0  2.552814  0  0  0.083037  0.095539  0  2.541324  0
O  O40  1  0.67839820  0.66462770  0.48261546  1  0  0.016473  0  2.301107  0  0  0.085808  0  2.546139  0  0  0.071799  0  2.552798  0  0  0.083086  0.095563  0  2.541325  0
O  O41  1  0.67840071  0.83537234  0.01738233  1  0  0.016447  0  2.301128  0  0  0.085762  0  2.546202  0  0  0.071748  0  2.552867  0  0  0.083038  0.095559  0  2.541362  0
O  O42  1  0.23732245  0.83685913  0.38741049  1  0  -0.43814  0  1.809516  0  0  -0.407297  0  2.033206  0  0  -0.421996  0  2.03019  0  0  -0.152073  -0.397107  0  2.035321  0
O  O43  1  0.23732574  0.66314270  0.11258898  1  0  -0.438121  0  1.809507  0  0  -0.407298  0  2.0332  0  0  -0.421995  0  2.030179  0  0  -0.15208  -0.397115  0  2.035327  0
O  O44  1  0.76267439  0.16314122  0.61258896  1  0  -0.438123  0  1.809526  0  0  -0.407283  0  2.033217  0  0  -0.421982  0  2.030198  0  0  -0.152075  -0.397096  0  2.035333  0
O  O45  1  0.76267111  0.33685513  0.88740916  1  0  -0.438084  0  1.809665  0  0  -0.407264  0  2.033334  0  0  -0.421962  0  2.030314  0  0  -0.152036  -0.397078  0  2.035444  0
O  O46  1  0.15390016  0.67943621  0.51839788  1  0  -0.519147  0  1.796766  0  0  -0.488173  0  2.03428  0  0  -0.50736  0  2.02888  0  0  -0.198394  -0.474453  0  2.037681  0
O  O47  1  0.15389966  0.82056522  0.98160163  1  0  -0.519138  0  1.796676  0  0  -0.488238  0  2.034221  0  0  -0.507429  0  2.028819  0  0  -0.198417  -0.474513  0  2.037616  0
O  O48  1  0.84610447  0.32056288  0.48160136  1  0  -0.519064  0  1.796742  0  0  -0.488165  0  2.034299  0  0  -0.507354  0  2.028897  0  0  -0.198366  -0.474439  0  2.037688  0
O  O49  1  0.84609874  0.17943513  0.01839871  1  0  -0.519061  0  1.796683  0  0  -0.488192  0  2.034245  0  0  -0.507383  0  2.028845  0  0  -0.198385  -0.474477  0  2.037642  0
O  O50  1  0.49420026  0.74999910  0.74999931  1  0  -0.917297  0  1.916869  0  0  -0.880234  0  2.137979  0  0  -0.900152  0  2.104705  0  0  -0.658521  -0.865507  0  2.161211  0
O  O51  1  0.50579969  0.24999999  0.25000083  1  0  -0.917308  0  1.916847  0  0  -0.880246  0  2.137959  0  0  -0.900162  0  2.104688  0  0  -0.658534  -0.865516  0  2.161189  0
O  O52  1  0.85200743  0.95383358  0.79125162  1  0  -0.874978  0  1.889032  0  0  -0.816232  0  2.090141  0  0  -0.837496  0  2.057932  0  0  -0.600947  -0.800777  0  2.11262  0
O  O53  1  0.85201008  0.54616649  0.70874961  1  0  -0.875018  0  1.889061  0  0  -0.816259  0  2.090179  0  0  -0.837526  0  2.057968  0  0  -0.600959  -0.800801  0  2.112663  0
O  O54  1  0.14799097  0.04616551  0.20874762  1  0  -0.874976  0  1.889057  0  0  -0.816246  0  2.090162  0  0  -0.837506  0  2.057955  0  0  -0.600963  -0.800782  0  2.112642  0
O  O55  1  0.14799299  0.45383386  0.29125163  1  0  -0.875036  0  1.889033  0  0  -0.816203  0  2.090281  0  0  -0.837465  0  2.058075  0  0  -0.600916  -0.800734  0  2.112761  0
