# generated using pymatgen
data_AgBH9C7S2N3F4
_symmetry_space_group_name_H-M   'P 1'
_cell_length_a   7.32042856
_cell_length_b   8.71864003
_cell_length_c   11.13945479
_cell_angle_alpha   79.77890606
_cell_angle_beta   78.57565864
_cell_angle_gamma   68.31501240
_symmetry_Int_Tables_number   1
_chemical_formula_structural   AgBH9C7S2N3F4
_chemical_formula_sum   'Ag2 B2 H18 C14 S4 N6 F8'
_cell_volume   643.30531520
_cell_formula_units_Z   2
loop_
 _symmetry_equiv_pos_site_id
 _symmetry_equiv_pos_as_xyz
  1  'x, y, z'
loop_
 _atom_site_type_symbol
 _atom_site_label
 _atom_site_symmetry_multiplicity
 _atom_site_fract_x
 _atom_site_fract_y
 _atom_site_fract_z
 _atom_site_occupancy
 _atom_site_hle17_bader_spin_density
 _atom_site_hle17_ddec_charge
 _atom_site_hle17_ddec_spin_density
 _atom_site_hle17_ddec_sum_bond_order
 _atom_site_hle17_magmom
 _atom_site_hse06_10hf_bader_spin_density
 _atom_site_hse06_10hf_ddec_charge
 _atom_site_hse06_10hf_ddec_spin_density
 _atom_site_hse06_10hf_ddec_sum_bond_order
 _atom_site_hse06_10hf_magmom
 _atom_site_hse06_bader_spin_density
 _atom_site_hse06_ddec_charge
 _atom_site_hse06_ddec_spin_density
 _atom_site_hse06_ddec_sum_bond_order
 _atom_site_hse06_magmom
 _atom_site_pbe_bader_spin_density
 _atom_site_pbe_cm5_charge
 _atom_site_pbe_ddec_charge
 _atom_site_pbe_ddec_spin_density
 _atom_site_pbe_ddec_sum_bond_order
 _atom_site_pbe_magmom
Ag  Ag0  1  0.46136316  0.62882181  0.35092546  1  0  0.581092  0  1.513961  0  0  0.443121  0  1.989578  0  0  0.466778  0  1.940839  0  0  0.518869  0.427366  0  2.023047  0
Ag  Ag1  1  0.53862481  0.37115832  0.64908818  1  0  0.581155  0  1.513758  0  0  0.443131  0  1.989409  0  0  0.466776  0  1.940682  0  0  0.518791  0.427371  0  2.022882  0
B  B2  1  0.63773301  0.29491561  0.15044872  1  0  1.236165  0  2.850435  0  0  1.062261  0  3.247393  0  0  1.103161  0  3.195224  0  0  0.030291  1.033283  0  3.284537  0
B  B3  1  0.36224501  0.70512050  0.84954395  1  0  1.236227  0  2.850097  0  0  1.062274  0  3.247259  0  0  1.103193  0  3.194975  0  0  0.0302  1.033271  0  3.284465  0
H  H4  1  0.16572987  0.34097815  0.81736251  1  0  0.130807  0  0.947838  0  0  0.152096  0  1.009218  0  0  0.153628  0  1.009349  0  0  0.100962  0.150965  0  1.00916  0
H  H5  1  0.83424409  0.65902181  0.18265376  1  0  0.130759  0  0.947985  0  0  0.152016  0  1.0094  0  0  0.153547  0  1.00952  0  0  0.100944  0.150885  0  1.009346  0
H  H6  1  0.90021806  0.44195368  0.84054932  1  0  0.158837  0  0.935257  0  0  0.174395  0  0.997405  0  0  0.17724  0  0.995382  0  0  0.102986  0.172355  0  0.99885  0
H  H7  1  0.09976379  0.55806383  0.15946972  1  0  0.158792  0  0.935167  0  0  0.174356  0  0.997301  0  0  0.177193  0  0.995265  0  0  0.102974  0.172315  0  0.998751  0
H  H8  1  0.05974663  0.53284891  0.87952413  1  0  0.153068  0  0.93491  0  0  0.172695  0  0.992391  0  0  0.174706  0  0.991734  0  0  0.108053  0.17133  0  0.992665  0
H  H9  1  0.94025285  0.46715003  0.12048802  1  0  0.153204  0  0.934891  0  0  0.172738  0  0.992435  0  0  0.174747  0  0.991781  0  0  0.10809  0.171378  0  0.99271  0
H  H10  1  0.68236489  0.96238583  0.27243218  1  0  0.128171  0  0.934762  0  0  0.14131  0  0.993096  0  0  0.143301  0  0.991542  0  0  0.107632  0.139675  0  0.994538  0
H  H11  1  0.31769507  0.03761478  0.72753675  1  0  0.127954  0  0.935088  0  0  0.141203  0  0.993281  0  0  0.143176  0  0.991745  0  0  0.107484  0.139559  0  0.994728  0
H  H12  1  0.68323400  0.78599496  0.38253702  1  0  0.074107  0  1.002659  0  0  0.081936  0  1.087174  0  0  0.083527  0  1.085597  0  0  0.084828  0.080692  0  1.088397  0
H  H13  1  0.31678043  0.21400771  0.61742864  1  0  0.074195  0  1.002751  0  0  0.082096  0  1.087189  0  0  0.08368  0  1.085622  0  0  0.084891  0.080854  0  1.088409  0
H  H14  1  0.57832783  0.14434318  0.44682877  1  0  0.091695  0  0.955757  0  0  0.098514  0  1.027998  0  0  0.10218  0  1.024995  0  0  0.094306  0.095796  0  1.030345  0
H  H15  1  0.42168416  0.85566196  0.55313417  1  0  0.091775  0  0.955791  0  0  0.098579  0  1.028018  0  0  0.102257  0  1.024998  0  0  0.094304  0.095831  0  1.030395  0
H  H16  1  0.06393849  0.14765129  0.10630726  1  0  0.165396  0  0.949167  0  0  0.177953  0  1.014233  0  0  0.180937  0  1.011822  0  0  0.111734  0.175699  0  1.016045  0
H  H17  1  0.93607059  0.85231533  0.89371448  1  0  0.16535  0  0.949248  0  0  0.177898  0  1.014302  0  0  0.180908  0  1.011856  0  0  0.111791  0.175641  0  1.016113  0
H  H18  1  0.22408621  0.05717167  0.97303812  1  0  0.165983  0  0.924504  0  0  0.184114  0  0.978303  0  0  0.186389  0  0.977013  0  0  0.115733  0.182263  0  0.97946  0
H  H19  1  0.77591047  0.94280104  0.02697272  1  0  0.165964  0  0.924448  0  0  0.18409  0  0.978276  0  0  0.186406  0  0.976945  0  0  0.1157  0.18224  0  0.979441  0
H  H20  1  0.29128682  0.18898797  0.04976274  1  0  0.171907  0  0.918164  0  0  0.190099  0  0.970553  0  0  0.192314  0  0.969609  0  0  0.118347  0.188359  0  0.971391  0
H  H21  1  0.70872845  0.81098366  0.95024670  1  0  0.171796  0  0.918303  0  0  0.190081  0  0.970576  0  0  0.192271  0  0.969674  0  0  0.11831  0.188334  0  0.971424  0
C  C22  1  0.04341130  0.46082172  0.81314522  1  0  -0.380019  0  3.68142  0  0  -0.46011  0  3.918694  0  0  -0.464699  0  3.92562  0  0  -0.231894  -0.45661  0  3.913559  0
C  C23  1  0.95657775  0.53918213  0.18687120  1  0  -0.380058  0  3.68147  0  0  -0.459988  0  3.918854  0  0  -0.46456  0  3.925788  0  0  -0.231864  -0.456485  0  3.913702  0
C  C24  1  0.06043784  0.55002646  0.68724209  1  0  0.249765  0  3.667269  0  0  0.240072  0  3.957777  0  0  0.252213  0  3.972747  0  0  0.139837  0.231953  0  3.947535  0
C  C25  1  0.93954411  0.44997107  0.31276988  1  0  0.249902  0  3.667155  0  0  0.240012  0  3.957916  0  0  0.252135  0  3.972921  0  0  0.139789  0.23189  0  3.947681  0
C  C26  1  0.02087923  0.72855133  0.49502807  1  0  0.070326  0  3.810149  0  0  0.059066  0  4.121569  0  0  0.070945  0  4.137637  0  0  0.114005  0.051145  0  4.110459  0
C  C27  1  0.97910689  0.27144624  0.50498334  1  0  0.070336  0  3.810381  0  0  0.059127  0  4.121722  0  0  0.070986  0  4.137821  0  0  0.113932  0.051199  0  4.110622  0
C  C28  1  0.70407185  0.90683275  0.36745595  1  0  -0.153213  0  3.710113  0  0  -0.185133  0  3.957064  0  0  -0.184577  0  3.969227  0  0  -0.150383  -0.185413  0  3.948862  0
C  C29  1  0.29595425  0.09316880  0.63251731  1  0  -0.153338  0  3.710421  0  0  -0.185423  0  3.957543  0  0  -0.184864  0  3.96971  0  0  -0.150443  -0.185708  0  3.949338  0
C  C30  1  0.56687706  0.02097850  0.45657186  1  0  -0.077575  0  3.762185  0  0  -0.093033  0  4.020987  0  0  -0.096279  0  4.043997  0  0  -0.105548  -0.090625  0  4.005124  0
C  C31  1  0.43313876  0.97902418  0.54339272  1  0  -0.07745  0  3.762201  0  0  -0.092928  0  4.021056  0  0  -0.096177  0  4.044056  0  0  -0.105417  -0.09049  0  4.005211  0
C  C32  1  0.32480806  0.95246259  0.14026833  1  0  0.460134  0  3.683307  0  0  0.439918  0  3.967995  0  0  0.454868  0  3.983091  0  0  0.225221  0.429429  0  3.958164  0
C  C33  1  0.67521659  0.04750662  0.85973662  1  0  0.460326  0  3.683266  0  0  0.44009  0  3.967983  0  0  0.455035  0  3.983103  0  0  0.22517  0.429595  0  3.958145  0
C  C34  1  0.21907623  0.09572347  0.06259709  1  0  -0.392491  0  3.707017  0  0  -0.457426  0  3.929139  0  0  -0.461906  0  3.933333  0  0  -0.207817  -0.454058  0  3.926745  0
C  C35  1  0.78093209  0.90424810  0.93741148  1  0  -0.392274  0  3.706955  0  0  -0.457291  0  3.929079  0  0  -0.4618  0  3.933257  0  0  -0.20774  -0.453929  0  3.926711  0
S  S36  1  0.96607514  0.87089301  0.36640280  1  0  0.078201  0  2.442132  0  0  0.074084  0  2.788968  0  0  0.067513  0  2.789591  0  0  0.054633  0.078553  0  2.788491  0
S  S37  1  0.03394712  0.12909487  0.63359624  1  0  0.078306  0  2.44208  0  0  0.074144  0  2.788995  0  0  0.067605  0  2.789589  0  0  0.054636  0.078614  0  2.788517  0
S  S38  1  0.86005859  0.70243294  0.62717550  1  0  0.165777  0  2.460911  0  0  0.175837  0  2.778385  0  0  0.172948  0  2.780793  0  0  0.16178  0.177  0  2.777175  0
S  S39  1  0.13992595  0.29756836  0.37283739  1  0  0.165776  0  2.461104  0  0  0.175912  0  2.778619  0  0  0.173034  0  2.781045  0  0  0.161848  0.177077  0  2.777417  0
N  N40  1  0.20652149  0.62721131  0.50103223  1  0  -0.252952  0  3.304914  0  0  -0.203796  0  3.626086  0  0  -0.216518  0  3.637564  0  0  -0.257164  -0.195267  0  3.618246  0
N  N41  1  0.79346450  0.37278003  0.49898277  1  0  -0.25311  0  3.304752  0  0  -0.203933  0  3.62588  0  0  -0.216657  0  3.637376  0  0  -0.257121  -0.195394  0  3.618033  0
N  N42  1  0.22781795  0.52770434  0.61102346  1  0  -0.24126  0  3.257552  0  0  -0.186944  0  3.564103  0  0  -0.200352  0  3.576631  0  0  -0.245579  -0.178125  0  3.555598  0
N  N43  1  0.77216090  0.47229067  0.38899017  1  0  -0.241305  0  3.257302  0  0  -0.186951  0  3.563892  0  0  -0.200375  0  3.576456  0  0  -0.245647  -0.17813  0  3.555385  0
N  N44  1  0.40701223  0.83695903  0.20425867  1  0  -0.494345  0  2.944999  0  0  -0.444947  0  3.255891  0  0  -0.462117  0  3.2593  0  0  -0.358859  -0.433649  0  3.254035  0
N  N45  1  0.59302161  0.16301151  0.79574578  1  0  -0.494585  0  2.945036  0  0  -0.445161  0  3.255947  0  0  -0.462336  0  3.25937  0  0  -0.35886  -0.433863  0  3.254089  0
F  F46  1  0.47042045  0.41602014  0.21035254  1  0  -0.523044  0  1.062975  0  0  -0.459465  0  1.270685  0  0  -0.473578  0  1.243503  0  0  -0.164607  -0.449287  0  1.289563  0
F  F47  1  0.52953422  0.58395972  0.78967450  1  0  -0.523049  0  1.062867  0  0  -0.45939  0  1.270524  0  0  -0.473534  0  1.243334  0  0  -0.164508  -0.449226  0  1.289413  0
F  F48  1  0.57369917  0.17228743  0.12133447  1  0  -0.527425  0  1.042788  0  0  -0.462631  0  1.219301  0  0  -0.4788  0  1.198775  0  0  -0.151889  -0.449935  0  1.232162  0
F  F49  1  0.42634835  0.82774540  0.87860371  1  0  -0.52733  0  1.042598  0  0  -0.46279  0  1.219366  0  0  -0.478744  0  1.198619  0  0  -0.151946  -0.44999  0  1.232119  0
F  F50  1  0.78046360  0.21593479  0.23348687  1  0  -0.528492  0  1.052754  0  0  -0.463146  0  1.236233  0  0  -0.479135  0  1.21729  0  0  -0.160645  -0.451648  0  1.249336  0
F  F51  1  0.21952445  0.78407769  0.76649975  1  0  -0.528511  0  1.052702  0  0  -0.463057  0  1.236112  0  0  -0.479122  0  1.217195  0  0  -0.160592  -0.451566  0  1.249214  0
F  F52  1  0.72666495  0.36785514  0.04402926  1  0  -0.510658  0  1.003574  0  0  -0.450801  0  1.17263  0  0  -0.46469  0  1.150348  0  0  -0.15479  -0.441221  0  1.188473  0
F  F53  1  0.27326690  0.63227671  0.95599099  1  0  -0.510764  0  1.003505  0  0  -0.450873  0  1.172567  0  0  -0.464777  0  1.150258  0  0  -0.15476  -0.441298  0  1.18842  0
