# generated using pymatgen
data_AgH10C12N5O3
_symmetry_space_group_name_H-M   'P 1'
_cell_length_a   7.89098877
_cell_length_b   9.34087020
_cell_length_c   9.91991349
_cell_angle_alpha   66.13752292
_cell_angle_beta   80.30640396
_cell_angle_gamma   69.51637350
_symmetry_Int_Tables_number   1
_chemical_formula_structural   AgH10C12N5O3
_chemical_formula_sum   'Ag2 H20 C24 N10 O6'
_cell_volume   626.09552961
_cell_formula_units_Z   2
loop_
 _symmetry_equiv_pos_site_id
 _symmetry_equiv_pos_as_xyz
  1  'x, y, z'
loop_
 _atom_site_type_symbol
 _atom_site_label
 _atom_site_symmetry_multiplicity
 _atom_site_fract_x
 _atom_site_fract_y
 _atom_site_fract_z
 _atom_site_occupancy
 _atom_site_hle17_bader_spin_density
 _atom_site_hle17_ddec_charge
 _atom_site_hle17_ddec_spin_density
 _atom_site_hle17_ddec_sum_bond_order
 _atom_site_hle17_magmom
 _atom_site_hse06_10hf_bader_spin_density
 _atom_site_hse06_10hf_ddec_charge
 _atom_site_hse06_10hf_ddec_spin_density
 _atom_site_hse06_10hf_ddec_sum_bond_order
 _atom_site_hse06_10hf_magmom
 _atom_site_hse06_bader_spin_density
 _atom_site_hse06_ddec_charge
 _atom_site_hse06_ddec_spin_density
 _atom_site_hse06_ddec_sum_bond_order
 _atom_site_hse06_magmom
 _atom_site_pbe_bader_spin_density
 _atom_site_pbe_cm5_charge
 _atom_site_pbe_ddec_charge
 _atom_site_pbe_ddec_spin_density
 _atom_site_pbe_ddec_sum_bond_order
 _atom_site_pbe_magmom
Ag  Ag0  1  0.15911082  0.61055505  0.30633964  1  0  0.517685  0  1.447992  0  0  0.373745  0  1.894925  0  0  0.401651  0  1.852485  0  0  0.484734  0.354531  0  1.923254  0
Ag  Ag1  1  0.84088784  0.38944338  0.69366268  1  0  0.517663  0  1.447967  0  0  0.373714  0  1.894902  0  0  0.401619  0  1.852463  0  0  0.484714  0.354489  0  1.923239  0
H  H2  1  0.13641752  0.45090746  0.14513255  1  0  0.113852  0  0.986547  0  0  0.113292  0  1.068325  0  0  0.118631  0  1.062355  0  0  0.099896  0.109281  0  1.07284  0
H  H3  1  0.86358327  0.54909221  0.85486798  1  0  0.113866  0  0.986551  0  0  0.113305  0  1.068329  0  0  0.118645  0  1.062361  0  0  0.099897  0.109297  0  1.072836  0
H  H4  1  0.39532574  0.25996752  0.06511792  1  0  0.088926  0  0.943872  0  0  0.103589  0  0.997024  0  0  0.105574  0  0.996912  0  0  0.102187  0.102527  0  0.996481  0
H  H5  1  0.60467206  0.74003337  0.93488256  1  0  0.08893  0  0.943855  0  0  0.103587  0  0.997009  0  0  0.105572  0  0.996897  0  0  0.102175  0.102524  0  0.996461  0
H  H6  1  0.53949877  0.35459815  0.81436995  1  0  0.080114  0  1.018193  0  0  0.083932  0  1.104122  0  0  0.088497  0  1.098833  0  0  0.090109  0.080525  0  1.108103  0
H  H7  1  0.46049858  0.64540025  0.18562853  1  0  0.080137  0  1.018159  0  0  0.083956  0  1.10409  0  0  0.088521  0  1.098801  0  0  0.090112  0.080548  0  1.108075  0
H  H8  1  0.18302739  0.84945328  0.73545071  1  0  0.130567  0  0.975642  0  0  0.138847  0  1.041326  0  0  0.142108  0  1.039278  0  0  0.115274  0.136309  0  1.043134  0
H  H9  1  0.81697126  0.15054514  0.26454960  1  0  0.130575  0  0.975659  0  0  0.138858  0  1.041341  0  0  0.142119  0  1.039294  0  0  0.115281  0.136324  0  1.043146  0
H  H10  1  0.86477760  0.92472535  0.78412134  1  0  0.128335  0  0.968149  0  0  0.138334  0  1.0299  0  0  0.141193  0  1.027016  0  0  0.129841  0.136473  0  1.031608  0
H  H11  1  0.13522233  0.07527679  0.21587835  1  0  0.128381  0  0.96813  0  0  0.138373  0  1.02988  0  0  0.141232  0  1.026998  0  0  0.12986  0.136513  0  1.031588  0
H  H12  1  0.63420723  0.09153389  0.95352101  1  0  0.115751  0  0.986195  0  0  0.12913  0  1.044419  0  0  0.131369  0  1.044871  0  0  0.105723  0.127567  0  1.044077  0
H  H13  1  0.36579272  0.90846454  0.04648112  1  0  0.11574  0  0.986212  0  0  0.129118  0  1.044436  0  0  0.131357  0  1.044889  0  0  0.105717  0.127555  0  1.044091  0
H  H14  1  0.78339861  0.92084741  0.22992257  1  0  0.105052  0  0.967288  0  0  0.116076  0  1.02784  0  0  0.117961  0  1.02619  0  0  0.121166  0.114875  0  1.028697  0
H  H15  1  0.21660262  0.07915102  0.77007838  1  0  0.105028  0  0.967289  0  0  0.116059  0  1.027834  0  0  0.117944  0  1.026184  0  0  0.121162  0.114859  0  1.028688  0
H  H16  1  0.23527022  0.89251649  0.51220686  1  0  0.117853  0  0.987671  0  0  0.12106  0  1.061534  0  0  0.124726  0  1.05718  0  0  0.122859  0.118512  0  1.06437  0
H  H17  1  0.76472927  0.10748315  0.48779184  1  0  0.117873  0  0.987547  0  0  0.121077  0  1.061418  0  0  0.124746  0  1.057061  0  0  0.122859  0.118529  0  1.064255  0
H  H18  1  0.46009911  0.90743664  0.26974457  1  0  0.118225  0  0.972699  0  0  0.134397  0  1.022231  0  0  0.13641  0  1.023577  0  0  0.108108  0.132897  0  1.021556  0
H  H19  1  0.53990297  0.09256304  0.73025678  1  0  0.118203  0  0.972684  0  0  0.134383  0  1.022212  0  0  0.136396  0  1.023557  0  0  0.108109  0.132884  0  1.021535  0
H  H20  1  0.75010877  0.62106230  0.36710274  1  0  0.108215  0  0.962964  0  0  0.117662  0  1.028501  0  0  0.120053  0  1.025982  0  0  0.119574  0.115919  0  1.030157  0
H  H21  1  0.24989201  0.37893736  0.63289679  1  0  0.108201  0  0.962994  0  0  0.117641  0  1.028537  0  0  0.12003  0  1.02602  0  0  0.119563  0.115895  0  1.030194  0
C  C22  1  0.14629774  0.66264105  0.94438769  1  0  0.181573  0  3.793862  0  0  0.163607  0  4.038505  0  0  0.169197  0  4.061228  0  0  0.09735  0.15925  0  4.023723  0
C  C23  1  0.85370262  0.33735984  0.05561141  1  0  0.181535  0  3.79399  0  0  0.163653  0  4.038532  0  0  0.169243  0  4.061254  0  0  0.097349  0.159294  0  4.023753  0
C  C24  1  0.20421734  0.49727295  0.03885569  1  0  -0.161758  0  3.739332  0  0  -0.184559  0  4.003318  0  0  -0.18893  0  4.021442  0  0  -0.096972  -0.181425  0  3.992117  0
C  C25  1  0.79578302  0.50272794  0.96114342  1  0  -0.161763  0  3.739398  0  0  -0.184599  0  4.00336  0  0  -0.188971  0  4.021481  0  0  -0.096981  -0.181469  0  3.99215  0
C  C26  1  0.34912322  0.38891210  0.99179466  1  0  -0.017923  0  3.760958  0  0  -0.02931  0  4.003635  0  0  -0.029369  0  4.026863  0  0  -0.084913  -0.029411  0  3.987675  0
C  C27  1  0.65087628  0.61108755  0.00820505  1  0  -0.017918  0  3.760946  0  0  -0.029282  0  4.003608  0  0  -0.029337  0  4.026832  0  0  -0.084878  -0.029375  0  3.987638  0
C  C28  1  0.43033037  0.44121884  0.85219312  1  0  -0.158657  0  3.749557  0  0  -0.179782  0  4.00557  0  0  -0.185305  0  4.026547  0  0  -0.095245  -0.175541  0  3.991171  0
C  C29  1  0.56966698  0.55877956  0.14780636  1  0  -0.158685  0  3.749588  0  0  -0.17982  0  4.005619  0  0  -0.18534  0  4.026597  0  0  -0.095266  -0.175583  0  3.991226  0
C  C30  1  0.36870121  0.60693163  0.75855210  1  0  0.196825  0  3.768  0  0  0.177314  0  4.011212  0  0  0.183823  0  4.033447  0  0  0.104165  0.17296  0  3.996228  0
C  C31  1  0.63129444  0.39306801  0.24144816  1  0  0.196863  0  3.76795  0  0  0.17731  0  4.011208  0  0  0.183819  0  4.033442  0  0  0.104172  0.172948  0  3.996239  0
C  C32  1  0.22848437  0.71935335  0.80562254  1  0  -0.223296  0  3.674204  0  0  -0.251367  0  3.930339  0  0  -0.257827  0  3.950896  0  0  -0.089563  -0.247448  0  3.917003  0
C  C33  1  0.77151341  0.28064752  0.19437593  1  0  -0.223322  0  3.674205  0  0  -0.251409  0  3.930322  0  0  -0.25787  0  3.95088  0  0  -0.089586  -0.247489  0  3.91699  0
C  C34  1  0.86800450  0.90539216  0.89928204  1  0  0.02238  0  3.631654  0  0  -0.038419  0  3.892119  0  0  -0.029447  0  3.904884  0  0  0.029129  -0.044019  0  3.883088  0
C  C35  1  0.13199459  0.09460874  0.10071926  1  0  0.022253  0  3.631749  0  0  -0.038544  0  3.892234  0  0  -0.029572  0  3.905  0  0  0.029063  -0.044147  0  3.883203  0
C  C36  1  0.75372154  0.98512621  0.98727043  1  0  -0.215256  0  3.788725  0  0  -0.233271  0  4.063069  0  0  -0.242436  0  4.083088  0  0  -0.11917  -0.227069  0  4.048521  0
C  C37  1  0.24627798  0.01487345  0.01273129  1  0  -0.215202  0  3.788721  0  0  -0.233213  0  4.063067  0  0  -0.242378  0  4.083088  0  0  -0.119144  -0.227005  0  4.048514  0
C  C38  1  0.82631882  0.89876493  0.12845256  1  0  0.062285  0  3.718513  0  0  0.019246  0  3.99183  0  0  0.028368  0  4.007103  0  0  0.019686  0.013377  0  3.980736  0
C  C39  1  0.17368069  0.10123473  0.87154815  1  0  0.062336  0  3.71851  0  0  0.019278  0  3.991824  0  0  0.0284  0  4.007098  0  0  0.01971  0.0134  0  3.980737  0
C  C40  1  0.36532043  0.80610841  0.50024754  1  0  0.032413  0  3.631303  0  0  -0.029019  0  3.892983  0  0  -0.018986  0  3.904122  0  0  0.026762  -0.035295  0  3.88397  0
C  C41  1  0.63467865  0.19389248  0.49975275  1  0  0.032362  0  3.631367  0  0  -0.029054  0  3.893011  0  0  -0.019021  0  3.904149  0  0  0.026765  -0.035322  0  3.883993  0
C  C42  1  0.48092760  0.81108767  0.37841796  1  0  -0.212191  0  3.787687  0  0  -0.22364  0  4.05168  0  0  -0.234173  0  4.072873  0  0  -0.115685  -0.216509  0  4.036487  0
C  C43  1  0.51907404  0.18891323  0.62158097  1  0  -0.212154  0  3.787743  0  0  -0.223624  0  4.051733  0  0  -0.234155  0  4.072924  0  0  -0.115709  -0.216491  0  4.036534  0
C  C44  1  0.62883317  0.66669318  0.42666713  1  0  0.07044  0  3.708181  0  0  0.022865  0  3.987336  0  0  0.032249  0  4.002813  0  0  0.019882  0.017472  0  3.975883  0
C  C45  1  0.37116591  0.33330771  0.57333316  1  0  0.070449  0  3.708141  0  0  0.022868  0  3.987299  0  0  0.03225  0  4.00278  0  0  0.019896  0.017484  0  3.97584  0
N  N46  1  0.99920842  0.77779197  0.98724938  1  0  0.030415  0  3.586451  0  0  0.148799  0  3.744539  0  0  0.138052  0  3.772764  0  0  -0.128974  0.155216  0  3.728053  0
N  N47  1  0.00079238  0.22220769  0.01275115  1  0  0.030448  0  3.586527  0  0  0.148779  0  3.744621  0  0  0.138032  0  3.772846  0  0  -0.128976  0.155205  0  3.728121  0
N  N48  1  0.97523811  0.77276031  0.12846746  1  0  -0.253411  0  3.193519  0  0  -0.200993  0  3.482689  0  0  -0.216353  0  3.497711  0  0  -0.263541  -0.190455  0  3.472226  0
N  N49  1  0.02476267  0.22723935  0.87153207  1  0  -0.253405  0  3.193502  0  0  -0.200942  0  3.482645  0  0  -0.216301  0  3.497667  0  0  -0.263519  -0.190406  0  3.472187  0
N  N50  1  0.44415175  0.66465512  0.61421731  1  0  0.033394  0  3.558242  0  0  0.148577  0  3.722453  0  0  0.13769  0  3.749455  0  0  -0.124972  0.15464  0  3.706294  0
N  N51  1  0.55584689  0.33534330  0.38578299  1  0  0.033408  0  3.558274  0  0  0.148613  0  3.722439  0  0  0.137725  0  3.749442  0  0  -0.124941  0.154667  0  3.7063  0
N  N52  1  0.60695361  0.57792767  0.56967050  1  0  -0.252075  0  3.159975  0  0  -0.201173  0  3.449248  0  0  -0.216572  0  3.464767  0  0  -0.264488  -0.190521  0  3.438038  0
N  N53  1  0.39304588  0.42207198  0.43032820  1  0  -0.252094  0  3.159955  0  0  -0.201176  0  3.449198  0  0  -0.216576  0  3.464717  0  0  -0.264508  -0.190527  0  3.437998  0
N  N54  1  0.93042326  0.77003973  0.54425147  1  0  0.694534  0  4.149305  0  0  0.722855  0  4.445624  0  0  0.750903  0  4.452696  0  0  0.092358  0.706062  0  4.439904  0
N  N55  1  0.06957711  0.22996118  0.45574964  1  0  0.69442  0  4.149444  0  0  0.722768  0  4.445722  0  0  0.750814  0  4.452798  0  0  0.092329  0.705972  0  4.440006  0
O  O56  1  0.02146609  0.62044555  0.56254970  1  0  -0.500534  0  1.843398  0  0  -0.476132  0  2.103841  0  0  -0.493372  0  2.093394  0  0  -0.211257  -0.464049  0  2.110499  0
O  O57  1  0.97853429  0.37955536  0.43745241  1  0  -0.500483  0  1.843415  0  0  -0.47608  0  2.103831  0  0  -0.493326  0  2.093401  0  0  -0.211221  -0.463993  0  2.11049  0
O  O58  1  0.94282521  0.88340832  0.42073429  1  0  -0.495385  0  1.768684  0  0  -0.482172  0  1.99818  0  0  -0.497698  0  1.991074  0  0  -0.202924  -0.472363  0  2.002608  0
O  O59  1  0.05717388  0.11659257  0.57926601  1  0  -0.495348  0  1.768702  0  0  -0.482135  0  1.998181  0  0  -0.497656  0  1.991069  0  0  -0.202915  -0.472319  0  2.002607  0
O  O60  1  0.83060927  0.80271684  0.64799324  1  0  -0.458334  0  1.745911  0  0  -0.443477  0  1.954891  0  0  -0.45798  0  1.950538  0  0  -0.191085  -0.434275  0  1.957258  0
O  O61  1  0.16938811  0.19728529  0.35200782  1  0  -0.458314  0  1.745998  0  0  -0.443476  0  1.954963  0  0  -0.457969  0  1.950593  0  0  -0.191103  -0.434274  0  1.957335  0
