# generated using pymatgen
data_CdH9C8NO7
_symmetry_space_group_name_H-M   'P 1'
_cell_length_a   5.59517000
_cell_length_b   6.52057118
_cell_length_c   14.44952605
_cell_angle_alpha   93.61202116
_cell_angle_beta   97.88210076
_cell_angle_gamma   103.91432028
_symmetry_Int_Tables_number   1
_chemical_formula_structural   CdH9C8NO7
_chemical_formula_sum   'Cd2 H18 C16 N2 O14'
_cell_volume   504.33709676
_cell_formula_units_Z   2
loop_
 _symmetry_equiv_pos_site_id
 _symmetry_equiv_pos_as_xyz
  1  'x, y, z'
loop_
 _atom_site_type_symbol
 _atom_site_label
 _atom_site_symmetry_multiplicity
 _atom_site_fract_x
 _atom_site_fract_y
 _atom_site_fract_z
 _atom_site_occupancy
 _atom_site_hle17_bader_spin_density
 _atom_site_hle17_ddec_charge
 _atom_site_hle17_ddec_spin_density
 _atom_site_hle17_ddec_sum_bond_order
 _atom_site_hle17_magmom
 _atom_site_hse06_10hf_bader_spin_density
 _atom_site_hse06_10hf_ddec_charge
 _atom_site_hse06_10hf_ddec_spin_density
 _atom_site_hse06_10hf_ddec_sum_bond_order
 _atom_site_hse06_10hf_magmom
 _atom_site_hse06_bader_spin_density
 _atom_site_hse06_ddec_charge
 _atom_site_hse06_ddec_spin_density
 _atom_site_hse06_ddec_sum_bond_order
 _atom_site_hse06_magmom
 _atom_site_pbe_bader_spin_density
 _atom_site_pbe_cm5_charge
 _atom_site_pbe_ddec_charge
 _atom_site_pbe_ddec_spin_density
 _atom_site_pbe_ddec_sum_bond_order
 _atom_site_pbe_magmom
Cd  Cd0  1  0.46663611  0.74014182  0.34858681  1  0  1.317225  0  1.547543  0  0  1.149065  0  1.989378  0  0  1.201941  0  1.930405  0  0  0.787774  1.111009  0  2.030331  0
Cd  Cd1  1  0.53336422  0.25985755  0.65141290  1  0  1.317201  0  1.547581  0  0  1.14906  0  1.98942  0  0  1.201938  0  1.930447  0  0  0.787778  1.111007  0  2.030375  0
H  H2  1  0.11523556  0.05678069  0.17460868  1  0  0.114041  0  0.975086  0  0  0.115977  0  1.052481  0  0  0.120315  0  1.04878  0  0  0.109717  0.112822  0  1.055251  0
H  H3  1  0.88476222  0.94321074  0.82539069  1  0  0.114061  0  0.975109  0  0  0.115995  0  1.052496  0  0  0.120331  0  1.048794  0  0  0.109723  0.112843  0  1.055265  0
H  H4  1  0.51315364  0.27176703  0.95086198  1  0  0.1167  0  0.925621  0  0  0.127833  0  0.981889  0  0  0.131316  0  0.980273  0  0  0.112896  0.125332  0  0.983115  0
H  H5  1  0.48683617  0.72822776  0.04913769  1  0  0.116702  0  0.925607  0  0  0.127847  0  0.981864  0  0  0.131333  0  0.98024  0  0  0.112886  0.125341  0  0.983091  0
H  H6  1  0.89513829  0.44618144  0.06947522  1  0  0.101991  0  0.935923  0  0  0.112587  0  0.995688  0  0  0.11553  0  0.9945  0  0  0.106089  0.110456  0  0.996677  0
H  H7  1  0.10485540  0.55381964  0.93052343  1  0  0.102032  0  0.935912  0  0  0.112604  0  0.995707  0  0  0.115546  0  0.99452  0  0  0.106123  0.110474  0  0.996696  0
H  H8  1  0.29005033  0.62182791  0.51960777  1  0  0.425606  0  0.876373  0  0  0.393218  0  0.944733  0  0  0.404492  0  0.928379  0  0  0.291919  0.385222  0  0.956322  0
H  H9  1  0.70995225  0.37817304  0.48039349  1  0  0.425646  0  0.876355  0  0  0.393254  0  0.9447  0  0  0.404528  0  0.928346  0  0  0.291916  0.385255  0  0.956295  0
H  H10  1  0.10973839  0.50769571  0.42659208  1  0  0.410408  0  0.882278  0  0  0.37773  0  0.963613  0  0  0.388285  0  0.949464  0  0  0.293819  0.370234  0  0.971942  0
H  H11  1  0.89025983  0.49230851  0.57340900  1  0  0.410409  0  0.882284  0  0  0.377725  0  0.963652  0  0  0.388279  0  0.949493  0  0  0.293779  0.37023  0  0.971979  0
H  H12  1  0.86575248  0.02956460  0.28984937  1  0  0.427836  0  0.868268  0  0  0.393727  0  0.940353  0  0  0.404754  0  0.924509  0  0  0.290886  0.38587  0  0.951629  0
H  H13  1  0.13425087  0.97043313  0.71015187  1  0  0.427817  0  0.868311  0  0  0.393697  0  0.940401  0  0  0.404724  0  0.924557  0  0  0.290869  0.385841  0  0.951676  0
H  H14  1  0.90392454  0.80076753  0.25747755  1  0  0.427931  0  0.870777  0  0  0.39651  0  0.935801  0  0  0.407135  0  0.920314  0  0  0.291116  0.388942  0  0.94682  0
H  H15  1  0.09607831  0.19922862  0.74252362  1  0  0.427951  0  0.870756  0  0  0.396537  0  0.935763  0  0  0.407162  0  0.920279  0  0  0.291136  0.388966  0  0.946788  0
H  H16  1  0.72324274  0.87213665  0.54241243  1  0  0.433947  0  0.865192  0  0  0.40057  0  0.931464  0  0  0.412218  0  0.914564  0  0  0.292217  0.392294  0  0.943468  0
H  H17  1  0.27676032  0.12786589  0.45758959  1  0  0.433857  0  0.865318  0  0  0.400544  0  0.931497  0  0  0.412193  0  0.914595  0  0  0.292207  0.392268  0  0.9435  0
H  H18  1  0.92442720  0.80690958  0.48365736  1  0  0.438048  0  0.838503  0  0  0.409108  0  0.906055  0  0  0.419496  0  0.890626  0  0  0.300131  0.401617  0  0.9172  0
H  H19  1  0.07557335  0.19309619  0.51634320  1  0  0.438045  0  0.838473  0  0  0.409104  0  0.906055  0  0  0.419492  0  0.890624  0  0  0.300118  0.401612  0  0.9172  0
C  C20  1  0.49601188  0.24009270  0.21833262  1  0  -0.076721  0  3.745497  0  0  -0.060279  0  3.981248  0  0  -0.066628  0  4.002893  0  0  -0.01454  -0.056068  0  3.966735  0
C  C21  1  0.50398358  0.75990836  0.78166683  1  0  -0.076817  0  3.745502  0  0  -0.060347  0  3.981232  0  0  -0.066698  0  4.002874  0  0  -0.014536  -0.056134  0  3.966725  0
C  C22  1  0.28752938  0.14174182  0.15291012  1  0  -0.113853  0  3.662589  0  0  -0.146088  0  3.908737  0  0  -0.147272  0  3.928851  0  0  -0.074224  -0.145268  0  3.895312  0
C  C23  1  0.71246967  0.85825918  0.84708954  1  0  -0.113876  0  3.662543  0  0  -0.146127  0  3.908705  0  0  -0.147307  0  3.928815  0  0  -0.074273  -0.145313  0  3.895291  0
C  C24  1  0.29505720  0.15431944  0.05651289  1  0  0.153969  0  3.809337  0  0  0.161005  0  4.061499  0  0  0.16033  0  4.085877  0  0  0.088787  0.161452  0  4.044987  0
C  C25  1  0.70493489  0.84567692  0.94348764  1  0  0.153933  0  3.809435  0  0  0.160986  0  4.061578  0  0  0.160312  0  4.085955  0  0  0.088809  0.161432  0  4.045067  0
C  C26  1  0.51264232  0.26565333  0.02606036  1  0  -0.101131  0  3.692862  0  0  -0.125377  0  3.94663  0  0  -0.128042  0  3.968074  0  0  -0.070521  -0.123476  0  3.931975  0
C  C27  1  0.48735443  0.73434611  0.97393913  1  0  -0.101113  0  3.692935  0  0  -0.125381  0  3.946712  0  0  -0.128046  0  3.968157  0  0  -0.07051  -0.123477  0  3.932043  0
C  C28  1  0.72294720  0.36173431  0.09169581  1  0  -0.055371  0  3.718118  0  0  -0.08136  0  3.975792  0  0  -0.083066  0  3.996913  0  0  -0.077562  -0.080139  0  3.961474  0
C  C29  1  0.27704596  0.63826520  0.90830347  1  0  -0.055424  0  3.718253  0  0  -0.081398  0  3.975955  0  0  -0.083102  0  3.997075  0  0  -0.077616  -0.080177  0  3.961639  0
C  C30  1  0.71746030  0.34872273  0.18755268  1  0  -0.057646  0  3.701716  0  0  -0.044482  0  3.936126  0  0  -0.049367  0  3.957624  0  0  -0.006543  -0.041307  0  3.921723  0
C  C31  1  0.28253621  0.65128149  0.81244622  1  0  -0.057642  0  3.701821  0  0  -0.04448  0  3.936237  0  0  -0.049364  0  3.957734  0  0  -0.006527  -0.041313  0  3.92184  0
C  C32  1  0.95231365  0.42960419  0.25692271  1  0  0.653519  0  3.902804  0  0  0.596256  0  4.204139  0  0  0.63029  0  4.197763  0  0  0.209871  0.57312  0  4.20758  0
C  C33  1  0.04768468  0.57039999  0.74307560  1  0  0.653687  0  3.902907  0  0  0.596379  0  4.204309  0  0  0.630415  0  4.197929  0  0  0.209907  0.573251  0  4.20774  0
C  C34  1  0.48119089  0.24168431  0.32132952  1  0  0.69926  0  3.858392  0  0  0.63581  0  4.162379  0  0  0.672517  0  4.151813  0  0  0.225386  0.610711  0  4.168941  0
C  C35  1  0.51881866  0.75832127  0.67867088  1  0  0.699216  0  3.858305  0  0  0.635773  0  4.162304  0  0  0.672483  0  4.151734  0  0  0.225293  0.610676  0  4.168856  0
N  N36  1  0.09046908  0.06154979  0.98561137  1  0  -0.145234  0  2.992906  0  0  -0.123705  0  3.277141  0  0  -0.122097  0  3.284063  0  0  -0.143893  -0.124763  0  3.272553  0
N  N37  1  0.90952610  0.93844490  0.01438861  1  0  -0.145176  0  2.99294  0  0  -0.123628  0  3.27715  0  0  -0.12202  0  3.284074  0  0  -0.143857  -0.124683  0  3.272559  0
O  O38  1  0.38157571  0.07121927  0.35458858  1  0  -0.651506  0  2.047968  0  0  -0.570684  0  2.288785  0  0  -0.600038  0  2.276019  0  0  -0.313642  -0.550271  0  2.297231  0
O  O39  1  0.61844577  0.92878452  0.64541526  1  0  -0.651424  0  2.047859  0  0  -0.570604  0  2.288684  0  0  -0.59996  0  2.27592  0  0  -0.313588  -0.550209  0  2.297171  0
O  O40  1  0.56701446  0.41816614  0.37240041  1  0  -0.685792  0  2.106658  0  0  -0.617055  0  2.365743  0  0  -0.646207  0  2.352295  0  0  -0.321547  -0.596621  0  2.374493  0
O  O41  1  0.43298692  0.58183640  0.62759874  1  0  -0.685784  0  2.106633  0  0  -0.617032  0  2.365668  0  0  -0.646187  0  2.352219  0  0  -0.321509  -0.596595  0  2.374412  0
O  O42  1  0.99974596  0.31069204  0.31920579  1  0  -0.626566  0  2.022271  0  0  -0.56046  0  2.239581  0  0  -0.58687  0  2.232278  0  0  -0.299625  -0.541825  0  2.24394  0
O  O43  1  0.00025593  0.68931208  0.68079343  1  0  -0.626632  0  2.022437  0  0  -0.560474  0  2.239718  0  0  -0.586884  0  2.232412  0  0  -0.299619  -0.541834  0  2.244073  0
O  O44  1  0.09206842  0.61307166  0.24796387  1  0  -0.66909  0  2.002363  0  0  -0.596185  0  2.24811  0  0  -0.6264  0  2.236283  0  0  -0.320395  -0.574747  0  2.255456  0
O  O45  1  0.90793248  0.38692927  0.75203453  1  0  -0.669166  0  2.002389  0  0  -0.596261  0  2.248168  0  0  -0.626473  0  2.236329  0  0  -0.320412  -0.574824  0  2.255515  0
O  O46  1  0.19195050  0.64936735  0.46036459  1  0  -0.829893  0  1.884856  0  0  -0.762575  0  2.08521  0  0  -0.785977  0  2.052429  0  0  -0.575828  -0.745873  0  2.106513  0
O  O47  1  0.80805029  0.35063363  0.53963656  1  0  -0.829886  0  1.884778  0  0  -0.76259  0  2.085098  0  0  -0.785993  0  2.052307  0  0  -0.575768  -0.745887  0  2.106403  0
O  O48  1  0.77687740  0.88148079  0.26387946  1  0  -0.84977  0  1.868112  0  0  -0.789504  0  2.073138  0  0  -0.812854  0  2.039038  0  0  -0.586364  -0.772861  0  2.096889  0
O  O49  1  0.22312703  0.11852010  0.73612052  1  0  -0.849767  0  1.868153  0  0  -0.789497  0  2.073181  0  0  -0.812849  0  2.039079  0  0  -0.586371  -0.772851  0  2.096954  0
O  O50  1  0.76707133  0.85018391  0.47858688  1  0  -0.857941  0  1.892162  0  0  -0.791694  0  2.101536  0  0  -0.813856  0  2.06519  0  0  -0.595961  -0.775912  0  2.126996  0
O  O51  1  0.23292383  0.14981079  0.52141380  1  0  -0.857815  0  1.892222  0  0  -0.791634  0  2.101534  0  0  -0.813798  0  2.065192  0  0  -0.595917  -0.775851  0  2.126989  0
