# generated using pymatgen
data_ZnH18C23N4O5
_symmetry_space_group_name_H-M   'P 1'
_cell_length_a   10.44467385
_cell_length_b   11.34680317
_cell_length_c   11.49200000
_cell_angle_alpha   116.08270996
_cell_angle_beta   100.45520540
_cell_angle_gamma   104.61567328
_symmetry_Int_Tables_number   1
_chemical_formula_structural   ZnH18C23N4O5
_chemical_formula_sum   'Zn2 H36 C46 N8 O10'
_cell_volume   1114.66521576
_cell_formula_units_Z   2
loop_
 _symmetry_equiv_pos_site_id
 _symmetry_equiv_pos_as_xyz
  1  'x, y, z'
loop_
 _atom_site_type_symbol
 _atom_site_label
 _atom_site_symmetry_multiplicity
 _atom_site_fract_x
 _atom_site_fract_y
 _atom_site_fract_z
 _atom_site_occupancy
 _atom_site_hle17_bader_spin_density
 _atom_site_hle17_ddec_charge
 _atom_site_hle17_ddec_spin_density
 _atom_site_hle17_ddec_sum_bond_order
 _atom_site_hle17_magmom
 _atom_site_hse06_10hf_bader_spin_density
 _atom_site_hse06_10hf_ddec_charge
 _atom_site_hse06_10hf_ddec_spin_density
 _atom_site_hse06_10hf_ddec_sum_bond_order
 _atom_site_hse06_10hf_magmom
 _atom_site_hse06_bader_spin_density
 _atom_site_hse06_ddec_charge
 _atom_site_hse06_ddec_spin_density
 _atom_site_hse06_ddec_sum_bond_order
 _atom_site_hse06_magmom
 _atom_site_pbe_bader_charge
 _atom_site_pbe_bader_spin_density
 _atom_site_pbe_cm5_charge
 _atom_site_pbe_ddec_charge
 _atom_site_pbe_ddec_spin_density
 _atom_site_pbe_ddec_sum_bond_order
 _atom_site_pbe_magmom
Zn  Zn0  1  0.74142108  0.89243652  0.67829385  1  0  1.011818  0  1.867223  0  0  0.821447  0  2.350762  0  0  0.867887  0  2.296214  0  1.255925  0  0.697321  0.788955  0  2.388144  0
Zn  Zn1  1  0.25857884  0.10756484  0.32170838  1  0  1.011796  0  1.867216  0  0  0.821434  0  2.350758  0  0  0.867876  0  2.296214  0  1.255938  0  0.69732  0.788939  0  2.38814  0
H  H2  1  0.48135580  0.61884651  0.40794481  1  0  0.089512  0  0.93732  0  0  0.099517  0  1.000259  0  0  0.1013  0  0.998393  0  0.141772  0  0.136683  0.097805  0  1.002334  0
H  H3  1  0.51864625  0.38115274  0.59205685  1  0  0.089419  0  0.937395  0  0  0.099509  0  1.00025  0  0  0.101294  0  0.998378  0  0.141872  0  0.136674  0.097796  0  1.002326  0
H  H4  1  0.64078277  0.90170232  0.92365754  1  0  0.109238  0  0.947808  0  0  0.120139  0  1.008174  0  0  0.123432  0  1.006292  0  0.074778  0  0.105583  0.117639  0  1.009824  0
H  H5  1  0.35921656  0.09830010  0.07634331  1  0  0.109163  0  0.947789  0  0  0.120054  0  1.008187  0  0  0.123348  0  1.006303  0  0.074771  0  0.105509  0.117554  0  1.009837  0
H  H6  1  0.47779474  0.84798715  0.04438614  1  0  0.09223  0  0.971734  0  0  0.10092  0  1.036842  0  0  0.103435  0  1.036557  0  0.052623  0  0.097217  0.099107  0  1.037173  0
H  H7  1  0.52220089  0.15201316  0.95561405  1  0  0.092231  0  0.971762  0  0  0.100915  0  1.03689  0  0  0.103427  0  1.036608  0  0.052629  0  0.097214  0.099101  0  1.037221  0
H  H8  1  0.24247721  0.65716881  0.91353672  1  0  0.097103  0  0.972529  0  0  0.103538  0  1.039391  0  0  0.106309  0  1.038648  0  0.101613  0  0.09823  0.1013  0  1.040447  0
H  H9  1  0.75752055  0.34282938  0.08646117  1  0  0.097075  0  0.972527  0  0  0.103538  0  1.039354  0  0  0.10631  0  1.038612  0  0.101625  0  0.098231  0.101301  0  1.04041  0
H  H10  1  0.15877745  0.51241792  0.65790858  1  0  0.112774  0  0.939204  0  0  0.124584  0  0.993449  0  0  0.128116  0  0.991083  0  0.113929  0  0.107376  0.121926  0  0.995474  0
H  H11  1  0.84122341  0.48757815  0.34208977  1  0  0.112801  0  0.939188  0  0  0.124615  0  0.993427  0  0  0.128148  0  0.991061  0  0.113947  0  0.107387  0.121957  0  0.995452  0
H  H12  1  0.92527629  0.74997084  0.50335783  1  0  0.095599  0  0.937148  0  0  0.107025  0  0.996224  0  0  0.109511  0  0.993014  0  0.169379  0  0.139261  0.105091  0  0.998817  0
H  H13  1  0.07472167  0.25003052  0.49664321  1  0  0.095639  0  0.937146  0  0  0.10708  0  0.996198  0  0  0.109557  0  0.992998  0  0.169401  0  0.139296  0.105145  0  0.998791  0
H  H14  1  0.60647142  0.01574763  0.50834968  1  0  0.106406  0  0.967901  0  0  0.118098  0  1.026891  0  0  0.120774  0  1.025875  0  0.074542  0  0.104469  0.116305  0  1.027377  0
H  H15  1  0.39352889  0.98425480  0.49165221  1  0  0.106355  0  0.967961  0  0  0.118078  0  1.026902  0  0  0.120755  0  1.025885  0  0.074579  0  0.104465  0.116285  0  1.027389  0
H  H16  1  0.59079963  0.11239683  0.35174356  1  0  0.086442  0  0.996519  0  0  0.095355  0  1.061082  0  0  0.097292  0  1.061675  0  0.085861  0  0.094113  0.093928  0  1.060916  0
H  H17  1  0.40920108  0.88760666  0.64825711  1  0  0.086408  0  0.996424  0  0  0.095313  0  1.061014  0  0  0.09725  0  1.061607  0  0.085838  0  0.094079  0.093887  0  1.060848  0
H  H18  1  0.72942700  0.08224326  0.19602984  1  0  0.086911  0  0.959712  0  0  0.098994  0  1.018929  0  0  0.100884  0  1.019894  0  0.047126  0  0.097664  0.097507  0  1.018656  0
H  H19  1  0.27057428  0.91775917  0.80397046  1  0  0.086883  0  0.959729  0  0  0.098981  0  1.018931  0  0  0.100872  0  1.019893  0  0.047179  0  0.097663  0.097494  0  1.018658  0
H  H20  1  0.88548343  0.94329148  0.18404888  1  0  0.117183  0  0.959041  0  0  0.126401  0  1.02109  0  0  0.129877  0  1.019009  0  0.079148  0  0.105176  0.124012  0  1.022526  0
H  H21  1  0.11451570  0.05670777  0.81595143  1  0  0.11721  0  0.958962  0  0  0.126413  0  1.021029  0  0  0.129887  0  1.018949  0  0.07921  0  0.105187  0.124022  0  1.022465  0
H  H22  1  0.10457842  0.85699456  0.94351656  1  0  0.108049  0  0.899997  0  0  0.123978  0  0.953773  0  0  0.125638  0  0.952507  0  0.091084  0  0.120445  0.122708  0  0.955003  0
H  H23  1  0.89542226  0.14300362  0.05648268  1  0  0.108058  0  0.899986  0  0  0.123981  0  0.95378  0  0  0.125639  0  0.952508  0  0.091088  0  0.120446  0.122707  0  0.955008  0
H  H24  1  0.96314892  0.83254132  0.00456233  1  0  0.096522  0  0.94575  0  0  0.102241  0  1.018149  0  0  0.104701  0  1.015607  0  0.109372  0  0.107945  0.100615  0  1.019873  0
H  H25  1  0.03685176  0.16745687  0.99543604  1  0  0.096508  0  0.945726  0  0  0.102233  0  1.01813  0  0  0.104688  0  1.015588  0  0.109326  0  0.10795  0.100604  0  1.019852  0
H  H26  1  0.74482227  0.66982960  0.90382020  1  0  0.102555  0  0.96886  0  0  0.113452  0  1.031932  0  0  0.11616  0  1.031322  0  0.065472  0  0.10085  0.111509  0  1.032338  0
H  H27  1  0.25517783  0.33016965  0.09617853  1  0  0.102545  0  0.968886  0  0  0.113441  0  1.031965  0  0  0.116148  0  1.031357  0  0.065426  0  0.100856  0.111501  0  1.032368  0
H  H28  1  0.54664765  0.47040624  0.86692138  1  0  0.090074  0  0.940239  0  0  0.103705  0  0.991807  0  0  0.106838  0  0.990585  0  0.076014  0  0.100641  0.101609  0  0.992694  0
H  H29  1  0.45335245  0.52959301  0.13307823  1  0  0.090093  0  0.94025  0  0  0.103729  0  0.991811  0  0  0.106862  0  0.990588  0  0.07599  0  0.100654  0.101635  0  0.992696  0
H  H30  1  0.56704750  0.23640291  0.80494632  1  0  0.099231  0  0.972817  0  0  0.107265  0  1.039628  0  0  0.110289  0  1.038852  0  0.103632  0  0.098775  0.105161  0  1.040287  0
H  H31  1  0.43295552  0.76359634  0.19505550  1  0  0.099246  0  0.97277  0  0  0.10727  0  1.039597  0  0  0.110294  0  1.038821  0  0.103639  0  0.098776  0.105167  0  1.040255  0
H  H32  1  0.99513261  0.41156575  0.83053222  1  0  0.115241  0  0.944521  0  0  0.125514  0  1.005114  0  0  0.129735  0  1.002229  0  0.079557  0  0.107554  0.122536  0  1.007255  0
H  H33  1  0.00486749  0.58843350  0.16946477  1  0  0.115242  0  0.944558  0  0  0.125538  0  1.005139  0  0  0.129757  0  1.002255  0  0.07955  0  0.107565  0.122559  0  1.007279  0
H  H34  1  0.26115358  0.47821281  0.42952156  1  0  0.330613  0  0.919459  0  0  0.308984  0  0.985218  0  0  0.317902  0  0.977788  0  0.569829  0  0.311451  0.302697  0  0.990405  0
H  H35  1  0.73884904  0.52178538  0.57047800  1  0  0.33063  0  0.919502  0  0  0.308996  0  0.985254  0  0  0.317911  0  0.977833  0  0.569853  0  0.311468  0.30271  0  0.990439  0
H  H36  1  0.97809794  0.80361613  0.31174220  1  0  0.326644  0  0.925326  0  0  0.306087  0  0.987941  0  0  0.315606  0  0.979907  0  0.553284  0  0.31214  0.299487  0  0.993441  0
H  H37  1  0.02189924  0.19638312  0.68825779  1  0  0.326693  0  0.925331  0  0  0.306162  0  0.98789  0  0  0.315681  0  0.979853  0  0.553251  0  0.312172  0.299562  0  0.99339  0
C  C38  1  0.46404480  0.64042577  0.50445148  1  0  0.26576  0  3.669286  0  0  0.20137  0  3.947168  0  0  0.219345  0  3.956841  0  1.034209  0  0.162365  0.189472  0  3.940893  0
C  C39  1  0.53595764  0.35957454  0.49554897  1  0  0.265804  0  3.669198  0  0  0.20134  0  3.947095  0  0  0.219318  0  3.956768  0  1.034126  0  0.16235  0.189443  0  3.94082  0
C  C40  1  0.49159303  0.73313568  0.72310512  1  0  0.133722  0  3.826673  0  0  0.133779  0  4.066474  0  0  0.136236  0  4.091108  0  0.392301  0  0.082893  0.132267  0  4.049737  0
C  C41  1  0.50840631  0.26686675  0.27689574  1  0  0.133673  0  3.826696  0  0  0.133749  0  4.066472  0  0  0.13621  0  4.091106  0  0.392307  0  0.082878  0.132236  0  4.049736  0
C  C42  1  0.53790035  0.81586923  0.86681401  1  0  -0.144629  0  3.75114  0  0  -0.162193  0  3.998506  0  0  -0.165148  0  4.019605  0  -0.040069  0  -0.093523  -0.160032  0  3.984183  0
C  C43  1  0.46209723  0.18413108  0.13318477  1  0  -0.144495  0  3.750948  0  0  -0.162054  0  3.9983  0  0  -0.165009  0  4.019394  0  -0.040092  0  -0.093453  -0.159892  0  3.983975  0
C  C44  1  0.44625584  0.78511736  0.93269330  1  0  -0.081658  0  3.787383  0  0  -0.096715  0  4.04032  0  0  -0.099876  0  4.064353  0  -0.014917  0  -0.098908  -0.094536  0  4.02399  0
C  C45  1  0.55374213  0.21488401  0.06730600  1  0  -0.081721  0  3.787396  0  0  -0.096784  0  4.040335  0  0  -0.099943  0  4.064367  0  -0.014919  0  -0.09891  -0.094603  0  4.024004  0
C  C46  1  0.31186575  0.67596727  0.85815111  1  0  -0.068854  0  3.78037  0  0  -0.087915  0  4.039431  0  0  -0.089694  0  4.061761  0  0.031419  0  -0.096477  -0.086513  0  4.024665  0
C  C47  1  0.68813201  0.32403092  0.14184677  1  0  -0.068749  0  3.780433  0  0  -0.087831  0  4.039482  0  0  -0.089612  0  4.061815  0  0.031387  0  -0.096448  -0.086429  0  4.024716  0
C  C48  1  0.26423989  0.59346774  0.71511473  1  0  -0.152708  0  3.755731  0  0  -0.170837  0  4.005929  0  0  -0.173805  0  4.025471  0  -0.08444  0  -0.095417  -0.169124  0  3.993383  0
C  C49  1  0.73575982  0.40653045  0.28488348  1  0  -0.152825  0  3.755803  0  0  -0.170959  0  4.006015  0  0  -0.173925  0  4.025558  0  -0.084425  0  -0.095465  -0.169246  0  3.99347  0
C  C50  1  0.35667617  0.62324432  0.64884083  1  0  0.145801  0  3.792696  0  0  0.139695  0  4.033538  0  0  0.143047  0  4.057314  0  0.307456  0  0.091942  0.137534  0  4.017794  0
C  C51  1  0.64332432  0.37675598  0.35115843  1  0  0.145884  0  3.792581  0  0  0.139767  0  4.033427  0  0  0.143116  0  4.057204  0  0.307479  0  0.091968  0.137608  0  4.01768  0
C  C52  1  0.87676252  0.80313007  0.46112594  1  0  0.270187  0  3.668311  0  0  0.204059  0  3.946743  0  0  0.222521  0  3.95592  0  1.014466  0  0.164634  0.191819  0  3.940684  0
C  C53  1  0.12323624  0.19687341  0.53887528  1  0  0.270125  0  3.668345  0  0  0.203983  0  3.946796  0  0  0.222453  0  3.95598  0  1.014247  0  0.164537  0.191742  0  3.940738  0
C  C54  1  0.75150375  0.92138183  0.43041389  1  0  0.136209  0  3.82908  0  0  0.1353  0  4.068483  0  0  0.137978  0  4.093675  0  0.396033  0  0.081291  0.133524  0  4.051214  0
C  C55  1  0.24850377  0.07862165  0.56958791  1  0  0.136107  0  3.82931  0  0  0.13521  0  4.068661  0  0  0.137887  0  4.093855  0  0.395264  0  0.081257  0.133433  0  4.051392  0
C  C56  1  0.66490372  0.99841718  0.43697130  1  0  -0.149052  0  3.755536  0  0  -0.167167  0  4.005099  0  0  -0.170426  0  4.025783  0  -0.006833  0  -0.096888  -0.164893  0  3.990853  0
C  C57  1  0.33509720  0.00158948  0.56303253  1  0  -0.149066  0  3.75584  0  0  -0.167209  0  4.005379  0  0  -0.170471  0  4.026066  0  -0.006305  0  -0.096901  -0.164936  0  3.991134  0
C  C58  1  0.65872903  0.05381578  0.35045310  1  0  -0.069388  0  3.779163  0  0  -0.087541  0  4.035634  0  0  -0.089083  0  4.057476  0  -0.041869  0  -0.100786  -0.086477  0  4.021116  0
C  C59  1  0.34127402  0.94618876  0.64954929  1  0  -0.069228  0  3.778875  0  0  -0.08738  0  4.035381  0  0  -0.088922  0  4.057225  0  -0.041897  0  -0.10072  -0.086315  0  4.020862  0
C  C60  1  0.73665743  0.03444866  0.25993824  1  0  -0.078629  0  3.794522  0  0  -0.092644  0  4.046216  0  0  -0.095191  0  4.069544  0  -0.031156  0  -0.098302  -0.090835  0  4.030722  0
C  C61  1  0.26334094  0.96555376  0.74006246  1  0  -0.078675  0  3.794481  0  0  -0.092708  0  4.04619  0  0  -0.095257  0  4.069519  0  -0.031071  0  -0.098324  -0.090899  0  4.030697  0
C  C62  1  0.82238191  0.95679520  0.25123975  1  0  -0.156133  0  3.751293  0  0  -0.173737  0  4.000027  0  0  -0.177149  0  4.020659  0  0.027095  0  -0.095713  -0.171582  0  3.986134  0
C  C63  1  0.17761938  0.04320723  0.74876055  1  0  -0.15611  0  3.751263  0  0  -0.17372  0  3.999983  0  0  -0.177132  0  4.020613  0  0.027138  0  -0.09574  -0.171566  0  3.98609  0
C  C64  1  0.82760576  0.90053007  0.33777683  1  0  0.151266  0  3.78599  0  0  0.144914  0  4.02609  0  0  0.148281  0  4.0497  0  0.277219  0  0.090826  0.142889  0  4.009968  0
C  C65  1  0.17239632  0.09947447  0.66222714  1  0  0.151286  0  3.785803  0  0  0.144994  0  4.025789  0  0  0.148364  0  4.049397  0  0.277155  0  0.09088  0.142971  0  4.009668  0
C  C66  1  0.90508619  0.78575061  0.79309256  1  0  0.657091  0  3.895268  0  0  0.607381  0  4.199947  0  0  0.639592  0  4.193458  0  1.568442  0  0.203574  0.585531  0  4.203684  0
C  C67  1  0.09491391  0.21424864  0.20690704  1  0  0.657114  0  3.895145  0  0  0.607397  0  4.199838  0  0  0.639603  0  4.193345  0  1.568479  0  0.203566  0.585541  0  4.203577  0
C  C68  1  0.99575156  0.78709653  0.91430194  1  0  -0.072128  0  3.640693  0  0  -0.130377  0  3.904609  0  0  -0.127112  0  3.905045  0  0.423919  0  -0.068987  -0.133104  0  3.904656  0
C  C69  1  0.00424854  0.21290272  0.08569592  1  0  -0.072164  0  3.640717  0  0  -0.130429  0  3.90464  0  0  -0.127152  0  3.905057  0  0.423892  0  -0.068994  -0.133137  0  3.904661  0
C  C70  1  0.88308992  0.55182776  0.86606056  1  0  0.274163  0  3.810737  0  0  0.267613  0  4.072482  0  0  0.277804  0  4.088689  0  0.449408  0  0.083025  0.26054  0  4.06126  0
C  C71  1  0.11690938  0.44816937  0.13393538  1  0  0.274172  0  3.81077  0  0  0.267659  0  4.072452  0  0  0.277843  0  4.088666  0  0.449521  0  0.08307  0.260586  0  4.061231  0
C  C72  1  0.75703981  0.56968375  0.87824034  1  0  -0.194009  0  3.736789  0  0  -0.217611  0  3.986349  0  0  -0.221723  0  4.006097  0  0.003289  0  -0.108962  -0.21413  0  3.972353  0
C  C73  1  0.24296145  0.43031338  0.12175593  1  0  -0.194001  0  3.736917  0  0  -0.217622  0  3.986463  0  0  -0.221731  0  4.006209  0  0.003394  0  -0.108994  -0.21414  0  3.97246  0
C  C74  1  0.64433099  0.45575145  0.85701231  1  0  -0.063651  0  3.812623  0  0  -0.071825  0  4.0625  0  0  -0.072751  0  4.082339  0  -0.104897  0  -0.097198  -0.071229  0  4.049257  0
C  C75  1  0.35566969  0.54424674  0.14298606  1  0  -0.063686  0  3.812744  0  0  -0.071856  0  4.062615  0  0  -0.072782  0  4.08245  0  -0.104935  0  -0.09722  -0.071262  0  4.049371  0
C  C76  1  0.65520701  0.32565111  0.82380362  1  0  -0.105916  0  3.757536  0  0  -0.134923  0  4.010664  0  0  -0.136132  0  4.031214  0  -0.046038  0  -0.101367  -0.134147  0  3.997781  0
C  C77  1  0.34479367  0.67434707  0.17619562  1  0  -0.105949  0  3.757574  0  0  -0.134947  0  4.0107  0  0  -0.136157  0  4.03125  0  -0.045649  0  -0.101381  -0.134171  0  3.99782  0
C  C78  1  0.78269268  0.30967264  0.81434378  1  0  -0.051491  0  3.794884  0  0  -0.027106  0  4.029452  0  0  -0.033082  0  4.052036  0  -0.013163  0  -0.022651  -0.023073  0  4.014449  0
C  C79  1  0.21730937  0.69032661  0.18565528  1  0  -0.051489  0  3.79484  0  0  -0.027097  0  4.029403  0  0  -0.033073  0  4.051988  0  -0.013521  0  -0.02266  -0.023071  0  4.014413  0
C  C80  1  0.89540715  0.42251104  0.83568872  1  0  -0.174776  0  3.714358  0  0  -0.209755  0  3.966188  0  0  -0.212571  0  3.983895  0  -0.004101  0  -0.096239  -0.207941  0  3.954445  0
C  C81  1  0.10459216  0.57748609  0.16430723  1  0  -0.174762  0  3.714314  0  0  -0.209779  0  3.966122  0  0  -0.212594  0  3.983833  0  -0.004321  0  -0.096222  -0.207962  0  3.954381  0
C  C82  1  0.80227614  0.17370255  0.78091325  1  0  0.644958  0  3.901198  0  0  0.594185  0  4.192439  0  0  0.628272  0  4.184483  0  1.538746  0  0.206693  0.571102  0  4.197081  0
C  C83  1  0.19772259  0.82629564  0.21908828  1  0  0.644878  0  3.901259  0  0  0.59412  0  4.19249  0  0  0.628208  0  4.184537  0  1.539273  0  0.206699  0.571041  0  4.197132  0
N  N84  1  0.55556381  0.74103226  0.62895027  1  0  -0.454833  0  3.253499  0  0  -0.380836  0  3.555935  0  0  -0.402086  0  3.564826  0  -1.249968  0  -0.361532  -0.36648  0  3.549563  0
N  N85  1  0.44443571  0.25896805  0.37105057  1  0  -0.454812  0  3.253472  0  0  -0.380822  0  3.55592  0  0  -0.402079  0  3.564815  0  -1.249941  0  -0.361534  -0.366465  0  3.549547  0
N  N86  1  0.34403656  0.56755844  0.51115514  1  0  -0.338863  0  3.377786  0  0  -0.275956  0  3.610303  0  0  -0.294105  0  3.622726  0  -1.315642  0  -0.368859  -0.263744  0  3.601738  0
N  N87  1  0.65596451  0.43244081  0.48884462  1  0  -0.338877  0  3.377732  0  0  -0.275967  0  3.6103  0  0  -0.294113  0  3.622721  0  -1.315694  0  -0.368853  -0.263758  0  3.601736  0
N  N88  1  0.78471498  0.85861264  0.50613374  1  0  -0.459401  0  3.254012  0  0  -0.381942  0  3.557833  0  0  -0.403869  0  3.566519  0  -1.243457  0  -0.36344  -0.367113  0  3.551815  0
N  N89  1  0.21528670  0.14139085  0.49386970  1  0  -0.459339  0  3.253991  0  0  -0.381895  0  3.55782  0  0  -0.403824  0  3.566505  0  -1.243273  0  -0.363419  -0.367063  0  3.551794  0
N  N90  1  0.90403021  0.82433341  0.35997313  1  0  -0.3361  0  3.37854  0  0  -0.272998  0  3.611495  0  0  -0.291213  0  3.623506  0  -1.277933  0  -0.370618  -0.260826  0  3.603052  0
N  N91  1  0.09596815  0.17566902  0.64002931  1  0  -0.33615  0  3.378482  0  0  -0.273092  0  3.611437  0  0  -0.291306  0  3.623443  0  -1.277795  0  -0.370622  -0.26092  0  3.602998  0
O  O92  1  0.87479758  0.89709060  0.82818377  1  0  -0.640288  0  2.056795  0  0  -0.567861  0  2.337823  0  0  -0.596791  0  2.323251  0  -1.170417  0  -0.326438  -0.547733  0  2.347055  0
O  O93  1  0.12520367  0.10290653  0.17181423  1  0  -0.640325  0  2.056603  0  0  -0.567872  0  2.337579  0  0  -0.596802  0  2.323008  0  -1.170479  0  -0.326447  -0.54775  0  2.346833  0
O  O94  1  0.86901247  0.68523624  0.67216134  1  0  -0.631876  0  1.970165  0  0  -0.588016  0  2.19902  0  0  -0.610118  0  2.189026  0  -1.2132  0  -0.326859  -0.572552  0  2.205353  0
O  O95  1  0.13098781  0.31476089  0.32783476  1  0  -0.631856  0  1.970309  0  0  -0.588002  0  2.19918  0  0  -0.610106  0  2.18918  0  -1.213107  0  -0.326841  -0.572539  0  2.205522  0
O  O96  1  0.00069656  0.65278158  0.88303126  1  0  -0.26057  0  2.373033  0  0  -0.193622  0  2.608209  0  0  -0.211401  0  2.611948  0  -1.084262  0  -0.176833  -0.180751  0  2.605046  0
O  O97  1  0.99930275  0.34721555  0.11696642  1  0  -0.260568  0  2.373063  0  0  -0.193609  0  2.608226  0  0  -0.211384  0  2.611959  0  -1.08426  0  -0.176851  -0.180744  0  2.605059  0
O  O98  1  0.69699032  0.06852352  0.75890970  1  0  -0.634248  0  1.999326  0  0  -0.559284  0  2.262084  0  0  -0.587384  0  2.248883  0  -1.170504  0  -0.326834  -0.539597  0  2.270489  0
O  O99  1  0.30300862  0.93147785  0.24109498  1  0  -0.634225  0  1.999278  0  0  -0.559288  0  2.262053  0  0  -0.587392  0  2.248855  0  -1.170442  0  -0.326859  -0.539602  0  2.270456  0
O  O100  1  0.91877271  0.16437003  0.77326051  1  0  -0.634078  0  2.006688  0  0  -0.584661  0  2.246225  0  0  -0.608031  0  2.236508  0  -1.196112  0  -0.317291  -0.568144  0  2.252086  0
O  O101  1  0.08122621  0.83562604  0.22673752  1  0  -0.633984  0  2.00669  0  0  -0.584601  0  2.24627  0  0  -0.607959  0  2.236525  0  -1.19661  0  -0.317273  -0.568076  0  2.252109  0
