# generated using pymatgen
data_TbH15C24(N2O3)2
_symmetry_space_group_name_H-M   'P 1'
_cell_length_a   9.28313588
_cell_length_b   9.66208104
_cell_length_c   12.66425877
_cell_angle_alpha   109.56623778
_cell_angle_beta   91.80882772
_cell_angle_gamma   99.90950979
_symmetry_Int_Tables_number   1
_chemical_formula_structural   TbH15C24(N2O3)2
_chemical_formula_sum   'Tb2 H30 C48 N8 O12'
_cell_volume   1049.47186165
_cell_formula_units_Z   2
loop_
 _symmetry_equiv_pos_site_id
 _symmetry_equiv_pos_as_xyz
  1  'x, y, z'
loop_
 _atom_site_type_symbol
 _atom_site_label
 _atom_site_symmetry_multiplicity
 _atom_site_fract_x
 _atom_site_fract_y
 _atom_site_fract_z
 _atom_site_occupancy
 _atom_site_hle17_bader_spin_density
 _atom_site_hle17_ddec_charge
 _atom_site_hle17_ddec_spin_density
 _atom_site_hle17_ddec_sum_bond_order
 _atom_site_hle17_magmom
 _atom_site_hse06_10hf_bader_spin_density
 _atom_site_hse06_10hf_ddec_charge
 _atom_site_hse06_10hf_ddec_spin_density
 _atom_site_hse06_10hf_ddec_sum_bond_order
 _atom_site_hse06_10hf_magmom
 _atom_site_hse06_bader_spin_density
 _atom_site_hse06_ddec_charge
 _atom_site_hse06_ddec_spin_density
 _atom_site_hse06_ddec_sum_bond_order
 _atom_site_hse06_magmom
 _atom_site_pbe_bader_spin_density
 _atom_site_pbe_cm5_charge
 _atom_site_pbe_ddec_charge
 _atom_site_pbe_ddec_spin_density
 _atom_site_pbe_ddec_sum_bond_order
 _atom_site_pbe_magmom
Tb  Tb0  1  0.90210915  0.47834142  0.12751940  1  0  2.152276  0  1.701781  0  0  1.973994  0  2.200555  0  0  2.02863  0  2.155323  0  0  1.515204  1.934333  0  2.234083  0
Tb  Tb1  1  0.09788999  0.52165750  0.87247891  1  0  2.152253  0  1.701892  0  0  1.973924  0  2.200749  0  0  2.028566  0  2.155514  0  0  1.515202  1.934267  0  2.234274  0
H  H2  1  0.17897539  0.12379948  0.74371108  1  0  0.120862  0  0.967581  0  0  0.129401  0  1.032505  0  0  0.133792  0  1.027707  0  0  0.112056  0.12626  0  1.03573  0
H  H3  1  0.82102135  0.87619841  0.25628927  1  0  0.120793  0  0.967607  0  0  0.129346  0  1.032517  0  0  0.133742  0  1.027719  0  0  0.112008  0.126208  0  1.035743  0
H  H4  1  0.12190493  0.13216876  0.93377936  1  0  0.117906  0  0.946107  0  0  0.128474  0  1.002072  0  0  0.13134  0  1.001941  0  0  0.116197  0.126531  0  1.002003  0
H  H5  1  0.87809141  0.86783248  0.06622099  1  0  0.117877  0  0.946195  0  0  0.128463  0  1.002147  0  0  0.131329  0  1.002017  0  0  0.1162  0.126516  0  1.002078  0
H  H6  1  0.09688651  0.89549662  0.98073123  1  0  0.074259  0  0.966668  0  0  0.080314  0  1.036522  0  0  0.082712  0  1.034765  0  0  0.118521  0.078245  0  1.038489  0
H  H7  1  0.90311158  0.10450794  0.01926918  1  0  0.074145  0  0.966688  0  0  0.080254  0  1.036493  0  0  0.082618  0  1.034773  0  0  0.118453  0.078184  0  1.038452  0
H  H8  1  0.08875194  0.25703592  0.62232246  1  0  0.076101  0  0.935567  0  0  0.082543  0  1.005194  0  0  0.086134  0  1.000769  0  0  0.118448  0.080173  0  1.007998  0
H  H9  1  0.91125276  0.74296419  0.37768026  1  0  0.076065  0  0.935618  0  0  0.082536  0  1.005212  0  0  0.086123  0  1.000792  0  0  0.118459  0.080165  0  1.008018  0
H  H10  1  0.15411475  0.21169531  0.42293187  1  0  0.096491  0  0.964121  0  0  0.10556  0  1.026417  0  0  0.108301  0  1.026941  0  0  0.101622  0.104607  0  1.023528  0
H  H11  1  0.84587018  0.78830263  0.57706576  1  0  0.096449  0  0.964189  0  0  0.105487  0  1.026517  0  0  0.108232  0  1.027029  0  0  0.101592  0.104535  0  1.023623  0
H  H12  1  0.21950122  0.43299075  0.35924736  1  0  0.132999  0  0.940361  0  0  0.142898  0  0.996931  0  0  0.147123  0  0.993327  0  0  0.116722  0.139545  0  1.00022  0
H  H13  1  0.78048976  0.56701050  0.64075125  1  0  0.132915  0  0.940491  0  0  0.142971  0  0.996904  0  0  0.147209  0  0.993265  0  0  0.11672  0.139595  0  1.000202  0
H  H14  1  0.44110121  0.14875007  0.47009049  1  0  0.08989  0  0.955807  0  0  0.099363  0  1.018684  0  0  0.102384  0  1.017766  0  0  0.099546  0.097001  0  1.019787  0
H  H15  1  0.55889019  0.85125349  0.52991105  1  0  0.089853  0  0.955889  0  0  0.099381  0  1.018691  0  0  0.102405  0  1.017771  0  0  0.099547  0.097014  0  1.019795  0
H  H16  1  0.54843984  0.29120365  0.35315538  1  0  0.087509  0  0.963384  0  0  0.097962  0  1.022573  0  0  0.100177  0  1.022711  0  0  0.100608  0.096226  0  1.022885  0
H  H17  1  0.45154729  0.70879985  0.64684286  1  0  0.087457  0  0.963486  0  0  0.097965  0  1.022614  0  0  0.10018  0  1.022753  0  0  0.100568  0.096226  0  1.022928  0
H  H18  1  0.51485144  0.17532012  0.14476039  1  0  0.113955  0  0.959658  0  0  0.123294  0  1.018619  0  0  0.127107  0  1.016096  0  0  0.107871  0.120463  0  1.020597  0
H  H19  1  0.48514254  0.82468000  0.85523883  1  0  0.113858  0  0.959764  0  0  0.123317  0  1.018582  0  0  0.127132  0  1.016057  0  0  0.107877  0.120488  0  1.020561  0
H  H20  1  0.34279399  0.92814659  0.05612930  1  0  0.106631  0  0.960315  0  0  0.117112  0  1.018741  0  0  0.120495  0  1.016821  0  0  0.109421  0.114664  0  1.020224  0
H  H21  1  0.65721266  0.07184659  0.94386550  1  0  0.106593  0  0.960517  0  0  0.117099  0  1.018909  0  0  0.120483  0  1.016987  0  0  0.109424  0.114652  0  1.02039  0
H  H22  1  0.42994435  0.59476991  0.25052647  1  0  0.116453  0  0.924907  0  0  0.125059  0  0.993208  0  0  0.128826  0  0.990781  0  0  0.101742  0.122658  0  0.994886  0
H  H23  1  0.57005454  0.40522797  0.74947395  1  0  0.116467  0  0.924897  0  0  0.12508  0  0.993196  0  0  0.128845  0  0.990772  0  0  0.101748  0.122678  0  0.994876  0
H  H24  1  0.44987745  0.63725356  0.12679868  1  0  0.110609  0  0.920595  0  0  0.125987  0  0.977571  0  0  0.128139  0  0.977428  0  0  0.105248  0.124518  0  0.977364  0
H  H25  1  0.55012210  0.36274772  0.87320415  1  0  0.110601  0  0.920542  0  0  0.125981  0  0.977519  0  0  0.128134  0  0.977379  0  0  0.10525  0.124514  0  0.977312  0
H  H26  1  0.36812891  0.31828321  0.13467465  1  0  0.103009  0  0.952062  0  0  0.116383  0  1.013562  0  0  0.118422  0  1.013267  0  0  0.100881  0.114835  0  1.014069  0
H  H27  1  0.63187325  0.68171452  0.86532189  1  0  0.103012  0  0.952087  0  0  0.116387  0  1.013594  0  0  0.118423  0  1.013299  0  0  0.1009  0.114838  0  1.014106  0
H  H28  1  0.37448060  0.36168213  0.00922418  1  0  0.105537  0  0.937945  0  0  0.118847  0  0.998169  0  0  0.120878  0  0.997735  0  0  0.103111  0.117607  0  0.998254  0
H  H29  1  0.62551920  0.63832018  0.99077574  1  0  0.105526  0  0.937916  0  0  0.118837  0  0.998149  0  0  0.120872  0  0.997704  0  0  0.103118  0.117598  0  0.998233  0
H  H30  1  0.23742726  0.07311790  0.54681281  1  0  0.305963  0  0.874266  0  0  0.29628  0  0.925402  0  0  0.302562  0  0.920982  0  0  0.331948  0.291982  0  0.928199  0
H  H31  1  0.76256906  0.92687767  0.45318382  1  0  0.30606  0  0.874099  0  0  0.296298  0  0.925333  0  0  0.302577  0  0.920916  0  0  0.331977  0.291997  0  0.928136  0
C  C32  1  0.20684900  0.86141494  0.57043601  1  0  0.104776  0  3.82713  0  0  0.085165  0  4.087479  0  0  0.087584  0  4.111285  0  0  0.089784  0.082882  0  4.072021  0
C  C33  1  0.79315941  0.13858727  0.42956337  1  0  0.104871  0  3.827245  0  0  0.085181  0  4.087587  0  0  0.087599  0  4.111392  0  0  0.089734  0.082898  0  4.072129  0
C  C34  1  0.17233485  0.88229804  0.68255692  1  0  -0.040445  0  3.820493  0  0  -0.026146  0  4.058291  0  0  -0.029324  0  4.081967  0  0  -0.000702  -0.023404  0  4.041427  0
C  C35  1  0.82766429  0.11770661  0.31744670  1  0  -0.04048  0  3.820495  0  0  -0.02616  0  4.058292  0  0  -0.029337  0  4.081969  0  0  -0.000782  -0.023419  0  4.041435  0
C  C36  1  0.16090619  0.02074185  0.76292289  1  0  -0.033701  0  3.666684  0  0  -0.063604  0  3.917386  0  0  -0.060283  0  3.932596  0  0  -0.066946  -0.06597  0  3.906868  0
C  C37  1  0.83908902  0.97925384  0.23707768  1  0  -0.03356  0  3.66654  0  0  -0.063475  0  3.917228  0  0  -0.060161  0  3.932445  0  0  -0.066855  -0.065847  0  3.906723  0
C  C38  1  0.13125510  0.02625364  0.87027940  1  0  -0.105445  0  3.70731  0  0  -0.115287  0  3.958331  0  0  -0.121837  0  3.979514  0  0  -0.077816  -0.110978  0  3.944808  0
C  C39  1  0.86874083  0.97375100  0.12972254  1  0  -0.105492  0  3.707586  0  0  -0.115359  0  3.958654  0  0  -0.121909  0  3.979832  0  0  -0.077819  -0.111047  0  3.945132  0
C  C40  1  0.11616512  0.89455686  0.89613553  1  0  0.135818  0  3.713481  0  0  0.104578  0  3.972753  0  0  0.111627  0  3.988934  0  0  0.054027  0.099419  0  3.962729  0
C  C41  1  0.88382692  0.10544442  0.10386470  1  0  0.135904  0  3.713623  0  0  0.104622  0  3.972902  0  0  0.111697  0  3.989094  0  0  0.054068  0.099468  0  3.962868  0
C  C42  1  0.15222631  0.75281033  0.71493404  1  0  0.148135  0  3.734783  0  0  0.140871  0  3.980118  0  0  0.145309  0  4.000638  0  0  0.12739  0.137871  0  3.965558  0
C  C43  1  0.84777304  0.24718974  0.28506534  1  0  0.148082  0  3.734796  0  0  0.140792  0  3.980125  0  0  0.145228  0  4.000645  0  0  0.12737  0.137792  0  3.965567  0
C  C44  1  0.15792656  0.60651142  0.63322907  1  0  0.137352  0  3.742134  0  0  0.129167  0  3.989603  0  0  0.133975  0  4.010258  0  0  0.124476  0.127149  0  3.97449  0
C  C45  1  0.84207105  0.39349105  0.36677557  1  0  0.137379  0  3.741917  0  0  0.129223  0  3.989262  0  0  0.134034  0  4.009915  0  0  0.124487  0.127198  0  3.974157  0
C  C46  1  0.12242730  0.34965121  0.59163353  1  0  0.141807  0  3.734565  0  0  0.107367  0  4.002869  0  0  0.115784  0  4.017967  0  0  0.05149  0.102253  0  3.992634  0
C  C47  1  0.87757074  0.65034780  0.40836713  1  0  0.141825  0  3.734549  0  0  0.107361  0  4.002858  0  0  0.115777  0  4.017959  0  0  0.051452  0.102246  0  3.992629  0
C  C48  1  0.15863134  0.32515424  0.48101195  1  0  -0.137153  0  3.766671  0  0  -0.152588  0  4.030962  0  0  -0.159666  0  4.052743  0  0  -0.093235  -0.148171  0  4.015022  0
C  C49  1  0.84136055  0.67485142  0.51898537  1  0  -0.137126  0  3.766262  0  0  -0.152539  0  4.030609  0  0  -0.159615  0  4.052393  0  0  -0.093213  -0.148123  0  4.014662  0
C  C50  1  0.19623482  0.44661607  0.44572202  1  0  -0.017168  0  3.630209  0  0  -0.042192  0  3.876949  0  0  -0.038676  0  3.892031  0  0  -0.057939  -0.045229  0  3.868002  0
C  C51  1  0.80375911  0.55338419  0.55428197  1  0  -0.017049  0  3.629892  0  0  -0.04225  0  3.876561  0  0  -0.038731  0  3.891648  0  0  -0.05794  -0.045257  0  3.867591  0
C  C52  1  0.19480044  0.59104644  0.52181907  1  0  -0.023883  0  3.759283  0  0  -0.011855  0  3.993643  0  0  -0.014866  0  4.016774  0  0  0.003185  -0.010471  0  3.978929  0
C  C53  1  0.80520256  0.40895593  0.47818413  1  0  -0.023889  0  3.759418  0  0  -0.011768  0  3.993558  0  0  -0.014784  0  4.016694  0  0  0.003239  -0.010394  0  3.978846  0
C  C54  1  0.22309960  0.72386038  0.49279220  1  0  0.091352  0  3.838212  0  0  0.08551  0  4.101432  0  0  0.08671  0  4.124966  0  0  0.090718  0.083933  0  4.086987  0
C  C55  1  0.77691266  0.27614531  0.50721366  1  0  0.091208  0  3.838322  0  0  0.08547  0  4.101317  0  0  0.086671  0  4.124853  0  0  0.090661  0.083901  0  4.086867  0
C  C56  1  0.26913744  0.88353949  0.40750650  1  0  0.339916  0  3.747476  0  0  0.309462  0  4.030211  0  0  0.323533  0  4.042697  0  0  0.223314  0.300122  0  4.021251  0
C  C57  1  0.73086984  0.11645719  0.59249389  1  0  0.340065  0  3.747442  0  0  0.309437  0  4.030363  0  0  0.323513  0  4.042843  0  0  0.223344  0.300107  0  4.021394  0
C  C58  1  0.31913598  0.96227882  0.33047930  1  0  -0.01806  0  3.768331  0  0  -0.008267  0  4.004216  0  0  -0.00848  0  4.025923  0  0  -0.003913  -0.007929  0  3.988804  0
C  C59  1  0.68086596  0.03772351  0.66952228  1  0  -0.017987  0  3.768522  0  0  -0.008125  0  4.004377  0  0  -0.00834  0  4.026082  0  0  -0.003876  -0.007792  0  3.988968  0
C  C60  1  0.41337669  0.10281769  0.37904695  1  0  -0.116489  0  3.763345  0  0  -0.138943  0  4.019944  0  0  -0.141785  0  4.040625  0  0  -0.093849  -0.137203  0  4.005091  0
C  C61  1  0.58662165  0.89718793  0.62095135  1  0  -0.116496  0  3.763081  0  0  -0.138996  0  4.01965  0  0  -0.14184  0  4.040334  0  0  -0.093841  -0.137247  0  4.004791  0
C  C62  1  0.47810524  0.18164689  0.31323861  1  0  -0.046778  0  3.768282  0  0  -0.062895  0  4.023143  0  0  -0.063337  0  4.044005  0  0  -0.087805  -0.062282  0  4.008401  0
C  C63  1  0.52188592  0.81835559  0.68676425  1  0  -0.046706  0  3.768369  0  0  -0.062874  0  4.023255  0  0  -0.063319  0  4.044124  0  0  -0.08775  -0.062266  0  4.008514  0
C  C64  1  0.45739506  0.11704904  0.19618757  1  0  -0.06945  0  3.743872  0  0  -0.083212  0  3.995327  0  0  -0.085772  0  4.015526  0  0  -0.086801  -0.080964  0  3.981235  0
C  C65  1  0.54259531  0.88294867  0.80380386  1  0  -0.069417  0  3.744126  0  0  -0.083265  0  3.995596  0  0  -0.08583  0  4.015804  0  0  -0.086816  -0.081021  0  3.981507  0
C  C66  1  0.36231001  0.97961127  0.14729640  1  0  -0.06527  0  3.723155  0  0  -0.087223  0  3.965737  0  0  -0.087808  0  3.98663  0  0  -0.081404  -0.087097  0  3.951441  0
C  C67  1  0.63769122  0.02038784  0.85270912  1  0  -0.065155  0  3.722823  0  0  -0.087149  0  3.965435  0  0  -0.087732  0  3.986323  0  0  -0.081403  -0.087024  0  3.951139  0
C  C68  1  0.28668721  0.90303169  0.21195021  1  0  -0.082094  0  3.664287  0  0  -0.065541  0  3.894942  0  0  -0.07294  0  3.917098  0  0  -0.00695  -0.059971  0  3.879465  0
C  C69  1  0.71331864  0.09696820  0.78804538  1  0  -0.082243  0  3.664386  0  0  -0.065674  0  3.895043  0  0  -0.073074  0  3.917197  0  0  -0.007058  -0.060111  0  3.879572  0
C  C70  1  0.17026059  0.76728598  0.14727177  1  0  0.702351  0  3.850505  0  0  0.65312  0  4.148387  0  0  0.688626  0  4.137769  0  0  0.22911  0.628816  0  4.154748  0
C  C71  1  0.82974343  0.23270510  0.85272639  1  0  0.702369  0  3.850344  0  0  0.653084  0  4.148335  0  0  0.688591  0  4.137715  0  0  0.229188  0.628791  0  4.154683  0
C  C72  1  0.61652243  0.52944676  0.16486750  1  0  0.679428  0  3.871873  0  0  0.641361  0  4.165044  0  0  0.674107  0  4.158668  0  0  0.188726  0.619236  0  4.1688  0
C  C73  1  0.38347780  0.47055781  0.83513377  1  0  0.679444  0  3.871962  0  0  0.641408  0  4.165081  0  0  0.674153  0  4.158705  0  0  0.188743  0.619283  0  4.168832  0
C  C74  1  0.45828823  0.54991922  0.16312977  1  0  -0.228395  0  3.631646  0  0  -0.263882  0  3.876125  0  0  -0.269297  0  3.883363  0  0  -0.156061  -0.259536  0  3.870239  0
C  C75  1  0.54171133  0.45008201  0.83687148  1  0  -0.228386  0  3.63165  0  0  -0.263888  0  3.87614  0  0  -0.269312  0  3.883379  0  0  -0.156074  -0.259544  0  3.870254  0
C  C76  1  0.35218550  0.40288018  0.09769649  1  0  -0.235178  0  3.662656  0  0  -0.273301  0  3.907728  0  0  -0.278028  0  3.914697  0  0  -0.162879  -0.27032  0  3.902623  0
C  C77  1  0.64781471  0.59711873  0.90230185  1  0  -0.235165  0  3.662744  0  0  -0.273277  0  3.907915  0  0  -0.277988  0  3.914862  0  0  -0.162886  -0.270299  0  3.902813  0
C  C78  1  0.19437781  0.41942200  0.10466872  1  0  0.731504  0  3.813232  0  0  0.691486  0  4.103375  0  0  0.725477  0  4.093408  0  0  0.211257  0.668642  0  4.108982  0
C  C79  1  0.80561936  0.58057818  0.89533378  1  0  0.731522  0  3.813028  0  0  0.691376  0  4.103386  0  0  0.725357  0  4.093431  0  0  0.211247  0.668538  0  4.108991  0
N  N80  1  0.23550214  0.96142707  0.51456886  1  0  -0.379518  0  3.377483  0  0  -0.324998  0  3.611581  0  0  -0.341226  0  3.624587  0  0  -0.380834  -0.313962  0  3.602433  0
N  N81  1  0.76450559  0.03857183  0.48543129  1  0  -0.379708  0  3.377468  0  0  -0.325037  0  3.611625  0  0  -0.341263  0  3.624629  0  0  -0.380847  -0.314  0  3.602478  0
N  N82  1  0.26360735  0.73990684  0.39329486  1  0  -0.385691  0  2.931568  0  0  -0.364146  0  3.205495  0  0  -0.376347  0  3.218272  0  0  -0.316313  -0.356201  0  3.197362  0
N  N83  1  0.73640186  0.26009439  0.60670985  1  0  -0.385624  0  2.931418  0  0  -0.364084  0  3.205375  0  0  -0.376289  0  3.218153  0  0  -0.316179  -0.356148  0  3.197243  0
N  N84  1  0.12696385  0.76205454  0.82164566  1  0  -0.390429  0  3.236255  0  0  -0.337816  0  3.498926  0  0  -0.351042  0  3.516029  0  0  -0.361975  -0.328667  0  3.486865  0
N  N85  1  0.87303248  0.23794675  0.17835628  1  0  -0.390349  0  3.236383  0  0  -0.337745  0  3.499073  0  0  -0.350967  0  3.516162  0  0  -0.361907  -0.328594  0  3.487007  0
N  N86  1  0.12412886  0.48566428  0.66614395  1  0  -0.413371  0  3.247346  0  0  -0.36  0  3.513752  0  0  -0.374943  0  3.532048  0  0  -0.378242  -0.34989  0  3.500714  0
N  N87  1  0.87587132  0.51433473  0.33385757  1  0  -0.413447  0  3.24723  0  0  -0.360127  0  3.51368  0  0  -0.375068  0  3.531973  0  0  -0.378301  -0.350008  0  3.500636  0
O  O88  1  0.18185084  0.71642809  0.04177652  1  0  -0.738376  0  2.128613  0  0  -0.684153  0  2.389356  0  0  -0.71094  0  2.381181  0  0  -0.398087  -0.66447  0  2.393701  0
O  O89  1  0.81816575  0.28357173  0.95822018  1  0  -0.738381  0  2.12868  0  0  -0.684147  0  2.389432  0  0  -0.71093  0  2.381258  0  0  -0.398103  -0.664479  0  2.393792  0
O  O90  1  0.06828517  0.71686149  0.19703130  1  0  -0.697072  0  2.002593  0  0  -0.648629  0  2.259722  0  0  -0.673988  0  2.251066  0  0  -0.374659  -0.63096  0  2.265306  0
O  O91  1  0.93172687  0.28312590  0.80295753  1  0  -0.697095  0  2.002265  0  0  -0.64862  0  2.259412  0  0  -0.673984  0  2.25076  0  0  -0.374701  -0.630955  0  2.264995  0
O  O92  1  0.72150132  0.64360876  0.19326381  1  0  -0.716665  0  1.972665  0  0  -0.671436  0  2.215928  0  0  -0.696406  0  2.207397  0  0  -0.383224  -0.653554  0  2.221117  0
O  O93  1  0.27849929  0.35639255  0.80674064  1  0  -0.716716  0  1.972596  0  0  -0.671489  0  2.215838  0  0  -0.696458  0  2.207302  0  0  -0.383263  -0.653607  0  2.221035  0
O  O94  1  0.64416344  0.39741573  0.13550465  1  0  -0.683686  0  1.980924  0  0  -0.634897  0  2.221436  0  0  -0.660036  0  2.214614  0  0  -0.382121  -0.61835  0  2.225955  0
O  O95  1  0.35583938  0.60258539  0.86449350  1  0  -0.683659  0  1.981066  0  0  -0.634874  0  2.221567  0  0  -0.66001  0  2.214738  0  0  -0.382085  -0.618339  0  2.226117  0
O  O96  1  0.13500366  0.43094139  0.19470432  1  0  -0.663218  0  2.010309  0  0  -0.62117  0  2.250788  0  0  -0.646279  0  2.245207  0  0  -0.351818  -0.604063  0  2.254126  0
O  O97  1  0.86499824  0.56904960  0.80528980  1  0  -0.663267  0  2.009921  0  0  -0.621228  0  2.250524  0  0  -0.646341  0  2.244947  0  0  -0.351883  -0.604116  0  2.253853  0
O  O98  1  0.11811664  0.42095645  0.01780963  1  0  -0.835287  0  2.15677  0  0  -0.769298  0  2.414097  0  0  -0.796372  0  2.40483  0  0  -0.449052  -0.750255  0  2.419969  0
O  O99  1  0.88188840  0.57905588  0.98219207  1  0  -0.83526  0  2.156834  0  0  -0.769213  0  2.414203  0  0  -0.796284  0  2.404948  0  0  -0.448991  -0.750131  0  2.419987  0
