# generated using pymatgen
data_Zn4H23C46N4O18F5
_symmetry_space_group_name_H-M   'P 1'
_cell_length_a   9.62990595
_cell_length_b   11.08817360
_cell_length_c   26.56955665
_cell_angle_alpha   90.17984583
_cell_angle_beta   89.51113536
_cell_angle_gamma   89.91686091
_symmetry_Int_Tables_number   1
_chemical_formula_structural   Zn4H23C46N4O18F5
_chemical_formula_sum   'Zn4 H23 C46 N4 O18 F5'
_cell_volume   2836.92561062
_cell_formula_units_Z   1
loop_
 _symmetry_equiv_pos_site_id
 _symmetry_equiv_pos_as_xyz
  1  'x, y, z'
loop_
 _atom_site_type_symbol
 _atom_site_label
 _atom_site_symmetry_multiplicity
 _atom_site_fract_x
 _atom_site_fract_y
 _atom_site_fract_z
 _atom_site_occupancy
 _atom_site_pbe_bader_charge
 _atom_site_pbe_bader_spin_density
 _atom_site_pbe_cm5_charge
 _atom_site_pbe_ddec_charge
 _atom_site_pbe_ddec_spin_density
 _atom_site_pbe_ddec_sum_bond_order
 _atom_site_pbe_magmom
Zn  Zn0  1  0.64098373  0.49684979  0.49943758  1  1.282262  0  0.663686  0.824255  0  2.430008  0
Zn  Zn1  1  0.35916073  0.50204239  0.49893980  1  1.257636  0  0.664796  0.804045  0  2.460827  0
Zn  Zn2  1  0.35950664  0.49986048  0.08333453  1  1.258825  0  0.661236  0.821512  0  2.419734  0
Zn  Zn3  1  0.64106603  0.50421216  0.08163072  1  1.257166  0  0.665148  0.803794  0  2.47367  0
H  H4  1  0.12763816  0.63551259  0.55432642  1  0.150668  0  0.142607  0.127059  0  0.956302  0
H  H5  1  0.14245335  0.36420579  0.44584419  1  0.19635  0  0.149782  0.155313  0  0.948995  0
H  H6  1  0.86049179  0.63102341  0.55218697  1  0.154447  0  0.142764  0.125566  0  0.958952  0
H  H7  1  0.72326933  0.89180688  0.49989775  1  0.098838  0  0.103495  0.1099  0  1.003447  0
H  H8  1  0.27676023  0.88217104  0.49923081  1  0.118167  0  0.110579  0.136794  0  0.995028  0
H  H9  1  0.71369584  0.11832173  0.49974418  1  0.087873  0  0.106782  0.114306  0  0.996656  0
H  H10  1  0.72476336  0.50059344  0.66035484  1  0.067584  0  0.10058  0.10971  0  1.023313  0
H  H11  1  0.27390483  0.50163719  0.92143212  1  0.064964  0  0.100048  0.108545  0  1.023702  0
H  H12  1  0.71819999  0.50192529  0.92033392  1  0.08146  0  0.097314  0.101853  0  1.01282  0
H  H13  1  0.71794261  0.50094518  0.82835730  1  0.126207  0  0.101382  0.11459  0  1.066493  0
H  H14  1  0.28051440  0.50100412  0.66129605  1  0.070788  0  0.097483  0.10196  0  1.011465  0
H  H15  1  0.28061723  0.50074154  0.75330241  1  0.118158  0  0.101177  0.113792  0  1.066312  0
H  H16  1  0.28120254  0.50201451  0.24358646  1  0.087973  0  0.10404  0.112554  0  1.001368  0
H  H17  1  0.72798125  0.50428320  0.24360909  1  0.098927  0  0.110538  0.136722  0  0.993695  0
H  H18  1  0.28166167  0.50176773  0.33814921  1  0.108722  0  0.106844  0.112812  0  0.997039  0
H  H19  1  0.87329043  0.63667443  0.02678123  1  0.150303  0  0.143729  0.128425  0  0.954433  0
H  H20  1  0.85699367  0.36677928  0.13512220  1  0.190924  0  0.149779  0.1551  0  0.94884  0
H  H21  1  0.14039314  0.63226291  0.02967309  1  0.129723  0  0.143615  0.12726  0  0.958493  0
H  H22  1  0.27658336  0.89484038  0.08173503  1  0.052156  0  0.103618  0.109999  0  1.002119  0
H  H23  1  0.72310465  0.88433205  0.08229452  1  0.125448  0  0.110537  0.136445  0  0.99572  0
H  H24  1  0.28600600  0.12130568  0.08173314  1  0.119485  0  0.106855  0.114068  0  0.997428  0
H  H25  1  0.82675281  0.49775346  0.72989385  1  0.577259  0  0.338384  0.363738  0  0.876197  0
H  H26  1  0.17182507  0.49847165  0.85186758  1  0.589438  0  0.337615  0.362753  0  0.877621  0
C  C27  1  0.50368771  0.73727944  0.50029189  1  1.53614  0  0.217327  0.596533  0  4.152862  0
C  C28  1  0.50546853  0.50232016  0.59810929  1  1.573904  0  0.214942  0.59713  0  4.152667  0
C  C29  1  0.49407947  0.26310927  0.49938099  1  1.534301  0  0.216284  0.613253  0  4.160294  0
C  C30  1  0.49549316  0.50156020  0.40055937  1  1.543435  0  0.216544  0.614351  0  4.15825  0
C  C31  1  0.49667640  0.73987290  0.08167348  1  1.595166  0  0.216625  0.59529  0  4.154004  0
C  C32  1  0.49413018  0.50392244  0.98360252  1  1.479483  0  0.215532  0.599122  0  4.149994  0
C  C33  1  0.50585363  0.26562645  0.08212579  1  1.611703  0  0.216308  0.613756  0  4.160455  0
C  C34  1  0.50639549  0.50371992  0.18120549  1  1.488531  0  0.217465  0.596083  0  4.151994  0
C  C35  1  0.93481039  0.42398617  0.46889652  1  1.188478  0  0.269083  0.414528  0  4.032524  0
C  C36  1  0.06970549  0.57506884  0.52987850  1  0.476825  0  0.069518  0.03059  0  3.886023  0
C  C37  1  0.07982761  0.42424949  0.46935328  1  0.566631  0  0.081609  -0.04258  0  3.835183  0
C  C38  1  0.92565270  0.57274918  0.52876259  1  0.538003  0  0.082482  0.087344  0  3.86673  0
C  C39  1  0.49210761  0.12781669  0.49942760  1  0.048062  0  -0.021281  -0.139497  0  3.937669  0
C  C40  1  0.50099032  0.87269085  0.50002996  1  0.028661  0  -0.010319  0.006375  0  3.968722  0
C  C41  1  0.37040379  0.05808320  0.49918304  1  0.410937  0  0.105469  0.283984  0  4.031505  0
C  C42  1  0.62438758  0.93955998  0.49996942  1  -0.050897  0  -0.090481  -0.116071  0  3.995965  0
C  C43  1  0.37336975  0.93298500  0.49955752  1  -0.003522  0  -0.09632  -0.228748  0  3.979273  0
C  C44  1  0.61900271  0.06470886  0.49975222  1  0.049494  0  -0.079753  -0.068387  0  3.980152  0
C  C45  1  0.50313966  0.50184993  0.65434340  1  -0.082391  0  -0.021369  -0.002196  0  4.016646  0
C  C46  1  0.49560790  0.50295906  0.92740044  1  0.045626  0  -0.022472  -0.003857  0  4.017684  0
C  C47  1  0.62657643  0.50114420  0.68130255  1  -0.003959  0  -0.111342  -0.254305  0  4.026631  0
C  C48  1  0.62819960  0.50041011  0.73381073  1  0.455976  0  0.082987  0.266056  0  4.020341  0
C  C49  1  0.37209785  0.50207217  0.90048703  1  0.033479  0  -0.111701  -0.254023  0  4.02619  0
C  C50  1  0.37041372  0.50092767  0.84795800  1  0.362424  0  0.082114  0.264302  0  4.019993  0
C  C51  1  0.62028220  0.50228666  0.90013735  1  -0.047799  0  -0.102361  -0.122053  0  4.039961  0
C  C52  1  0.61901955  0.50147691  0.84794548  1  -0.028146  0  -0.098942  -0.12738  0  3.991734  0
C  C53  1  0.37837904  0.50144636  0.68152564  1  0.10928  0  -0.101612  -0.121897  0  4.03992  0
C  C54  1  0.37955060  0.50106118  0.73372724  1  -0.149001  0  -0.098543  -0.125392  0  3.992975  0
C  C55  1  0.50237333  0.50079514  0.76286768  1  -0.023429  0  -0.010423  -0.01241  0  3.897455  0
C  C56  1  0.49612581  0.50103503  0.81882807  1  0.066865  0  -0.008621  -0.00917  0  3.894554  0
C  C57  1  0.50277998  0.50221322  0.34413011  1  0.0574  0  -0.020021  -0.138147  0  3.933882  0
C  C58  1  0.50421336  0.50322728  0.23764930  1  0.075047  0  -0.010292  0.008261  0  3.969126  0
C  C59  1  0.62736422  0.50284158  0.31616224  1  0.475935  0  0.107334  0.287338  0  4.024692  0
C  C60  1  0.37810687  0.50241799  0.26440429  1  -0.084401  0  -0.089785  -0.116087  0  3.990123  0
C  C61  1  0.62934555  0.50346630  0.26390800  1  0.013075  0  -0.095894  -0.229574  0  3.978458  0
C  C62  1  0.37851469  0.50206923  0.31665750  1  0.008701  0  -0.079993  -0.069194  0  3.98412  0
C  C63  1  0.06490113  0.42699285  0.11294323  1  1.168686  0  0.266987  0.409477  0  4.038337  0
C  C64  1  0.93088937  0.57655343  0.05137487  1  0.495109  0  0.071159  0.032316  0  3.881301  0
C  C65  1  0.91995579  0.42662070  0.11186180  1  0.564131  0  0.08156  -0.042185  0  3.83515  0
C  C66  1  0.07495374  0.57445528  0.05296368  1  0.551967  0  0.08196  0.08648  0  3.864532  0
C  C67  1  0.50758178  0.13037820  0.08191862  1  -0.01974  0  -0.019939  -0.137285  0  3.938162  0
C  C68  1  0.49888059  0.87526010  0.08164834  1  -0.038086  0  -0.010044  0.00675  0  3.967512  0
C  C69  1  0.62934275  0.06041352  0.08209986  1  0.3618  0  0.105912  0.283974  0  4.028576  0
C  C70  1  0.37544562  0.94237387  0.08161994  1  0.010998  0  -0.090588  -0.116857  0  3.995271  0
C  C71  1  0.62646790  0.93531435  0.08193188  1  0.109892  0  -0.096359  -0.227701  0  3.975842  0
C  C72  1  0.38074278  0.06751443  0.08170640  1  -0.061481  0  -0.079593  -0.067843  0  3.981672  0
N  N73  1  0.85871487  0.49621532  0.49782461  1  -1.214069  0  -0.291877  -0.243369  0  3.464177  0
N  N74  1  0.14442972  0.50075429  0.50008019  1  -1.198221  0  -0.285747  -0.104328  0  3.520269  0
N  N75  1  0.14144358  0.49880616  0.08428042  1  -1.191978  0  -0.291024  -0.242742  0  3.465649  0
N  N76  1  0.85580536  0.50256868  0.08089644  1  -1.195286  0  -0.285919  -0.103319  0  3.514874  0
O  O77  1  0.62164531  0.68546232  0.50108035  1  -1.162884  0  -0.31732  -0.550618  0  2.296596  0
O  O78  1  0.38598146  0.68445847  0.49958723  1  -1.161439  0  -0.321114  -0.549822  0  2.328877  0
O  O79  1  0.38866220  0.50095798  0.57585173  1  -1.168869  0  -0.320206  -0.552723  0  2.3137  0
O  O80  1  0.62434244  0.50380704  0.57638003  1  -1.170357  0  -0.324141  -0.552913  0  2.317342  0
O  O81  1  0.37866403  0.31857653  0.49612042  1  -1.158755  0  -0.318996  -0.548991  0  2.352251  0
O  O82  1  0.61285615  0.31285955  0.50261826  1  -1.150903  0  -0.31901  -0.550489  0  2.325723  0
O  O83  1  0.60985917  0.50053291  0.42424698  1  -1.152377  0  -0.318587  -0.549682  0  2.375877  0
O  O84  1  0.37499553  0.50204847  0.42074082  1  -1.159047  0  -0.319746  -0.550127  0  2.296969  0
O  O85  1  0.37884936  0.68782742  0.08175769  1  -1.160575  0  -0.317567  -0.550973  0  2.298687  0
O  O86  1  0.61456052  0.68716857  0.08169929  1  -1.162582  0  -0.319947  -0.548492  0  2.326906  0
O  O87  1  0.61174013  0.50323364  0.00536457  1  -1.163311  0  -0.321477  -0.552782  0  2.323846  0
O  O88  1  0.37606159  0.50511680  0.00593693  1  -1.169018  0  -0.32451  -0.556135  0  2.30989  0
O  O89  1  0.62168606  0.32049642  0.08394719  1  -1.146472  0  -0.318625  -0.548877  0  2.352347  0
O  O90  1  0.38690998  0.31598934  0.08050320  1  -1.15819  0  -0.319661  -0.551825  0  2.326336  0
O  O91  1  0.38916944  0.50397251  0.15923552  1  -1.155056  0  -0.318386  -0.549907  0  2.339268  0
O  O92  1  0.62465328  0.50376483  0.15934670  1  -1.167048  0  -0.319335  -0.548296  0  2.312745  0
O  O93  1  0.75650511  0.49917181  0.75649872  1  -1.094353  0  -0.350031  -0.442619  0  2.318371  0
O  O94  1  0.24211849  0.49952442  0.82528201  1  -1.112347  0  -0.348832  -0.440867  0  2.318998  0
F  F95  1  0.86860431  0.34828586  0.43849815  1  -0.605439  0  -0.047207  -0.100259  0  1.3605  0
F  F96  1  0.24257437  0.11076836  0.49868120  1  -0.626538  0  -0.113092  -0.154616  0  1.342214  0
F  F97  1  0.75295207  0.50299077  0.33915228  1  -0.623757  0  -0.110582  -0.150388  0  1.347714  0
F  F98  1  0.13071456  0.35263161  0.14400196  1  -0.606905  0  -0.049529  -0.103382  0  1.354175  0
F  F99  1  0.75718743  0.11272436  0.08249934  1  -0.629264  0  -0.113093  -0.154786  0  1.341501  0
