# generated using pymatgen
data_CdH14C16(N4O)2
_symmetry_space_group_name_H-M   'P 1'
_cell_length_a   7.08450702
_cell_length_b   7.65895888
_cell_length_c   9.60661309
_cell_angle_alpha   72.31385489
_cell_angle_beta   70.90976537
_cell_angle_gamma   85.11275803
_symmetry_Int_Tables_number   1
_chemical_formula_structural   CdH14C16(N4O)2
_chemical_formula_sum   'Cd1 H14 C16 N8 O2'
_cell_volume   469.24750550
_cell_formula_units_Z   1
loop_
 _symmetry_equiv_pos_site_id
 _symmetry_equiv_pos_as_xyz
  1  'x, y, z'
loop_
 _atom_site_type_symbol
 _atom_site_label
 _atom_site_symmetry_multiplicity
 _atom_site_fract_x
 _atom_site_fract_y
 _atom_site_fract_z
 _atom_site_occupancy
 _atom_site_hle17_bader_spin_density
 _atom_site_hle17_ddec_charge
 _atom_site_hle17_ddec_spin_density
 _atom_site_hle17_ddec_sum_bond_order
 _atom_site_hle17_magmom
 _atom_site_hse06_10hf_bader_spin_density
 _atom_site_hse06_10hf_ddec_charge
 _atom_site_hse06_10hf_ddec_spin_density
 _atom_site_hse06_10hf_ddec_sum_bond_order
 _atom_site_hse06_10hf_magmom
 _atom_site_hse06_bader_spin_density
 _atom_site_hse06_ddec_charge
 _atom_site_hse06_ddec_spin_density
 _atom_site_hse06_ddec_sum_bond_order
 _atom_site_hse06_magmom
 _atom_site_pbe_bader_spin_density
 _atom_site_pbe_cm5_charge
 _atom_site_pbe_ddec_charge
 _atom_site_pbe_ddec_spin_density
 _atom_site_pbe_ddec_sum_bond_order
 _atom_site_pbe_magmom
Cd  Cd0  1  0.99999863  0.00001791  0.00000079  1  0  1.138518  0  1.883433  0  0  0.943724  0  2.380218  0  0  0.992  0  2.33251  0  0  0.83142  0.91073  0  2.411719  0
H  H1  1  0.52531781  0.99589466  0.11266177  1  0  0.078675  0  0.953115  0  0  0.086559  0  1.021648  0  0  0.088236  0  1.019858  0  0  0.112707  0.085272  0  1.023036  0
H  H2  1  0.47467715  0.00411149  0.88734112  1  0  0.078662  0  0.953134  0  0  0.086545  0  1.021669  0  0  0.088223  0  1.019878  0  0  0.112751  0.08526  0  1.023055  0
H  H3  1  0.23381704  0.86203068  0.34091890  1  0  0.127714  0  0.954122  0  0  0.13688  0  1.015522  0  0  0.140396  0  1.013975  0  0  0.110277  0.134356  0  1.016962  0
H  H4  1  0.76618358  0.13796171  0.65908080  1  0  0.127729  0  0.9541  0  0  0.136888  0  1.015496  0  0  0.140403  0  1.013947  0  0  0.110262  0.134363  0  1.016938  0
H  H5  1  0.91907496  0.82012150  0.36267519  1  0  0.075518  0  0.937636  0  0  0.086622  0  0.997939  0  0  0.089114  0  0.994689  0  0  0.115409  0.084781  0  1.000286  0
H  H6  1  0.08092729  0.17987636  0.63732070  1  0  0.075574  0  0.937656  0  0  0.08666  0  0.997967  0  0  0.089154  0  0.994716  0  0  0.115411  0.08482  0  1.000316  0
H  H7  1  0.64707553  0.68157625  0.60359409  1  0  0.122187  0  0.992689  0  0  0.125097  0  1.063479  0  0  0.128988  0  1.062456  0  0  0.105329  0.122866  0  1.063548  0
H  H8  1  0.35293082  0.31840511  0.39639861  1  0  0.122057  0  0.992731  0  0  0.125003  0  1.063493  0  0  0.128896  0  1.062468  0  0  0.105274  0.12277  0  1.063564  0
H  H9  1  0.39563264  0.47011452  0.73797605  1  0  0.08295  0  0.955707  0  0  0.098947  0  1.023774  0  0  0.098406  0  1.02582  0  0  0.09626  0.099384  0  1.022334  0
H  H10  1  0.60437371  0.52986685  0.26201977  1  0  0.083014  0  0.955749  0  0  0.099005  0  1.023851  0  0  0.098463  0  1.0259  0  0  0.09629  0.099445  0  1.022406  0
H  H11  1  0.14348948  0.52004571  0.83215563  1  0  0.085442  0  0.964041  0  0  0.102878  0  1.029454  0  0  0.101726  0  1.031444  0  0  0.100682  0.103554  0  1.02826  0
H  H12  1  0.85651677  0.47993155  0.16784018  1  0  0.085472  0  0.963939  0  0  0.10292  0  1.029364  0  0  0.101771  0  1.031351  0  0  0.10072  0.103584  0  1.028195  0
H  H13  1  0.34179429  0.67245933  0.80143253  1  0  0.086351  0  0.957989  0  0  0.09948  0  1.03043  0  0  0.09916  0  1.031705  0  0  0.097235  0.099604  0  1.029831  0
H  H14  1  0.65821053  0.32752068  0.19856399  1  0  0.086235  0  0.958035  0  0  0.099481  0  1.030358  0  0  0.099161  0  1.031633  0  0  0.097241  0.099608  0  1.029734  0
C  C15  1  0.54553442  0.92434415  0.22349762  1  0  0.140265  0  3.750603  0  0  0.107997  0  4.005203  0  0  0.117147  0  4.02394  0  0  0.038153  0.102295  0  3.99232  0
C  C16  1  0.45446340  0.07565649  0.77650385  1  0  0.140257  0  3.750625  0  0  0.108018  0  4.005231  0  0  0.117166  0  4.023971  0  0  0.03813  0.102315  0  3.99235  0
C  C17  1  0.38322859  0.84989845  0.35086546  1  0  -0.233903  0  3.717623  0  0  -0.254464  0  3.973379  0  0  -0.265028  0  3.992252  0  0  -0.098811  -0.247905  0  3.961386  0
C  C18  1  0.61677197  0.15009120  0.64913493  1  0  -0.233919  0  3.717507  0  0  -0.254507  0  3.973238  0  0  -0.265069  0  3.992108  0  0  -0.098792  -0.247949  0  3.961245  0
C  C19  1  0.76452830  0.82705642  0.36315015  1  0  0.161791  0  3.73642  0  0  0.130425  0  3.986197  0  0  0.140762  0  4.002311  0  0  0.046449  0.123964  0  3.974942  0
C  C20  1  0.23547236  0.17293734  0.63684713  1  0  0.161749  0  3.736453  0  0  0.130407  0  3.986241  0  0  0.140742  0  4.002355  0  0  0.046471  0.123944  0  3.97499  0
C  C21  1  0.61179135  0.74801135  0.49774654  1  0  -0.25616  0  3.717865  0  0  -0.271209  0  3.968064  0  0  -0.282382  0  3.987375  0  0  -0.107352  -0.264309  0  3.95501  0
C  C22  1  0.38821198  0.25196867  0.50225033  1  0  -0.255988  0  3.717775  0  0  -0.271094  0  3.96795  0  0  -0.282264  0  3.987253  0  0  -0.107322  -0.264196  0  3.954895  0
C  C23  1  0.41568812  0.75675321  0.49140516  1  0  0.322931  0  3.805802  0  0  0.309231  0  4.062994  0  0  0.326455  0  4.075878  0  0  0.102703  0.297423  0  4.054541  0
C  C24  1  0.58431527  0.24322955  0.50859207  1  0  0.322847  0  3.805748  0  0  0.309213  0  4.062839  0  0  0.326436  0  4.075721  0  0  0.102681  0.297409  0  4.054382  0
C  C25  1  0.79267903  0.71067010  0.86955317  1  0  0.509085  0  3.98459  0  0  0.47082  0  4.267309  0  0  0.497275  0  4.27759  0  0  0.306876  0.452917  0  4.259791  0
C  C26  1  0.20731961  0.28936624  0.13045394  1  0  0.50923  0  3.984554  0  0  0.471007  0  4.267285  0  0  0.497469  0  4.277568  0  0  0.306971  0.4531  0  4.259763  0
C  C27  1  0.77775146  0.41102260  0.87580334  1  0  0.504006  0  3.998749  0  0  0.465012  0  4.283895  0  0  0.491799  0  4.294056  0  0  0.305461  0.446589  0  4.277122  0
C  C28  1  0.22222490  0.58901934  0.12420673  1  0  0.504144  0  3.999254  0  0  0.465203  0  4.284332  0  0  0.491988  0  4.294487  0  0  0.30566  0.446782  0  4.277565  0
C  C29  1  0.28818150  0.58018606  0.75410386  1  0  -0.075417  0  3.616371  0  0  -0.173118  0  3.881183  0  0  -0.165728  0  3.886968  0  0  -0.144504  -0.178132  0  3.877238  0
C  C30  1  0.71182472  0.41978982  0.24589020  1  0  -0.075415  0  3.616378  0  0  -0.17325  0  3.881158  0  0  -0.165862  0  3.886942  0  0  -0.14454  -0.178253  0  3.877202  0
N  N31  1  0.73479772  0.91247048  0.22772591  1  0  -0.37555  0  3.293709  0  0  -0.296637  0  3.561076  0  0  -0.318367  0  3.57975  0  0  -0.347735  -0.282084  0  3.547508  0
N  N32  1  0.26520318  0.08753426  0.77227174  1  0  -0.375544  0  3.293758  0  0  -0.296687  0  3.56116  0  0  -0.318418  0  3.579839  0  0  -0.347749  -0.282137  0  3.547599  0
N  N33  1  0.84393337  0.83899395  0.89224951  1  0  -0.605939  0  2.787384  0  0  -0.558939  0  3.069864  0  0  -0.581146  0  3.073871  0  0  -0.384137  -0.543647  0  3.066588  0
N  N34  1  0.15607093  0.16102860  0.10774608  1  0  -0.606165  0  2.787156  0  0  -0.559142  0  3.069597  0  0  -0.58136  0  3.073609  0  0  -0.384234  -0.543845  0  3.066315  0
N  N35  1  0.81475008  0.25347614  0.90494546  1  0  -0.614133  0  2.794455  0  0  -0.567958  0  3.080496  0  0  -0.59039  0  3.08435  0  0  -0.386341  -0.553025  0  3.078472  0
N  N36  1  0.18523175  0.74654383  0.09506659  1  0  -0.614143  0  2.795088  0  0  -0.568008  0  3.081157  0  0  -0.590432  0  3.085003  0  0  -0.386459  -0.553081  0  3.079138  0
N  N37  1  0.72530414  0.58044187  0.83770614  1  0  -0.463679  0  3.292135  0  0  -0.40455  0  3.547188  0  0  -0.428236  0  3.550251  0  0  -0.306768  -0.388139  0  3.544114  0
N  N38  1  0.27467781  0.41958359  0.16230557  1  0  -0.46373  0  3.292228  0  0  -0.404683  0  3.547368  0  0  -0.428373  0  3.55043  0  0  -0.306862  -0.388269  0  3.54428  0
O  O39  1  0.25429932  0.68016576  0.61124754  1  0  -0.241374  0  2.319128  0  0  -0.164896  0  2.549743  0  0  -0.184146  0  2.55187  0  0  -0.177578  -0.151086  0  2.54763  0
O  O40  1  0.74570848  0.31981424  0.38874930  1  0  -0.241345  0  2.319116  0  0  -0.164881  0  2.549759  0  0  -0.184131  0  2.551883  0  0  -0.177635  -0.151078  0  2.547646  0
