# generated using pymatgen
data_AgH13C9NO2
_symmetry_space_group_name_H-M   'P 1'
_cell_length_a   6.71732534
_cell_length_b   9.86449159
_cell_length_c   15.14467577
_cell_angle_alpha   90.00045455
_cell_angle_beta   90.00050815
_cell_angle_gamma   103.53185648
_symmetry_Int_Tables_number   1
_chemical_formula_structural   AgH13C9NO2
_chemical_formula_sum   'Ag4 H52 C36 N4 O8'
_cell_volume   975.67357607
_cell_formula_units_Z   4
loop_
 _symmetry_equiv_pos_site_id
 _symmetry_equiv_pos_as_xyz
  1  'x, y, z'
loop_
 _atom_site_type_symbol
 _atom_site_label
 _atom_site_symmetry_multiplicity
 _atom_site_fract_x
 _atom_site_fract_y
 _atom_site_fract_z
 _atom_site_occupancy
 _atom_site_pbe_bader_spin_density
 _atom_site_pbe_cm5_charge
 _atom_site_pbe_ddec_charge
 _atom_site_pbe_ddec_spin_density
 _atom_site_pbe_ddec_sum_bond_order
 _atom_site_pbe_magmom
Ag  Ag0  1  0.88587959  0.56271333  0.97278469  1  0  0.435102  0.383349  0  2.013181  0
Ag  Ag1  1  0.11409875  0.43727425  0.47276684  1  0  0.435132  0.3834  0  2.0134  0
Ag  Ag2  1  0.95558997  0.56937406  0.15593210  1  0  0.433601  0.371869  0  1.985481  0
Ag  Ag3  1  0.04442861  0.43061017  0.65592148  1  0  0.433619  0.371834  0  1.985436  0
H  H4  1  0.64278920  0.82497152  0.22800962  1  0  0.102665  0.152735  0  0.967396  0
H  H5  1  0.35722008  0.17503694  0.72801081  1  0  0.102628  0.152685  0  0.967303  0
H  H6  1  0.71232378  0.72262331  0.14157119  1  0  0.084278  0.114757  0  1.079983  0
H  H7  1  0.28767439  0.27736290  0.64156141  1  0  0.084245  0.114781  0  1.079788  0
H  H8  1  0.45225511  0.73700001  0.15399092  1  0  0.100512  0.15888  0  1.025389  0
H  H9  1  0.54776417  0.26300299  0.65398870  1  0  0.100528  0.1589  0  1.025365  0
H  H10  1  0.45245637  0.05761043  0.92658609  1  0  0.080561  0.067272  0  1.022873  0
H  H11  1  0.54752413  0.94237323  0.42658975  1  0  0.080551  0.067282  0  1.022872  0
H  H12  1  0.19782730  0.97148658  0.89950780  1  0  0.087358  0.092316  0  1.01608  0
H  H13  1  0.80214733  0.02851549  0.39950378  1  0  0.087341  0.092293  0  1.01622  0
H  H14  1  0.09783609  0.61844719  0.33918172  1  0  0.093234  0.142811  0  1.032696  0
H  H15  1  0.90215743  0.38154855  0.83920860  1  0  0.093219  0.142919  0  1.032603  0
H  H16  1  0.30585219  0.74590730  0.37811364  1  0  0.103245  0.156172  0  0.990034  0
H  H17  1  0.69413488  0.25410166  0.87811922  1  0  0.103278  0.156271  0  0.990191  0
H  H18  1  0.24923051  0.73988991  0.26343624  1  0  0.097121  0.155924  0  1.034467  0
H  H19  1  0.75077594  0.26012541  0.76344737  1  0  0.097127  0.155931  0  1.034557  0
H  H20  1  0.85957155  0.96945162  0.11774593  1  0  0.085961  0.121796  0  1.031504  0
H  H21  1  0.14045016  0.03056436  0.61773560  1  0  0.085944  0.121769  0  1.031512  0
H  H22  1  0.85925762  0.14904726  0.11380050  1  0  0.086144  0.11946  0  1.029214  0
H  H23  1  0.14075545  0.85094886  0.61379047  1  0  0.086081  0.119425  0  1.029256  0
H  H24  1  0.87102001  0.05516492  0.01441552  1  0  0.089036  0.129737  0  1.004757  0
H  H25  1  0.12898868  0.94484110  0.51440196  1  0  0.089018  0.129758  0  1.004728  0
H  H26  1  0.89513887  0.33631014  0.23201950  1  0  0.089991  0.136386  0  1.060548  0
H  H27  1  0.10486901  0.66367749  0.73202486  1  0  0.089984  0.136412  0  1.060422  0
H  H28  1  0.89049513  0.31451326  0.34905331  1  0  0.088467  0.134745  0  1.05459  0
H  H29  1  0.10948861  0.68548375  0.84905087  1  0  0.088508  0.134757  0  1.054571  0
H  H30  1  0.70902731  0.20012888  0.28401263  1  0  0.100402  0.143276  0  0.995342  0
H  H31  1  0.29095850  0.79986914  0.78401613  1  0  0.100412  0.143282  0  0.995343  0
H  H32  1  0.49565577  0.33872302  0.12814195  1  0  0.083978  0.118432  0  1.056849  0
H  H33  1  0.50437103  0.66125653  0.62813369  1  0  0.083982  0.118448  0  1.056873  0
H  H34  1  0.57189652  0.22743086  0.04872710  1  0  0.087176  0.121268  0  1.022429  0
H  H35  1  0.42809001  0.77254450  0.54873893  1  0  0.087114  0.121162  0  1.022353  0
H  H36  1  0.54026982  0.39369296  0.01741019  1  0  0.073018  0.094043  0  1.078472  0
H  H37  1  0.45976792  0.60629412  0.51740742  1  0  0.073094  0.094074  0  1.078367  0
H  H38  1  0.58554478  0.28384534  0.47433295  1  0  0.102674  0.154233  0  0.985081  0
H  H39  1  0.41442579  0.71615798  0.97433717  1  0  0.102608  0.154104  0  0.9854  0
H  H40  1  0.31532597  0.24179555  0.45529195  1  0  0.093112  0.147203  0  1.054319  0
H  H41  1  0.68464338  0.75821792  0.95531265  1  0  0.093128  0.14714  0  1.054414  0
H  H42  1  0.48058609  0.16526725  0.38991465  1  0  0.09937  0.143809  0  1.002384  0
H  H43  1  0.51937900  0.83473785  0.88992122  1  0  0.099319  0.143709  0  1.002347  0
H  H44  1  0.16286684  0.19843470  0.22184448  1  0  0.08584  0.130781  0  1.016011  0
H  H45  1  0.83714190  0.80156008  0.72182375  1  0  0.085877  0.130812  0  1.015878  0
H  H46  1  0.14646090  0.01479177  0.22201169  1  0  0.085275  0.126615  0  1.007334  0
H  H47  1  0.85352965  0.98519790  0.72201772  1  0  0.085264  0.126647  0  1.007422  0
H  H48  1  0.38252213  0.13300269  0.19824239  1  0  0.081888  0.110218  0  1.034904  0
H  H49  1  0.61749790  0.86700417  0.69822641  1  0  0.081875  0.110263  0  1.034922  0
H  H50  1  0.40388088  0.99982591  0.07355003  1  0  0.099225  0.090845  0  0.977849  0
H  H51  1  0.59612633  0.00018526  0.57354664  1  0  0.099182  0.090735  0  0.977928  0
H  H52  1  0.32886411  0.26362067  0.89639491  1  0  0.081478  0.078519  0  1.044196  0
H  H53  1  0.67113235  0.73638853  0.39639337  1  0  0.08147  0.078508  0  1.044192  0
H  H54  1  0.07441232  0.17695522  0.91810874  1  0  0.089906  0.094847  0  1.002371  0
H  H55  1  0.92558469  0.82304597  0.41809480  1  0  0.089887  0.094821  0  1.002298  0
C  C56  1  0.13069364  0.84750042  0.05221948  1  0  0.200894  0.583567  0  4.180864  0
C  C57  1  0.86930524  0.15251359  0.55220807  1  0  0.200932  0.583561  0  4.18097  0
C  C58  1  0.59159815  0.72844860  0.18940362  1  0  -0.238587  -0.441807  0  3.922848  0
C  C59  1  0.40841052  0.27155191  0.68939759  1  0  -0.238554  -0.441765  0  3.922259  0
C  C60  1  0.29100923  0.04752195  0.94467989  1  0  -0.174149  -0.169313  0  3.920054  0
C  C61  1  0.70898621  0.95247760  0.44467566  1  0  -0.174179  -0.169431  0  3.920189  0
C  C62  1  0.25367549  0.67550821  0.32195632  1  0  -0.246092  -0.467114  0  3.92854  0
C  C63  1  0.74632390  0.32450080  0.82196842  1  0  -0.246165  -0.467394  0  3.928793  0
C  C64  1  0.55312703  0.60410237  0.24864846  1  0  0.12883  0.226628  0  3.912078  0
C  C65  1  0.44685083  0.39588781  0.74865644  1  0  0.128833  0.226603  0  3.911903  0
C  C66  1  0.92365697  0.06775289  0.08318570  1  0  -0.248662  -0.424507  0  3.888988  0
C  C67  1  0.07636386  0.93225417  0.58317649  1  0  -0.248511  -0.424446  0  3.888866  0
C  C68  1  0.79423895  0.30944014  0.28954638  1  0  -0.238676  -0.445665  0  3.938116  0
C  C69  1  0.20576816  0.69055470  0.78955096  1  0  -0.238645  -0.445556  0  3.938221  0
C  C70  1  0.47766788  0.30296288  0.05970324  1  0  -0.250547  -0.398758  0  3.914465  0
C  C71  1  0.52235235  0.69703126  0.55969921  1  0  -0.250549  -0.398669  0  3.914199  0
C  C72  1  0.65247440  0.40490800  0.29740191  1  0  0.121903  0.210791  0  3.928072  0
C  C73  1  0.34752140  0.59509227  0.79741250  1  0  0.121808  0.2105  0  3.92834  0
C  C74  1  0.46565975  0.26126150  0.42321502  1  0  -0.237692  -0.44018  0  3.90122  0
C  C75  1  0.53431807  0.73874826  0.92322578  1  0  -0.237584  -0.439972  0  3.901256  0
C  C76  1  0.21597144  0.11394751  0.18919989  1  0  -0.250094  -0.418797  0  3.908637  0
C  C77  1  0.78404947  0.88605815  0.68918401  1  0  -0.250057  -0.418876  0  3.908862  0
C  C78  1  0.39214418  0.57833960  0.31053847  1  0  0.125229  0.223408  0  3.9261  0
C  C79  1  0.60784973  0.42165881  0.81055052  1  0  0.125306  0.223509  0  3.925833  0
C  C80  1  0.49288969  0.38042085  0.35992251  1  0  0.127596  0.227055  0  3.919714  0
C  C81  1  0.50708207  0.61957119  0.85994179  1  0  0.127657  0.227424  0  3.919892  0
C  C82  1  0.15861110  0.10544161  0.09116068  1  0  -0.000543  0.204628  0  3.670389  0
C  C83  1  0.84140473  0.89456770  0.59115101  1  0  -0.000612  0.204552  0  3.670728  0
C  C84  1  0.25624178  0.99676595  0.04128228  1  0  -0.08597  -0.163458  0  3.768085  0
C  C85  1  0.74376610  0.00324886  0.54127356  1  0  -0.08598  -0.163234  0  3.767886  0
C  C86  1  0.23236487  0.18883459  0.94112245  1  0  -0.172786  -0.188533  0  3.899505  0
C  C87  1  0.76763940  0.81116485  0.44112169  1  0  -0.172763  -0.188468  0  3.899338  0
C  C88  1  0.25177578  0.24230413  0.03677907  1  0  -0.013245  0.026688  0  3.72285  0
C  C89  1  0.74825093  0.75769691  0.53678021  1  0  -0.013283  0.026633  0  3.722815  0
C  C90  1  0.13505626  0.35665449  0.05342789  1  0  0.203238  0.565867  0  4.137811  0
C  C91  1  0.86494525  0.64333339  0.55343749  1  0  0.203208  0.565997  0  4.137701  0
N  N92  1  0.68037933  0.51689927  0.24368173  1  0  -0.322077  -0.267851  0  3.513387  0
N  N93  1  0.31962997  0.48310004  0.74367908  1  0  -0.322084  -0.267911  0  3.513392  0
N  N94  1  0.36576701  0.46739431  0.36496716  1  0  -0.315875  -0.276674  0  3.460218  0
N  N95  1  0.63422382  0.53261754  0.86497659  1  0  -0.315934  -0.276752  0  3.460372  0
O  O96  1  0.01506646  0.79287569  0.98860496  1  0  -0.33403  -0.543352  0  2.376948  0
O  O97  1  0.98495536  0.20714113  0.48860127  1  0  -0.333968  -0.543251  0  2.377118  0
O  O98  1  0.14933791  0.78832615  0.12544312  1  0  -0.333059  -0.551586  0  2.358449  0
O  O99  1  0.85067285  0.21168376  0.62543656  1  0  -0.333116  -0.5516  0  2.358617  0
O  O100  1  0.16013693  0.41787455  0.12776841  1  0  -0.331624  -0.524415  0  2.300605  0
O  O101  1  0.83983118  0.58211162  0.62778090  1  0  -0.331617  -0.524572  0  2.30043  0
O  O102  1  0.02121034  0.38129311  0.99089382  1  0  -0.3346  -0.53897  0  2.402621  0
O  O103  1  0.97878331  0.61869466  0.49090280  1  0  -0.33456  -0.538953  0  2.402435  0
