# generated using pymatgen
data_CuH20C14S4(NO4)2
_symmetry_space_group_name_H-M   'P 1'
_cell_length_a   6.90419681
_cell_length_b   7.67107386
_cell_length_c   10.19837357
_cell_angle_alpha   68.45017361
_cell_angle_beta   81.68787390
_cell_angle_gamma   74.91353296
_symmetry_Int_Tables_number   1
_chemical_formula_structural   CuH20C14S4(NO4)2
_chemical_formula_sum   'Cu1 H20 C14 S4 N2 O8'
_cell_volume   484.34000554
_cell_formula_units_Z   1
loop_
 _symmetry_equiv_pos_site_id
 _symmetry_equiv_pos_as_xyz
  1  'x, y, z'
loop_
 _atom_site_type_symbol
 _atom_site_label
 _atom_site_symmetry_multiplicity
 _atom_site_fract_x
 _atom_site_fract_y
 _atom_site_fract_z
 _atom_site_occupancy
 _atom_site_hle17_ddec_charge
 _atom_site_hle17_ddec_spin_density
 _atom_site_hle17_ddec_sum_bond_order
 _atom_site_hle17_magmom
 _atom_site_hse06_10hf_ddec_charge
 _atom_site_hse06_10hf_ddec_spin_density
 _atom_site_hse06_10hf_ddec_sum_bond_order
 _atom_site_hse06_10hf_magmom
 _atom_site_hse06_ddec_charge
 _atom_site_hse06_ddec_spin_density
 _atom_site_hse06_ddec_sum_bond_order
 _atom_site_hse06_magmom
 _atom_site_pbe_cm5_charge
 _atom_site_pbe_ddec_charge
 _atom_site_pbe_ddec_spin_density
 _atom_site_pbe_ddec_sum_bond_order
 _atom_site_pbe_magmom
Cu  Cu0  1  0.50000716  0.99999749  0.50000220  1  0.895885  -0.687937  1.725684  -0.51  0.878237  -0.781845  2.100146  -0.634  0.967653  -0.850388  2.037775  -0.723  0.738161  0.820226  -0.731903  2.147207  -0.574
H  H1  1  0.11881044  0.88401087  0.52302232  1  0.091791  -0.000728  0.962277  -0.002  0.097868  -0.000644  1.026998  -0.001  0.100552  -0.000446  1.023891  -0.001  0.119715  0.095768  -0.0008  1.029343  -0.002
H  H2  1  0.88119830  0.11600274  0.47697932  1  0.091871  -0.000731  0.962212  -0.002  0.097949  -0.000645  1.026934  -0.001  0.100636  -0.000446  1.023824  -0.001  0.119705  0.095849  -0.0008  1.029279  -0.002
H  H3  1  0.97859436  0.69408814  0.42602125  1  0.125078  -0.000595  0.960101  -0.001  0.131083  -0.000473  1.025666  0.0  0.134563  -0.000322  1.02403  0.0  0.112256  0.12852  -0.000615  1.027097  -0.001
H  H4  1  0.02140916  0.30591553  0.57398445  1  0.125136  -0.000599  0.960154  -0.001  0.13107  -0.000473  1.025802  0.0  0.13455  -0.000322  1.024165  0.0  0.112279  0.128505  -0.000614  1.027233  -0.001
H  H5  1  0.57445476  0.52905898  0.24386330  1  0.109946  -0.000546  0.984782  0.0  0.111168  -0.000428  1.060964  0.0  0.114444  -0.000277  1.060215  0.0  0.106142  0.108632  -0.000558  1.061963  -0.001
H  H6  1  0.42555217  0.47093626  0.75613547  1  0.110022  -0.000546  0.984739  0.0  0.111211  -0.000428  1.060946  0.0  0.114484  -0.000277  1.060201  0.0  0.10616  0.108666  -0.000557  1.06195  -0.001
H  H7  1  0.68871598  0.72539164  0.34819881  1  0.097162  -0.000886  0.968086  -0.002  0.102673  -0.00066  1.034551  -0.002  0.105627  -0.000422  1.031373  -0.001  0.117683  0.100384  -0.000887  1.037038  -0.002
H  H8  1  0.31129069  0.27459786  0.65180248  1  0.097134  -0.000887  0.967942  -0.002  0.102633  -0.00066  1.034452  -0.002  0.105584  -0.000421  1.031282  -0.001  0.117635  0.10034  -0.000886  1.036947  -0.002
H  H9  1  0.56064975  0.87173417  0.87876133  1  0.160548  5e-06  0.934852  0.0  0.177492  -2e-06  0.990556  0.0  0.179184  8e-06  0.990675  0.0  0.107544  0.176127  -2e-06  0.990725  0.0
H  H10  1  0.43933768  0.12827005  0.12123784  1  0.160583  1e-05  0.934876  0.0  0.177492  -2e-06  0.990598  0.0  0.179181  8e-06  0.990719  0.0  0.107531  0.17613  -2e-06  0.990768  0.0
H  H11  1  0.39399648  0.76842401  0.02072136  1  0.162487  5.6e-05  0.962106  0.0  0.179014  1.7e-05  1.019767  0.0  0.180885  1.3e-05  1.019933  0.0  0.106445  0.177565  -1.6e-05  1.019826  0.0
H  H12  1  0.60598685  0.23157888  0.97927754  1  0.162462  5.8e-05  0.962204  0.0  0.178967  1.7e-05  1.019857  0.0  0.180838  1.3e-05  1.020019  0.0  0.10642  0.177509  -1.6e-05  1.019935  0.0
H  H13  1  0.32431421  0.02350615  0.91440610  1  0.14748  1.6e-05  0.933979  0.0  0.168738  6e-05  0.985754  0.0  0.170322  7.7e-05  0.985866  0.0  0.104956  0.167599  2.5e-05  0.985687  0.0
H  H14  1  0.67566588  0.97649826  0.08559172  1  0.147438  2.1e-05  0.934176  0.0  0.168733  6e-05  0.985851  0.0  0.170317  7.7e-05  0.985959  0.0  0.104936  0.167592  2.5e-05  0.985779  0.0
H  H15  1  0.99056314  0.99959250  0.87347590  1  0.143375  0.000531  0.941234  0.0  0.162621  0.000193  0.996767  0.0  0.16371  0.00017  0.998185  0.0  0.102259  0.161882  0.000178  0.995756  0.0
H  H16  1  0.00942573  0.00041160  0.12652612  1  0.14339  0.00053  0.941201  0.0  0.162591  0.000192  0.996778  0.0  0.16368  0.000171  0.998195  0.0  0.102225  0.161855  0.000178  0.99576  0.0
H  H17  1  0.02428912  0.74143586  0.97027232  1  0.170819  -0.000929  0.945335  -0.001  0.183714  -0.000995  1.006465  -0.001  0.186198  -0.000696  1.004974  -0.001  0.10907  0.181711  -0.001242  1.007904  -0.002
H  H18  1  0.97570544  0.25856253  0.02972577  1  0.170845  -0.000927  0.945326  -0.001  0.183718  -0.000995  1.00647  -0.001  0.186203  -0.000696  1.004974  -0.001  0.109049  0.181716  -0.001242  1.00791  -0.002
H  H19  1  0.94356272  0.84198972  0.79238547  1  0.159364  0.00064  0.956776  0.001  0.17249  0.000133  1.019641  0.0  0.174745  9.5e-05  1.018847  0.0  0.104234  0.170768  0.000159  1.02043  0.0
H  H20  1  0.05641860  0.15800891  0.20761473  1  0.159359  0.000636  0.956944  0.001  0.172548  0.000133  1.019704  0.0  0.174805  9.5e-05  1.018906  0.0  0.10425  0.170823  0.000159  1.020499  0.0
C  C21  1  0.21390611  0.80383749  0.46027196  1  0.142314  0.010123  3.651651  0.006  0.113931  0.002116  3.909337  0.001  0.123888  0.003804  3.92496  0.002  0.049009  0.107486  0.000805  3.899082  0.0
C  C22  1  0.78610488  0.19615898  0.53973104  1  0.142063  0.010123  3.651925  0.006  0.113621  0.002115  3.90963  0.001  0.123578  0.003802  3.925255  0.002  0.048918  0.107181  0.000804  3.899367  0.0
C  C23  1  0.13706589  0.69526135  0.40625526  1  -0.106042  -0.009287  3.70377  -0.01  -0.128343  -0.003607  3.951567  -0.004  -0.13324  -0.003257  3.970149  -0.004  -0.076763  -0.125427  -0.003873  3.939618  -0.005
C  C24  1  0.86294720  0.30473959  0.59373754  1  -0.106117  -0.009277  3.703599  -0.01  -0.128287  -0.003607  3.951435  -0.004  -0.133188  -0.003258  3.970021  -0.004  -0.076797  -0.125374  -0.003873  3.93951  -0.005
C  C25  1  0.26498923  0.59613285  0.32544754  1  -0.064103  0.011915  3.70312  0.008  -0.039907  0.004243  3.940111  0.003  -0.040543  0.004811  3.958135  0.003  -0.001123  -0.039818  0.003714  3.928458  0.002
C  C26  1  0.73501253  0.40387234  0.67455596  1  -0.063765  0.011911  3.702527  0.008  -0.03973  0.004241  3.939716  0.003  -0.040364  0.004811  3.957739  0.003  -0.001056  -0.039663  0.003715  3.928098  0.002
C  C27  1  0.46716260  0.60510158  0.30479928  1  -0.119302  -0.009826  3.725846  -0.011  -0.13925  -0.003872  3.971758  -0.005  -0.145211  -0.003398  3.992443  -0.004  -0.081901  -0.135396  -0.004243  3.958279  -0.005
C  C28  1  0.53283708  0.39490652  0.69520365  1  -0.119505  -0.009822  3.725741  -0.011  -0.139362  -0.003871  3.971689  -0.005  -0.145324  -0.003398  3.992374  -0.004  -0.081887  -0.135492  -0.004242  3.958217  -0.005
C  C29  1  0.53264662  0.71525087  0.36345173  1  0.127655  0.009224  3.67614  0.006  0.101557  0.00162  3.929149  0.001  0.11012  0.003367  3.947257  0.002  0.043218  0.096061  0.000165  3.917104  0.0
C  C30  1  0.46736700  0.28474697  0.63655066  1  0.127698  0.009225  3.675812  0.006  0.101589  0.001621  3.928823  0.001  0.110152  0.003366  3.946935  0.002  0.043227  0.096093  0.000166  3.916772  0.0
C  C31  1  0.40305959  0.87875386  0.91628457  1  -0.435091  0.000873  3.545052  0.0  -0.505154  0.000582  3.787837  0.0  -0.508407  0.000647  3.792612  0.0  -0.232139  -0.502496  0.000494  3.784394  0.0
C  C32  1  0.59691939  0.12124928  0.08370878  1  -0.435028  0.000852  3.545131  0.0  -0.505011  0.00058  3.78782  0.0  -0.508251  0.000646  3.792586  0.0  -0.232047  -0.502345  0.000493  3.784396  0.0
C  C33  1  0.03385025  0.85476712  0.86710556  1  -0.432213  -0.011299  3.528442  -0.012  -0.499775  -0.006675  3.770681  -0.007  -0.504481  -0.004265  3.776124  -0.005  -0.230858  -0.496357  -0.008657  3.767265  -0.009
C  C34  1  0.96613896  0.14523565  0.13289284  1  -0.432313  -0.011302  3.528592  -0.012  -0.499833  -0.006676  3.770705  -0.007  -0.504537  -0.004266  3.776144  -0.005  -0.230869  -0.496412  -0.008658  3.76729  -0.009
S  S35  1  0.17261199  0.45827659  0.24922412  1  1.260042  -0.000257  5.74258  0.0  1.172643  -9.1e-05  6.257805  0.0  1.221792  1.4e-05  6.231797  0.0  0.490506  1.138878  -0.00021  6.274198  0.0
S  S36  1  0.82739456  0.54171991  0.75078123  1  1.259865  -0.000258  5.742706  0.0  1.172488  -9.4e-05  6.257964  0.0  1.221638  1.6e-05  6.231959  0.0  0.490476  1.138726  -0.000209  6.274352  0.0
S  S37  1  0.28925509  0.81326236  0.79917721  1  0.770177  -0.001039  3.46852  0.002  0.740581  -0.001996  3.921195  0.0  0.758556  0.000109  3.919013  0.0  0.325722  0.728406  -0.004814  3.922175  -0.001
S  S38  1  0.71073149  0.18673901  0.20082278  1  0.770121  -0.001042  3.468346  0.002  0.740476  -0.001997  3.921013  0.0  0.758448  0.000109  3.918832  0.0  0.325714  0.728305  -0.004816  3.922  -0.001
N  N39  1  0.40753139  0.81640427  0.43801109  1  -0.307386  -0.073458  3.327999  -0.093  -0.26081  -0.048952  3.622928  -0.067  -0.291273  -0.039666  3.64546  -0.058  -0.34825  -0.242221  -0.053466  3.609375  -0.069
N  N40  1  0.59248466  0.18358932  0.56198827  1  -0.307303  -0.073443  3.327819  -0.093  -0.260644  -0.048947  3.622693  -0.067  -0.291107  -0.039663  3.645227  -0.058  -0.348216  -0.242053  -0.053459  3.609135  -0.069
O  O41  1  0.22897786  0.25764886  0.34714710  1  -0.695248  0.00136  1.976661  0.0  -0.659669  0.001176  2.256284  0.0  -0.683729  0.001582  2.239754  0.0  -0.352546  -0.642312  0.000749  2.267331  0.0
O  O42  1  0.77103859  0.74234353  0.65284371  1  -0.695149  0.001359  1.976569  0.0  -0.659583  0.001176  2.256224  0.0  -0.683646  0.001581  2.239694  0.0  -0.352505  -0.642244  0.000749  2.26731  0.0
O  O43  1  0.95526641  0.53571636  0.24445747  1  -0.657796  -0.000201  1.922378  0.0  -0.609791  -9.6e-05  2.163765  0.0  -0.630074  7e-06  2.151027  0.0  -0.350583  -0.595245  -0.000231  2.172057  0.0
O  O44  1  0.04474544  0.46427563  0.75555250  1  -0.6578  -0.0002  1.922325  0.0  -0.609777  -9.5e-05  2.163709  0.0  -0.630049  8e-06  2.150946  0.0  -0.350611  -0.595233  -0.000231  2.172004  0.0
O  O45  1  0.27892801  0.48739852  0.11043730  1  -0.66536  0.000105  1.96641  0.0  -0.612883  0.000234  2.207265  0.0  -0.634187  0.00026  2.195674  0.0  -0.344911  -0.597855  0.000113  2.214823  0.0
O  O46  1  0.72107124  0.51259826  0.88956373  1  -0.665362  0.000106  1.966548  0.0  -0.612844  0.000235  2.207358  0.0  -0.634145  0.00026  2.195758  0.0  -0.34491  -0.597813  0.000113  2.214911  0.0
O  O47  1  0.28183393  0.98299581  0.65680802  1  -0.63367  -0.081824  2.021013  -0.111  -0.599171  -0.050959  2.333048  -0.075  -0.637323  -0.037019  2.327329  -0.059  -0.348748  -0.57282  -0.060841  2.336517  -0.085
O  O48  1  0.71816034  0.01700407  0.34318774  1  -0.633556  -0.081836  2.02101  -0.111  -0.599072  -0.050961  2.333013  -0.075  -0.637254  -0.037022  2.32737  -0.059  -0.348729  -0.572726  -0.060841  2.336489  -0.085
