# generated using pymatgen
data_AgH12C12SNO3
_symmetry_space_group_name_H-M   'P 1'
_cell_length_a   5.43986584
_cell_length_b   9.02002574
_cell_length_c   12.34557136
_cell_angle_alpha   91.25737402
_cell_angle_beta   90.00111718
_cell_angle_gamma   90.00146202
_symmetry_Int_Tables_number   1
_chemical_formula_structural   AgH12C12SNO3
_chemical_formula_sum   'Ag2 H24 C24 S2 N2 O6'
_cell_volume   605.62329804
_cell_formula_units_Z   2
loop_
 _symmetry_equiv_pos_site_id
 _symmetry_equiv_pos_as_xyz
  1  'x, y, z'
loop_
 _atom_site_type_symbol
 _atom_site_label
 _atom_site_symmetry_multiplicity
 _atom_site_fract_x
 _atom_site_fract_y
 _atom_site_fract_z
 _atom_site_occupancy
 _atom_site_hle17_bader_spin_density
 _atom_site_hle17_ddec_charge
 _atom_site_hle17_ddec_spin_density
 _atom_site_hle17_ddec_sum_bond_order
 _atom_site_hle17_magmom
 _atom_site_hse06_10hf_bader_spin_density
 _atom_site_hse06_10hf_ddec_charge
 _atom_site_hse06_10hf_ddec_spin_density
 _atom_site_hse06_10hf_ddec_sum_bond_order
 _atom_site_hse06_10hf_magmom
 _atom_site_hse06_bader_spin_density
 _atom_site_hse06_ddec_charge
 _atom_site_hse06_ddec_spin_density
 _atom_site_hse06_ddec_sum_bond_order
 _atom_site_hse06_magmom
 _atom_site_pbe_bader_spin_density
 _atom_site_pbe_cm5_charge
 _atom_site_pbe_ddec_charge
 _atom_site_pbe_ddec_spin_density
 _atom_site_pbe_ddec_sum_bond_order
 _atom_site_pbe_magmom
Ag  Ag0  1  0.45838482  0.80390293  0.94595959  1  0  0.630371  0  1.279165  0  0  0.506207  0  1.695908  0  0  0.533384  0  1.652555  0  0  0.469146  0.488043  0  1.725564  0
Ag  Ag1  1  0.95844067  0.19609505  0.05404546  1  0  0.630361  0  1.279101  0  0  0.506111  0  1.695957  0  0  0.533297  0  1.652598  0  0  0.469059  0.487952  0  1.725613  0
H  H2  1  0.36364719  0.91219079  0.66844453  1  0  0.11234  0  0.946552  0  0  0.123542  0  1.004006  0  0  0.12667  0  1.002225  0  0  0.107194  0.12125  0  1.005404  0
H  H3  1  0.86367730  0.08781123  0.33153302  1  0  0.112434  0  0.946249  0  0  0.123591  0  1.003767  0  0  0.12672  0  1.001985  0  0  0.107251  0.121271  0  1.005193  0
H  H4  1  0.48976766  0.08200416  0.52334148  1  0  0.091096  0  0.987852  0  0  0.10129  0  1.051697  0  0  0.102649  0  1.054125  0  0  0.096231  0.100197  0  1.050229  0
H  H5  1  0.98976893  0.91799542  0.47664282  1  0  0.091133  0  0.987957  0  0  0.101278  0  1.051824  0  0  0.102679  0  1.054206  0  0  0.096228  0.100185  0  1.050357  0
H  H6  1  0.31418520  0.27148175  0.38089815  1  0  0.124786  0  0.961902  0  0  0.144812  0  1.022549  0  0  0.146732  0  1.022001  0  0  0.092926  0.143325  0  1.023278  0
H  H7  1  0.81417361  0.72851505  0.61908778  1  0  0.124943  0  0.961929  0  0  0.144986  0  1.022523  0  0  0.146902  0  1.021983  0  0  0.093027  0.143508  0  1.023242  0
H  H8  1  0.42232496  0.39228466  0.48367637  1  0  0.100491  0  0.958092  0  0  0.121961  0  1.02237  0  0  0.123229  0  1.021868  0  0  0.088864  0.121107  0  1.022607  0
H  H9  1  0.92229103  0.60772605  0.51631885  1  0  0.100533  0  0.958207  0  0  0.122028  0  1.022453  0  0  0.123292  0  1.021951  0  0  0.088914  0.121167  0  1.022697  0
H  H10  1  0.11608515  0.41114426  0.43578797  1  0  0.098186  0  0.964915  0  0  0.118798  0  1.028021  0  0  0.120245  0  1.027523  0  0  0.086862  0.117704  0  1.028405  0
H  H11  1  0.61606903  0.58886938  0.56420053  1  0  0.098278  0  0.96494  0  0  0.118897  0  1.028022  0  0  0.120342  0  1.027527  0  0  0.086916  0.117804  0  1.028405  0
H  H12  1  0.83506953  0.34127445  0.57732765  1  0  0.085525  0  0.967601  0  0  0.097556  0  1.028021  0  0  0.099726  0  1.028432  0  0  0.096753  0.096004  0  1.027898  0
H  H13  1  0.33505502  0.65873488  0.42266920  1  0  0.085479  0  0.967519  0  0  0.097528  0  1.027944  0  0  0.099698  0  1.028353  0  0  0.096766  0.095979  0  1.027821  0
H  H14  1  0.70429184  0.16829946  0.71994965  1  0  0.094679  0  0.980802  0  0  0.104604  0  1.044999  0  0  0.106322  0  1.046073  0  0  0.09998  0.103727  0  1.043667  0
H  H15  1  0.20425457  0.83171335  0.28005420  1  0  0.094788  0  0.980931  0  0  0.104669  0  1.045168  0  0  0.10639  0  1.046233  0  0  0.099982  0.103794  0  1.043839  0
H  H16  1  0.46591146  0.50233107  0.07359912  1  0  0.074956  0  0.964339  0  0  0.082876  0  1.030484  0  0  0.084115  0  1.031082  0  0  0.110537  0.081886  0  1.030318  0
H  H17  1  0.96596403  0.49767146  0.92640364  1  0  0.074946  0  0.964159  0  0  0.082917  0  1.030298  0  0  0.08416  0  1.030891  0  0  0.1106  0.081931  0  1.030129  0
H  H18  1  0.21192375  0.37331784  0.20777259  1  0  0.109664  0  1.002077  0  0  0.116817  0  1.065474  0  0  0.120203  0  1.063705  0  0  0.103334  0.11451  0  1.066547  0
H  H19  1  0.71191348  0.62666072  0.79225023  1  0  0.109759  0  1.002261  0  0  0.116772  0  1.065798  0  0  0.120198  0  1.064004  0  0  0.103277  0.114478  0  1.066846  0
H  H20  1  0.80285180  0.48521747  0.26413185  1  0  0.105976  0  0.922853  0  0  0.122682  0  0.970235  0  0  0.124934  0  0.969391  0  0  0.112167  0.120891  0  0.971117  0
H  H21  1  0.30286859  0.51475920  0.73589659  1  0  0.106116  0  0.923246  0  0  0.122853  0  0.970544  0  0  0.125106  0  0.969697  0  0  0.112276  0.121061  0  0.971421  0
H  H22  1  0.68845549  0.73352268  0.18783355  1  0  0.100254  0  0.991002  0  0  0.106982  0  1.05701  0  0  0.108913  0  1.058671  0  0  0.101623  0.105517  0  1.056146  0
H  H23  1  0.18851477  0.26645883  0.81218505  1  0  0.100107  0  0.99127  0  0  0.106838  0  1.057279  0  0  0.108766  0  1.058949  0  0  0.101521  0.105369  0  1.056409  0
H  H24  1  0.97069558  0.85153399  0.05725758  1  0  0.091106  0  0.976516  0  0  0.09434  0  1.050393  0  0  0.097978  0  1.045853  0  0  0.111446  0.091368  0  1.054223  0
H  H25  1  0.47073345  0.14844866  0.94275949  1  0  0.091189  0  0.976378  0  0  0.094399  0  1.050286  0  0  0.09804  0  1.045743  0  0  0.111477  0.091425  0  1.054123  0
C  C26  1  0.02686747  0.03056210  0.70282411  1  0  -0.129994  0  3.754237  0  0  -0.103817  0  4.000679  0  0  -0.111983  0  4.022309  0  0  -0.023673  -0.098346  0  3.98607  0
C  C27  1  0.52686872  0.96945566  0.29717258  1  0  -0.129999  0  3.754197  0  0  -0.103808  0  4.000643  0  0  -0.11198  0  4.02227  0  0  -0.023715  -0.098343  0  3.986031  0
C  C28  1  0.24768187  0.00560415  0.64737936  1  0  -0.058031  0  3.74619  0  0  -0.082879  0  3.996386  0  0  -0.081076  0  4.014703  0  0  -0.084259  -0.083869  0  3.984022  0
C  C29  1  0.74769756  0.99438384  0.35260179  1  0  -0.058129  0  3.746287  0  0  -0.082946  0  3.996489  0  0  -0.081144  0  4.014812  0  0  -0.084333  -0.083903  0  3.984122  0
C  C30  1  0.31854237  0.10244441  0.56688740  1  0  -0.126521  0  3.715361  0  0  -0.143255  0  3.959058  0  0  -0.14786  0  3.981131  0  0  -0.091143  -0.140209  0  3.944194  0
C  C31  1  0.81854644  0.89756245  0.43311412  1  0  -0.126526  0  3.715487  0  0  -0.14321  0  3.959148  0  0  -0.147835  0  3.981177  0  0  -0.09108  -0.140159  0  3.944269  0
C  C32  1  0.17366030  0.22543350  0.54083456  1  0  0.148612  0  3.748325  0  0  0.176213  0  3.977748  0  0  0.178523  0  4.001841  0  0  -0.00576  0.174742  0  3.96115  0
C  C33  1  0.67365665  0.77455886  0.45915735  1  0  0.148695  0  3.748529  0  0  0.176271  0  3.977969  0  0  0.178585  0  4.002058  0  0  -0.005785  0.174792  0  3.961383  0
C  C34  1  0.25893300  0.33036167  0.45574864  1  0  -0.336597  0  3.719669  0  0  -0.414564  0  3.949099  0  0  -0.416739  0  3.957445  0  0  -0.239609  -0.412903  0  3.943444  0
C  C35  1  0.75891757  0.66964313  0.54424099  1  0  -0.336919  0  3.720043  0  0  -0.414903  0  3.949465  0  0  -0.417074  0  3.95781  0  0  -0.239842  -0.413251  0  3.943808  0
C  C36  1  0.95193667  0.24718913  0.59683850  1  0  -0.138543  0  3.730877  0  0  -0.153229  0  3.971589  0  0  -0.158452  0  3.993444  0  0  -0.093763  -0.149755  0  3.956846  0
C  C37  1  0.45193997  0.75282205  0.40316590  1  0  -0.138558  0  3.730943  0  0  -0.153256  0  3.971651  0  0  -0.158482  0  3.993501  0  0  -0.093754  -0.149781  0  3.956917  0
C  C38  1  0.87728563  0.15065824  0.67738398  1  0  -0.059873  0  3.766627  0  0  -0.08491  0  4.016436  0  0  -0.082696  0  4.03618  0  0  -0.088857  -0.086306  0  4.00275  0
C  C39  1  0.37726195  0.84934289  0.32260826  1  0  -0.059891  0  3.7663  0  0  -0.084883  0  4.016029  0  0  -0.082683  0  4.035813  0  0  -0.088823  -0.086272  0  4.002329  0
C  C40  1  0.29189955  0.55007275  0.10056104  1  0  0.110811  0  3.719645  0  0  0.083947  0  3.965969  0  0  0.090106  0  3.986365  0  0  0.039352  0.079518  0  3.952662  0
C  C41  1  0.79188463  0.44995586  0.89945275  1  0  0.110936  0  3.720738  0  0  0.084013  0  3.96698  0  0  0.090168  0  3.98739  0  0  0.03941  0.07959  0  3.953654  0
C  C42  1  0.14551366  0.47686088  0.17508105  1  0  -0.150496  0  3.775756  0  0  -0.157523  0  4.024819  0  0  -0.164491  0  4.044558  0  0  -0.093988  -0.153301  0  4.011809  0
C  C43  1  0.64553721  0.52313437  0.82493010  1  0  -0.150639  0  3.776461  0  0  -0.157555  0  4.025527  0  0  -0.164563  0  4.045218  0  0  -0.094  -0.15334  0  4.01251  0
C  C44  1  0.92338967  0.54137750  0.20759381  1  0  -0.003829  0  3.710926  0  0  -0.023177  0  3.954823  0  0  -0.019638  0  3.972968  0  0  -0.066126  -0.025069  0  3.942641  0
C  C45  1  0.42338078  0.45861882  0.79243116  1  0  -0.004085  0  3.711665  0  0  -0.023476  0  3.955558  0  0  -0.019928  0  3.973678  0  0  -0.066283  -0.025366  0  3.943377  0
C  C46  1  0.85779990  0.67727166  0.16454199  1  0  -0.125137  0  3.743811  0  0  -0.134308  0  3.994939  0  0  -0.141657  0  4.017387  0  0  -0.086247  -0.129744  0  3.979957  0
C  C47  1  0.35783496  0.32272473  0.83546458  1  0  -0.124834  0  3.744426  0  0  -0.133978  0  3.995456  0  0  -0.14133  0  4.017914  0  0  -0.086072  -0.129403  0  3.980462  0
C  C48  1  0.01460614  0.74429256  0.09102684  1  0  0.11092  0  3.688903  0  0  0.077803  0  3.94559  0  0  0.085401  0  3.961127  0  0  0.038255  0.072925  0  3.934799  0
C  C49  1  0.51456327  0.25571171  0.90898977  1  0  0.110842  0  3.688627  0  0  0.077743  0  3.945302  0  0  0.085336  0  3.960842  0  0  0.038272  0.072865  0  3.934521  0
S  S50  1  0.95667235  0.91583005  0.81378408  1  0  1.281799  0  5.639497  0  0  1.187698  0  6.141455  0  0  1.235782  0  6.120539  0  0  0.501465  1.154567  0  6.15467  0
S  S51  1  0.45667327  0.08418232  0.18620337  1  0  1.281493  0  5.639834  0  0  1.187279  0  6.141914  0  0  1.235369  0  6.121001  0  0  0.50122  1.154154  0  6.155112  0
N  N52  1  0.22857081  0.68156693  0.05873985  1  0  -0.321505  0  3.341401  0  0  -0.237338  0  3.620913  0  0  -0.257167  0  3.638173  0  0  -0.344995  -0.223661  0  3.608816  0
N  N53  1  0.72857239  0.31845180  0.94123920  1  0  -0.321675  0  3.341699  0  0  -0.237511  0  3.621201  0  0  -0.257345  0  3.638471  0  0  -0.345087  -0.223835  0  3.60912  0
O  O54  1  0.07195742  0.98906637  0.90902926  1  0  -0.683484  0  2.040533  0  0  -0.620043  0  2.327066  0  0  -0.643213  0  2.30857  0  0  -0.34327  -0.604018  0  2.340008  0
O  O55  1  0.57199055  0.01092217  0.09096007  1  0  -0.683498  0  2.040334  0  0  -0.61992  0  2.326735  0  0  -0.643092  0  2.308243  0  0  -0.343147  -0.603888  0  2.339664  0
O  O56  1  0.06156212  0.76924205  0.78924402  1  0  -0.668148  0  1.95426  0  0  -0.619298  0  2.209772  0  0  -0.640679  0  2.195672  0  0  -0.343064  -0.604064  0  2.219067  0
O  O57  1  0.56157467  0.23074966  0.21074608  1  0  -0.668035  0  1.954735  0  0  -0.619141  0  2.210278  0  0  -0.640516  0  2.196162  0  0  -0.342958  -0.603924  0  2.219606  0
O  O58  1  0.68325030  0.91497490  0.82063807  1  0  -0.669407  0  2.075119  0  0  -0.593784  0  2.359649  0  0  -0.619263  0  2.343646  0  0  -0.351367  -0.576046  0  2.369311  0
O  O59  1  0.18325095  0.08502871  0.17934925  1  0  -0.669251  0  2.075369  0  0  -0.593591  0  2.359952  0  0  -0.619076  0  2.343948  0  0  -0.35133  -0.575852  0  2.369604  0
