# generated using pymatgen
data_H6PbC6O7
_symmetry_space_group_name_H-M   'P 1'
_cell_length_a   6.36473241
_cell_length_b   6.61275945
_cell_length_c   11.89439428
_cell_angle_alpha   96.23955644
_cell_angle_beta   101.67802096
_cell_angle_gamma   103.48934530
_symmetry_Int_Tables_number   1
_chemical_formula_structural   H6PbC6O7
_chemical_formula_sum   'H12 Pb2 C12 O14'
_cell_volume   470.29756258
_cell_formula_units_Z   2
loop_
 _symmetry_equiv_pos_site_id
 _symmetry_equiv_pos_as_xyz
  1  'x, y, z'
loop_
 _atom_site_type_symbol
 _atom_site_label
 _atom_site_symmetry_multiplicity
 _atom_site_fract_x
 _atom_site_fract_y
 _atom_site_fract_z
 _atom_site_occupancy
 _atom_site_hle17_bader_spin_density
 _atom_site_hle17_ddec_charge
 _atom_site_hle17_ddec_spin_density
 _atom_site_hle17_ddec_sum_bond_order
 _atom_site_hle17_magmom
 _atom_site_hse06_10hf_bader_spin_density
 _atom_site_hse06_10hf_ddec_charge
 _atom_site_hse06_10hf_ddec_spin_density
 _atom_site_hse06_10hf_ddec_sum_bond_order
 _atom_site_hse06_10hf_magmom
 _atom_site_hse06_bader_spin_density
 _atom_site_hse06_ddec_charge
 _atom_site_hse06_ddec_spin_density
 _atom_site_hse06_ddec_sum_bond_order
 _atom_site_hse06_magmom
 _atom_site_pbe_bader_spin_density
 _atom_site_pbe_cm5_charge
 _atom_site_pbe_ddec_charge
 _atom_site_pbe_ddec_spin_density
 _atom_site_pbe_ddec_sum_bond_order
 _atom_site_pbe_magmom
H  H0  1  0.27540702  0.84077607  0.31796398  1  0  0.133597  0  0.924996  0  0  0.144668  0  0.983844  0  0  0.147732  0  0.982404  0  0  0.108616  0.142497  0  0.984937  0
H  H1  1  0.72458234  0.15924587  0.68202365  1  0  0.133562  0  0.92508  0  0  0.144691  0  0.983817  0  0  0.147754  0  0.982374  0  0  0.108643  0.142514  0  0.984923  0
H  H2  1  0.10516917  0.98437110  0.37588745  1  0  0.15118  0  0.91726  0  0  0.161681  0  0.978262  0  0  0.165135  0  0.976337  0  0  0.11562  0.159228  0  0.979742  0
H  H3  1  0.89481198  0.01563896  0.62411437  1  0  0.151158  0  0.917456  0  0  0.161657  0  0.978401  0  0  0.165114  0  0.976477  0  0  0.1156  0.159209  0  0.979884  0
H  H4  1  0.70416380  0.83806178  0.33421173  1  0  0.142607  0  0.915885  0  0  0.154932  0  0.974105  0  0  0.157837  0  0.972816  0  0  0.111509  0.152921  0  0.97503  0
H  H5  1  0.29588198  0.16202291  0.66580202  1  0  0.142444  0  0.916567  0  0  0.154876  0  0.974641  0  0  0.157806  0  0.9733  0  0  0.111477  0.152866  0  0.97557  0
H  H6  1  0.75647443  0.65423027  0.42781078  1  0  0.131686  0  0.95448  0  0  0.138912  0  1.020464  0  0  0.142414  0  1.018398  0  0  0.104977  0.136416  0  1.022091  0
H  H7  1  0.24351570  0.34576550  0.57219605  1  0  0.131765  0  0.95441  0  0  0.138977  0  1.020424  0  0  0.142477  0  1.018366  0  0  0.104989  0.136482  0  1.022053  0
H  H8  1  0.92273524  0.38212240  0.34735227  1  0  0.401358  0  0.89965  0  0  0.36844  0  0.97816  0  0  0.380561  0  0.960657  0  0  0.300767  0.359907  0  0.990472  0
H  H9  1  0.07727271  0.61788705  0.65267103  1  0  0.401482  0  0.899518  0  0  0.368677  0  0.977811  0  0  0.380809  0  0.960285  0  0  0.300893  0.360141  0  0.990129  0
H  H10  1  0.45990767  0.70142546  0.58845219  1  0  0.405525  0  0.889589  0  0  0.371187  0  0.971937  0  0  0.384864  0  0.95587  0  0  0.298326  0.361608  0  0.981507  0
H  H11  1  0.54007796  0.29858144  0.41151963  1  0  0.40547  0  0.889391  0  0  0.371022  0  0.97194  0  0  0.384754  0  0.955964  0  0  0.298282  0.361435  0  0.981503  0
Pb  Pb12  1  0.07255703  0.29345276  0.11216969  1  0  1.336314  0  1.425023  0  0  1.161108  0  1.798121  0  0  1.217857  0  1.754611  0  0  0.685418  1.11992  0  1.828591  0
Pb  Pb13  1  0.92747990  0.70653758  0.88783612  1  0  1.336393  0  1.424817  0  0  1.161177  0  1.797869  0  0  1.217927  0  1.754348  0  0  0.685507  1.119982  0  1.828337  0
C  C14  1  0.51257913  0.52164239  0.26695127  1  0  0.721405  0  3.808759  0  0  0.668897  0  4.114412  0  0  0.703728  0  4.106506  0  0  0.217627  0.645233  0  4.119008  0
C  C15  1  0.48743991  0.47831559  0.73303333  1  0  0.721396  0  3.808155  0  0  0.668854  0  4.113929  0  0  0.703688  0  4.106023  0  0  0.217532  0.645195  0  4.118518  0
C  C16  1  0.72412849  0.67829744  0.33699149  1  0  -0.367562  0  3.637684  0  0  -0.41023  0  3.880675  0  0  -0.417989  0  3.886696  0  0  -0.170543  -0.404994  0  3.87674  0
C  C17  1  0.27581229  0.32171192  0.66300993  1  0  -0.367643  0  3.63804  0  0  -0.410423  0  3.881185  0  0  -0.418203  0  3.887272  0  0  -0.170466  -0.40519  0  3.877246  0
C  C18  1  0.92889279  0.66575347  0.28894591  1  0  0.283331  0  3.543336  0  0  0.277167  0  3.795757  0  0  0.281475  0  3.807242  0  0  0.083845  0.274134  0  3.78789  0
C  C19  1  0.07106538  0.33418831  0.71105755  1  0  0.283602  0  3.543792  0  0  0.277231  0  3.7966  0  0  0.281531  0  3.8081  0  0  0.083727  0.274205  0  3.78873  0
C  C20  1  0.89559850  0.72162455  0.16437518  1  0  0.631443  0  3.8349  0  0  0.579577  0  4.131018  0  0  0.613456  0  4.124794  0  0  0.223341  0.556375  0  4.134495  0
C  C21  1  0.10439288  0.27836889  0.83561564  1  0  0.631479  0  3.83511  0  0  0.579774  0  4.130973  0  0  0.613662  0  4.124729  0  0  0.223413  0.556554  0  4.134486  0
C  C22  1  0.14155054  0.82997675  0.36406965  1  0  -0.359804  0  3.593203  0  0  -0.408054  0  3.84448  0  0  -0.415459  0  3.849714  0  0  -0.162234  -0.403047  0  3.840968  0
C  C23  1  0.85845620  0.17001476  0.63593369  1  0  -0.35958  0  3.593625  0  0  -0.407779  0  3.844901  0  0  -0.415186  0  3.850176  0  0  -0.162033  -0.402772  0  3.841399  0
C  C24  1  0.21505193  0.77298953  0.48248013  1  0  0.745758  0  3.714769  0  0  0.690608  0  4.026843  0  0  0.725311  0  4.016052  0  0  0.242631  0.66707  0  4.033567  0
C  C25  1  0.78496955  0.22699637  0.51751436  1  0  0.745697  0  3.714658  0  0  0.690395  0  4.026928  0  0  0.72507  0  4.016192  0  0  0.242626  0.666855  0  4.033648  0
O  O26  1  0.40428231  0.57554228  0.17773080  1  0  -0.614595  0  1.917178  0  0  -0.546357  0  2.141954  0  0  -0.575206  0  2.133227  0  0  -0.293245  -0.526231  0  2.14725  0
O  O27  1  0.59571058  0.42455985  0.82226229  1  0  -0.614397  0  1.918258  0  0  -0.546037  0  2.143001  0  0  -0.574877  0  2.134271  0  0  -0.293061  -0.525925  0  2.1483  0
O  O28  1  0.44570492  0.34201920  0.29707082  1  0  -0.652478  0  1.977888  0  0  -0.590711  0  2.202662  0  0  -0.618867  0  2.191569  0  0  -0.307112  -0.571083  0  2.209308  0
O  O29  1  0.55423903  0.65807062  0.70296211  1  0  -0.652915  0  1.976495  0  0  -0.591184  0  2.201205  0  0  -0.619325  0  2.190097  0  0  -0.30737  -0.571544  0  2.207843  0
O  O30  1  0.96127172  0.45850335  0.28201915  1  0  -0.627363  0  2.146758  0  0  -0.558755  0  2.382116  0  0  -0.579637  0  2.366461  0  0  -0.372029  -0.543862  0  2.392625  0
O  O31  1  0.03873482  0.54145067  0.71797721  1  0  -0.627568  0  2.146756  0  0  -0.559062  0  2.382116  0  0  -0.579925  0  2.366437  0  0  -0.37223  -0.544161  0  2.392622  0
O  O32  1  0.90273129  0.58069275  0.08178752  1  0  -0.661433  0  2.088192  0  0  -0.573853  0  2.326965  0  0  -0.607732  0  2.318466  0  0  -0.281269  -0.549839  0  2.331824  0
O  O33  1  0.09726994  0.41924181  0.91821774  1  0  -0.661463  0  2.088606  0  0  -0.573949  0  2.327335  0  0  -0.607827  0  2.318823  0  0  -0.281372  -0.549933  0  2.332209  0
O  O34  1  0.86754884  0.89811199  0.14955162  1  0  -0.6641  0  2.004508  0  0  -0.610637  0  2.236294  0  0  -0.639113  0  2.229317  0  0  -0.304191  -0.590533  0  2.240568  0
O  O35  1  0.13250534  0.10188225  0.85044549  1  0  -0.66419  0  2.004146  0  0  -0.610747  0  2.235802  0  0  -0.639228  0  2.228813  0  0  -0.30422  -0.590634  0  2.24009  0
O  O36  1  0.41293091  0.73778659  0.50374082  1  0  -0.546075  0  2.075065  0  0  -0.485635  0  2.293339  0  0  -0.510198  0  2.278716  0  0  -0.315172  -0.468637  0  2.301764  0
O  O37  1  0.58707054  0.26214835  0.49625693  1  0  -0.546016  0  2.074882  0  0  -0.485414  0  2.293277  0  0  -0.510008  0  2.278759  0  0  -0.314952  -0.46841  0  2.301698  0
O  O38  1  0.09322738  0.75924414  0.55289475  1  0  -0.590719  0  1.979621  0  0  -0.532832  0  2.195913  0  0  -0.55611  0  2.185123  0  0  -0.286872  -0.516963  0  2.203154  0
O  O39  1  0.90678874  0.24073907  0.44708886  1  0  -0.590749  0  1.97943  0  0  -0.532847  0  2.195906  0  0  -0.556068  0  2.185086  0  0  -0.286994  -0.516985  0  2.20315  0
