# generated using pymatgen
data_CdH14C19(NO)4
_symmetry_space_group_name_H-M   'P 1'
_cell_length_a   9.14386909
_cell_length_b   11.18856711
_cell_length_c   12.33697014
_cell_angle_alpha   104.93121299
_cell_angle_beta   107.36254678
_cell_angle_gamma   108.44392228
_symmetry_Int_Tables_number   1
_chemical_formula_structural   CdH14C19(NO)4
_chemical_formula_sum   'Cd2 H28 C38 N8 O8'
_cell_volume   1052.83226736
_cell_formula_units_Z   2
loop_
 _symmetry_equiv_pos_site_id
 _symmetry_equiv_pos_as_xyz
  1  'x, y, z'
loop_
 _atom_site_type_symbol
 _atom_site_label
 _atom_site_symmetry_multiplicity
 _atom_site_fract_x
 _atom_site_fract_y
 _atom_site_fract_z
 _atom_site_occupancy
 _atom_site_hle17_bader_spin_density
 _atom_site_hle17_ddec_charge
 _atom_site_hle17_ddec_spin_density
 _atom_site_hle17_ddec_sum_bond_order
 _atom_site_hle17_magmom
 _atom_site_hse06_10hf_bader_spin_density
 _atom_site_hse06_10hf_ddec_charge
 _atom_site_hse06_10hf_ddec_spin_density
 _atom_site_hse06_10hf_ddec_sum_bond_order
 _atom_site_hse06_10hf_magmom
 _atom_site_hse06_bader_spin_density
 _atom_site_hse06_ddec_charge
 _atom_site_hse06_ddec_spin_density
 _atom_site_hse06_ddec_sum_bond_order
 _atom_site_hse06_magmom
 _atom_site_pbe_bader_spin_density
 _atom_site_pbe_cm5_charge
 _atom_site_pbe_ddec_charge
 _atom_site_pbe_ddec_spin_density
 _atom_site_pbe_ddec_sum_bond_order
 _atom_site_pbe_magmom
Cd  Cd0  1  0.12715901  0.42993032  0.33234118  1  0  1.08704  0  1.703351  0  0  0.897535  0  2.147553  0  0  0.955078  0  2.097051  0  0  0.773491  0.856876  0  2.181928  0
Cd  Cd1  1  0.87284028  0.57006968  0.66765896  1  0  1.087043  0  1.703351  0  0  0.897528  0  2.147574  0  0  0.955072  0  2.097072  0  0  0.773496  0.85687  0  2.181948  0
H  H2  1  0.44430107  0.28332204  0.06150476  1  0  0.312798  0  0.859158  0  0  0.306664  0  0.899567  0  0  0.312682  0  0.896102  0  0  0.34134  0.302368  0  0.90216  0
H  H3  1  0.55569768  0.71667693  0.93849422  1  0  0.312791  0  0.859155  0  0  0.306655  0  0.899566  0  0  0.312673  0  0.896101  0  0  0.341341  0.302362  0  0.90216  0
H  H4  1  0.75726103  0.01889363  0.35940750  1  0  0.092766  0  0.966779  0  0  0.100593  0  1.031886  0  0  0.104043  0  1.029619  0  0  0.096623  0.09811  0  1.033612  0
H  H5  1  0.24273657  0.98110533  0.64059041  1  0  0.09281  0  0.966754  0  0  0.100636  0  1.03186  0  0  0.104086  0  1.029592  0  0  0.096657  0.098152  0  1.033585  0
H  H6  1  0.29273180  0.17346968  0.56665058  1  0  0.094276  0  0.965084  0  0  0.100402  0  1.033965  0  0  0.10341  0  1.032661  0  0  0.097239  0.09812  0  1.035106  0
H  H7  1  0.70726526  0.82652826  0.43334698  1  0  0.094278  0  0.965086  0  0  0.100434  0  1.033925  0  0  0.103427  0  1.032649  0  0  0.097257  0.098152  0  1.035068  0
H  H8  1  0.35899510  0.85844446  0.27539710  1  0  0.094383  0  0.968514  0  0  0.10115  0  1.033983  0  0  0.10516  0  1.031288  0  0  0.097983  0.098258  0  1.036034  0
H  H9  1  0.64100703  0.14155657  0.72460389  1  0  0.094356  0  0.968522  0  0  0.101127  0  1.033989  0  0  0.105136  0  1.031296  0  0  0.097968  0.098233  0  1.036039  0
H  H10  1  0.49316256  0.88360598  0.64622837  1  0  0.091882  0  0.948898  0  0  0.101558  0  1.011149  0  0  0.105412  0  1.00807  0  0  0.100421  0.098796  0  1.013458  0
H  H11  1  0.50684124  0.11639606  0.35377161  1  0  0.091922  0  0.948801  0  0  0.101582  0  1.011071  0  0  0.105437  0  1.007992  0  0  0.100419  0.098818  0  1.013381  0
H  H12  1  0.83096152  0.17823353  0.06650795  1  0  0.109441  0  0.94122  0  0  0.121064  0  0.997875  0  0  0.124177  0  0.996155  0  0  0.105878  0.118734  0  0.999281  0
H  H13  1  0.16903783  0.82176442  0.93349011  1  0  0.109441  0  0.941204  0  0  0.121057  0  0.997868  0  0  0.124168  0  0.996152  0  0  0.105867  0.11873  0  0.999276  0
H  H14  1  0.68544241  0.01240577  0.84601928  1  0  0.08042  0  0.958106  0  0  0.094089  0  1.014785  0  0  0.096237  0  1.014099  0  0  0.096887  0.092535  0  1.015353  0
H  H15  1  0.31455749  0.98759320  0.15397994  1  0  0.080444  0  0.958069  0  0  0.094084  0  1.01478  0  0  0.096233  0  1.014094  0  0  0.096882  0.092531  0  1.015345  0
H  H16  1  0.84958675  0.96921836  0.72578082  1  0  0.092938  0  0.960485  0  0  0.102704  0  1.023439  0  0  0.1042  0  1.024606  0  0  0.100298  0.101552  0  1.022817  0
H  H17  1  0.15041376  0.03077959  0.27421831  1  0  0.092946  0  0.960499  0  0  0.102705  0  1.023454  0  0  0.104202  0  1.024621  0  0  0.100295  0.101555  0  1.022828  0
H  H18  1  0.16381182  0.08267680  0.82011809  1  0  0.110479  0  0.958819  0  0  0.11934  0  1.020074  0  0  0.12232  0  1.018748  0  0  0.103767  0.117206  0  1.021053  0
H  H19  1  0.83618755  0.91732115  0.17988079  1  0  0.110476  0  0.958826  0  0  0.119332  0  1.020084  0  0  0.122313  0  1.018759  0  0  0.10377  0.117201  0  1.021063  0
H  H20  1  0.49570670  0.53875271  0.34269011  1  0  0.129959  0  0.910133  0  0  0.141  0  0.971418  0  0  0.143513  0  0.969213  0  0  0.12919  0.139153  0  0.973109  0
H  H21  1  0.50429260  0.46124730  0.65731084  1  0  0.129954  0  0.910173  0  0  0.141015  0  0.971437  0  0  0.143525  0  0.969233  0  0  0.129204  0.139168  0  0.973129  0
H  H22  1  0.52000335  0.39751792  0.37145761  1  0  0.140226  0  0.913886  0  0  0.152537  0  0.971682  0  0  0.155516  0  0.969606  0  0  0.132885  0.150367  0  0.973271  0
H  H23  1  0.47999541  0.60248106  0.62854218  1  0  0.140225  0  0.913881  0  0  0.152541  0  0.971678  0  0  0.155518  0  0.969604  0  0  0.132872  0.15037  0  0.973268  0
H  H24  1  0.75507733  0.34649255  0.35018012  1  0  0.121759  0  0.955732  0  0  0.126023  0  1.025625  0  0  0.129936  0  1.020472  0  0  0.136652  0.123134  0  1.029307  0
H  H25  1  0.24492250  0.65350847  0.64982038  1  0  0.121779  0  0.95568  0  0  0.126048  0  1.02557  0  0  0.129962  0  1.020417  0  0  0.136666  0.123162  0  1.029255  0
H  H26  1  0.95096172  0.62299915  0.19726547  1  0  0.11976  0  0.939277  0  0  0.13048  0  0.993795  0  0  0.133164  0  0.99285  0  0  0.123298  0.128544  0  0.994522  0
H  H27  1  0.04903926  0.37700187  0.80273527  1  0  0.119755  0  0.939296  0  0  0.130491  0  0.993794  0  0  0.133165  0  0.992863  0  0  0.123286  0.12855  0  0.994522  0
H  H28  1  0.64645362  0.62469910  0.19972695  1  0  0.11703  0  0.940329  0  0  0.131063  0  0.993644  0  0  0.13402  0  0.992142  0  0  0.125589  0.12893  0  0.994795  0
H  H29  1  0.35354681  0.37530089  0.80027181  1  0  0.117058  0  0.940322  0  0  0.131079  0  0.993645  0  0  0.134039  0  0.992147  0  0  0.125609  0.128944  0  0.994795  0
C  C30  1  0.05583729  0.22093654  0.41330849  1  0  0.623523  0  3.939124  0  0  0.579227  0  4.224318  0  0  0.613686  0  4.218212  0  0  0.185834  0.55593  0  4.227387  0
C  C31  1  0.94415977  0.77906139  0.58668906  1  0  0.623624  0  3.93909  0  0  0.579348  0  4.22425  0  0  0.613808  0  4.21814  0  0  0.185867  0.556055  0  4.227317  0
C  C32  1  0.86264230  0.00894547  0.42040367  1  0  -0.079014  0  3.753331  0  0  -0.099426  0  3.998665  0  0  -0.100783  0  4.01991  0  0  -0.087831  -0.098491  0  3.984192  0
C  C33  1  0.13735759  0.99105350  0.57959475  1  0  -0.079027  0  3.75325  0  0  -0.099442  0  3.998571  0  0  -0.100801  0  4.01982  0  0  -0.087888  -0.098504  0  3.984092  0
C  C34  1  0.02765272  0.10727775  0.45869402  1  0  -0.052705  0  3.753569  0  0  -0.028959  0  3.980864  0  0  -0.035556  0  4.00298  0  0  -0.016992  -0.024563  0  3.965789  0
C  C35  1  0.97234434  0.89272019  0.54130353  1  0  -0.052782  0  3.75355  0  0  -0.029032  0  3.980848  0  0  -0.035628  0  4.002959  0  0  -0.016966  -0.024634  0  3.965773  0
C  C36  1  0.16498567  0.09752465  0.53865566  1  0  -0.081108  0  3.753592  0  0  -0.104412  0  4.004898  0  0  -0.10561  0  4.026549  0  0  -0.089067  -0.103318  0  3.990131  0
C  C37  1  0.83501308  0.90247431  0.46134251  1  0  -0.081043  0  3.7536  0  0  -0.104371  0  4.004924  0  0  -0.105563  0  4.026574  0  0  -0.089055  -0.103287  0  3.990167  0
C  C38  1  0.32968964  0.70471217  0.40763812  1  0  0.62567  0  3.938292  0  0  0.580082  0  4.224793  0  0  0.613991  0  4.21891  0  0  0.189088  0.55715  0  4.227783  0
C  C39  1  0.67031471  0.29529089  0.59236302  1  0  0.625606  0  3.93842  0  0  0.580027  0  4.224915  0  0  0.613934  0  4.219036  0  0  0.189059  0.55708  0  4.227923  0
C  C40  1  0.41902525  0.85725588  0.45644924  1  0  -0.046135  0  3.747238  0  0  -0.021785  0  3.973252  0  0  -0.027938  0  3.99523  0  0  -0.01314  -0.017789  0  3.958484  0
C  C41  1  0.58097972  0.14274618  0.54355424  1  0  -0.046081  0  3.747228  0  0  -0.02174  0  3.973241  0  0  -0.027889  0  3.995214  0  0  -0.013101  -0.017742  0  3.958472  0
C  C42  1  0.42194997  0.92218528  0.37351369  1  0  -0.079349  0  3.744084  0  0  -0.100817  0  3.990917  0  0  -0.102334  0  4.011735  0  0  -0.084398  -0.099655  0  3.976647  0
C  C43  1  0.57805285  0.07781270  0.62648757  1  0  -0.079327  0  3.744078  0  0  -0.100798  0  3.990922  0  0  -0.102314  0  4.011737  0  0  -0.084399  -0.099631  0  3.976647  0
C  C44  1  0.49764460  0.93607742  0.58329878  1  0  -0.070848  0  3.741688  0  0  -0.094536  0  3.993287  0  0  -0.095478  0  4.013319  0  0  -0.082629  -0.093762  0  3.979629  0
C  C45  1  0.50235875  0.06392157  0.41670202  1  0  -0.070938  0  3.741573  0  0  -0.094607  0  3.993167  0  0  -0.095552  0  4.013201  0  0  -0.082668  -0.093829  0  3.979509  0
C  C46  1  0.07855584  0.22504330  0.06486671  1  0  0.15413  0  3.834169  0  0  0.153421  0  4.074955  0  0  0.156579  0  4.099791  0  0  0.08919  0.151232  0  4.058137  0
C  C47  1  0.92144291  0.77495567  0.93513226  1  0  0.154164  0  3.834158  0  0  0.1534  0  4.075019  0  0  0.156557  0  4.099854  0  0  0.089202  0.151203  0  4.058208  0
C  C48  1  0.90182987  0.15910568  0.01218937  1  0  -0.139144  0  3.75478  0  0  -0.158955  0  4.004574  0  0  -0.161393  0  4.025005  0  0  -0.092063  -0.15715  0  3.990703  0
C  C49  1  0.09817118  0.84089330  0.98781011  1  0  -0.139154  0  3.754748  0  0  -0.158935  0  4.004543  0  0  -0.161371  0  4.024976  0  0  -0.092053  -0.157124  0  3.990672  0
C  C50  1  0.82318752  0.06690536  0.89003834  1  0  -0.078827  0  3.801637  0  0  -0.097401  0  4.062631  0  0  -0.1001  0  4.086108  0  0  -0.098662  -0.095536  0  4.046682  0
C  C51  1  0.17681238  0.93309361  0.10996089  1  0  -0.078845  0  3.80169  0  0  -0.097398  0  4.062668  0  0  -0.100097  0  4.086144  0  0  -0.098652  -0.095532  0  4.046712  0
C  C52  1  0.91668692  0.04135377  0.82156736  1  0  -0.053009  0  3.757723  0  0  -0.072817  0  4.017154  0  0  -0.074703  0  4.04134  0  0  -0.092218  -0.071538  0  4.000884  0
C  C53  1  0.08331298  0.95864520  0.17843187  1  0  -0.053023  0  3.757835  0  0  -0.072817  0  4.017235  0  0  -0.074704  0  4.041422  0  0  -0.092229  -0.071539  0  4.00096  0
C  C54  1  0.09315808  0.10572858  0.87339453  1  0  -0.160082  0  3.762981  0  0  -0.176301  0  4.012798  0  0  -0.179771  0  4.033523  0  0  -0.096434  -0.173928  0  3.998801  0
C  C55  1  0.90684351  0.89427142  0.12660612  1  0  -0.160068  0  3.763023  0  0  -0.176277  0  4.012823  0  0  -0.179747  0  4.033549  0  0  -0.096432  -0.173906  0  3.998825  0
C  C56  1  0.17180046  0.19729027  0.99619392  1  0  0.153672  0  3.809034  0  0  0.147076  0  4.055267  0  0  0.150728  0  4.077677  0  0  0.090677  0.144583  0  4.040136  0
C  C57  1  0.82819883  0.80270972  0.00380541  1  0  0.153651  0  3.809049  0  0  0.14706  0  4.055296  0  0  0.150712  0  4.077707  0  0  0.090673  0.144573  0  4.040162  0
C  C58  1  0.34545692  0.34788834  0.18860779  1  0  0.403273  0  3.693831  0  0  0.368221  0  3.977715  0  0  0.38715  0  3.988871  0  0  0.23966  0.355715  0  3.969748  0
C  C59  1  0.65454291  0.65211267  0.81139189  1  0  0.403251  0  3.693852  0  0  0.368237  0  3.977689  0  0  0.387164  0  3.988845  0  0  0.239648  0.35573  0  3.969724  0
C  C60  1  0.50424676  0.44295690  0.30183676  1  0  -0.116834  0  3.638107  0  0  -0.175444  0  3.882656  0  0  -0.174401  0  3.889701  0  0  -0.033146  -0.176159  0  3.87805  0
C  C61  1  0.49575368  0.55704310  0.69816364  1  0  -0.116851  0  3.638153  0  0  -0.175502  0  3.882723  0  0  -0.174455  0  3.88976  0  0  -0.033179  -0.176216  0  3.878117  0
C  C62  1  0.76737882  0.41902844  0.30579534  1  0  0.159358  0  3.6397  0  0  0.096992  0  3.905104  0  0  0.111098  0  3.917318  0  0  0.140604  0.08789  0  3.896636  0
C  C63  1  0.23262386  0.58097363  0.69420764  1  0  0.159354  0  3.639675  0  0  0.096974  0  3.905082  0  0  0.11108  0  3.917296  0  0  0.140581  0.087862  0  3.896629  0
C  C64  1  0.86317245  0.56404893  0.22686933  1  0  0.007431  0  3.754143  0  0  -0.026681  0  4.017619  0  0  -0.023921  0  4.037892  0  0  -0.000792  -0.028546  0  4.003895  0
C  C65  1  0.13682962  0.43595415  0.77313375  1  0  0.007407  0  3.754121  0  0  -0.026715  0  4.017586  0  0  -0.023945  0  4.037864  0  0  -0.000784  -0.028576  0  4.003854  0
C  C66  1  0.71357964  0.56563608  0.22696949  1  0  -0.080206  0  3.694407  0  0  -0.125653  0  3.963452  0  0  -0.125001  0  3.982252  0  0  -0.00572  -0.126094  0  3.950855  0
C  C67  1  0.28642303  0.43436598  0.77303267  1  0  -0.080232  0  3.694399  0  0  -0.125674  0  3.963451  0  0  -0.12503  0  3.982259  0  0  -0.005757  -0.126111  0  3.950849  0
N  N68  1  0.19092654  0.31949489  0.18325355  1  0  -0.466037  0  3.16387  0  0  -0.398639  0  3.436993  0  0  -0.421959  0  3.45063  0  0  -0.349933  -0.382817  0  3.427384  0
N  N69  1  0.80907274  0.68050510  0.81674497  1  0  -0.466004  0  3.163905  0  0  -0.398599  0  3.437021  0  0  -0.421918  0  3.450657  0  0  -0.349889  -0.382779  0  3.42742  0
N  N70  1  0.34070614  0.27679571  0.07838085  1  0  -0.390161  0  3.365549  0  0  -0.34088  0  3.602391  0  0  -0.356995  0  3.611935  0  0  -0.377319  -0.32999  0  3.595681  0
N  N71  1  0.65929315  0.72320429  0.92161848  1  0  -0.390145  0  3.365582  0  0  -0.340864  0  3.602401  0  0  -0.356981  0  3.611951  0  0  -0.377312  -0.329972  0  3.59569  0
N  N72  1  0.65466249  0.47319796  0.27719419  1  0  -0.047333  0  3.601104  0  0  0.04229  0  3.825228  0  0  0.028133  0  3.851894  0  0  -0.244677  0.051646  0  3.80709  0
N  N73  1  0.34533903  0.52680408  0.72280691  1  0  -0.047316  0  3.60115  0  0  0.042319  0  3.825272  0  0  0.028162  0  3.851937  0  0  -0.244644  0.051672  0  3.807138  0
N  N74  1  0.89436358  0.47185691  0.27578215  1  0  -0.384926  0  3.272729  0  0  -0.305677  0  3.553983  0  0  -0.327888  0  3.571339  0  0  -0.360344  -0.290565  0  3.541717  0
N  N75  1  0.10563734  0.52814618  0.72422149  1  0  -0.384925  0  3.272729  0  0  -0.30567  0  3.553981  0  0  -0.32788  0  3.571334  0  0  -0.360345  -0.290552  0  3.541712  0
O  O76  1  0.20657881  0.31574544  0.45808136  1  0  -0.644568  0  1.935598  0  0  -0.585048  0  2.176213  0  0  -0.614001  0  2.16736  0  0  -0.34286  -0.564697  0  2.181465  0
O  O77  1  0.79341764  0.68425352  0.54191630  1  0  -0.644568  0  1.935591  0  0  -0.585064  0  2.176215  0  0  -0.614017  0  2.16736  0  0  -0.342864  -0.564704  0  2.181448  0
O  O78  1  0.93029126  0.21926760  0.33149007  1  0  -0.650341  0  1.915304  0  0  -0.594723  0  2.145584  0  0  -0.621942  0  2.135742  0  0  -0.344485  -0.575602  0  2.151514  0
O  O79  1  0.06970466  0.78073034  0.66850805  1  0  -0.650423  0  1.915343  0  0  -0.594814  0  2.145627  0  0  -0.622031  0  2.135781  0  0  -0.344512  -0.575697  0  2.151561  0
O  O80  1  0.31477486  0.64762293  0.48457536  1  0  -0.661156  0  1.97212  0  0  -0.598095  0  2.217089  0  0  -0.627733  0  2.206232  0  0  -0.339349  -0.577292  0  2.223753  0
O  O81  1  0.68522558  0.35237707  0.51542422  1  0  -0.661069  0  1.972188  0  0  -0.598006  0  2.217145  0  0  -0.627642  0  2.206291  0  0  -0.339276  -0.577196  0  2.223811  0
O  O82  1  0.26964508  0.63663896  0.29260144  1  0  -0.640456  0  1.901438  0  0  -0.587291  0  2.120846  0  0  -0.612749  0  2.111375  0  0  -0.344549  -0.569375  0  2.126606  0
O  O83  1  0.73035881  0.36336105  0.70739971  1  0  -0.640488  0  1.901411  0  0  -0.587327  0  2.120815  0  0  -0.612785  0  2.111345  0  0  -0.344602  -0.569403  0  2.126578  0
