# generated using pymatgen
data_ZnH2(CN2)5
_symmetry_space_group_name_H-M   'P 1'
_cell_length_a   8.64234574
_cell_length_b   8.52895791
_cell_length_c   15.88371855
_cell_angle_alpha   89.99943707
_cell_angle_beta   89.99971989
_cell_angle_gamma   89.99961510
_symmetry_Int_Tables_number   1
_chemical_formula_structural   ZnH2(CN2)5
_chemical_formula_sum   'Zn4 H8 C20 N40'
_cell_volume   1170.79211926
_cell_formula_units_Z   4
loop_
 _symmetry_equiv_pos_site_id
 _symmetry_equiv_pos_as_xyz
  1  'x, y, z'
loop_
 _atom_site_type_symbol
 _atom_site_label
 _atom_site_symmetry_multiplicity
 _atom_site_fract_x
 _atom_site_fract_y
 _atom_site_fract_z
 _atom_site_occupancy
 _atom_site_pbe_bader_charge
 _atom_site_pbe_bader_spin_density
 _atom_site_pbe_cm5_charge
 _atom_site_pbe_ddec_charge
 _atom_site_pbe_ddec_spin_density
 _atom_site_pbe_ddec_sum_bond_order
 _atom_site_pbe_magmom
Zn  Zn0  1  0.45022254  0.25438044  0.87714659  1  1.256479  0  0.742647  0.616857  0  2.490168  0
Zn  Zn1  1  0.04977745  0.74561979  0.37714827  1  1.256472  0  0.74259  0.61676  0  2.490178  0
Zn  Zn2  1  0.54977252  0.75438485  0.62285075  1  1.256512  0  0.742653  0.616882  0  2.490048  0
Zn  Zn3  1  0.95022329  0.24562007  0.12285154  1  1.256557  0  0.74262  0.616814  0  2.490083  0
H  H4  1  0.03099541  0.16663061  0.83388296  1  0.181737  0  0.137268  0.097679  0  1.019805  0
H  H5  1  0.46911041  0.48707048  0.30003422  1  0.541087  0  0.316484  0.263547  0  1.011714  0
H  H6  1  0.46899455  0.83336570  0.33388997  1  0.181712  0  0.137276  0.09774  0  1.019775  0
H  H7  1  0.03090300  0.51292879  0.80003416  1  0.541024  0  0.316454  0.263593  0  1.011567  0
H  H8  1  0.96900024  0.66662790  0.66611548  1  0.181782  0  0.137282  0.097705  0  1.019814  0
H  H9  1  0.53091532  0.98707480  0.19997247  1  0.541642  0  0.316405  0.263624  0  1.01147  0
H  H10  1  0.53101717  0.33337743  0.16612196  1  0.181966  0  0.137278  0.097628  0  1.019887  0
H  H11  1  0.96909137  0.01292874  0.69996637  1  0.540957  0  0.316471  0.263681  0  1.011432  0
C  C12  1  0.11659521  0.11698454  0.79168757  1  1.025815  0  0.159123  0.184059  0  3.911509  0
C  C13  1  0.21578692  0.99057843  0.68195826  1  0.364006  0  0.105426  0.068082  0  3.978252  0
C  C14  1  0.21832851  0.91129395  0.60201686  1  1.011619  0  0.2131  0.218365  0  4.113274  0
C  C15  1  0.33337598  0.04396016  0.73453461  1  0.577402  0  0.084121  0.030321  0  4.028556  0
C  C16  1  0.50016752  0.03978677  0.73279236  1  0.916984  0  0.226391  0.257242  0  4.049609  0
C  C17  1  0.38339976  0.88301722  0.29169203  1  1.025615  0  0.159146  0.184092  0  3.911516  0
C  C18  1  0.28421250  0.00942764  0.18195950  1  0.363774  0  0.105366  0.067979  0  3.978184  0
C  C19  1  0.28167278  0.08871120  0.10201643  1  1.0118  0  0.213056  0.218362  0  4.113349  0
C  C20  1  0.16662182  0.95604028  0.23453548  1  0.57763  0  0.084149  0.030428  0  4.028415  0
C  C21  1  0.99983078  0.96021032  0.23278917  1  0.916982  0  0.226518  0.257373  0  4.049454  0
C  C22  1  0.88339962  0.61697813  0.70830988  1  1.025809  0  0.159096  0.184024  0  3.91157  0
C  C23  1  0.78420889  0.49057634  0.81804033  1  0.363995  0  0.105273  0.067771  0  3.978017  0
C  C24  1  0.78166435  0.41128811  0.89798404  1  1.011632  0  0.213104  0.218547  0  4.113372  0
C  C25  1  0.66661934  0.54396005  0.76546071  1  0.577566  0  0.084206  0.030523  0  4.028204  0
C  C26  1  0.49982551  0.53978893  0.76720550  1  0.916974  0  0.226416  0.257234  0  4.049506  0
C  C27  1  0.61660585  0.38301940  0.20831397  1  1.0258  0  0.159081  0.184087  0  3.911693  0
C  C28  1  0.71577940  0.50942274  0.31804158  1  0.363953  0  0.1053  0.067875  0  3.978348  0
C  C29  1  0.71833480  0.58871072  0.39798423  1  1.011642  0  0.213048  0.218349  0  4.113318  0
C  C30  1  0.83337520  0.45603997  0.26546383  1  0.57754  0  0.084178  0.030422  0  4.028396  0
C  C31  1  0.00017546  0.46020741  0.26721012  1  0.916973  0  0.226363  0.257154  0  4.049426  0
N  N32  1  0.26869968  0.12339035  0.80188584  1  -1.210685  0  -0.334518  -0.322977  0  3.452458  0
N  N33  1  0.08023067  0.03807179  0.72010698  1  -1.260311  0  -0.357396  -0.222271  0  3.625427  0
N  N34  1  0.09581575  0.89999450  0.55057507  1  -0.622455  0  -0.218747  -0.259975  0  3.143065  0
N  N35  1  0.15155580  0.82045647  0.48432624  1  -0.235837  0  -0.115842  -0.030005  0  3.595467  0
N  N36  1  0.29938265  0.78505180  0.49324596  1  -0.090594  0  -0.087727  -0.055733  0  3.199123  0
N  N37  1  0.34443008  0.84093237  0.56759232  1  -0.710744  0  -0.226222  -0.236865  0  3.469921  0
N  N38  1  0.57831127  0.12883440  0.78851386  1  -0.743366  0  -0.234372  -0.239264  0  3.484012  0
N  N39  1  0.72959094  0.10312630  0.77474680  1  -0.102749  0  -0.089513  -0.066431  0  3.239086  0
N  N40  1  0.74412349  0.00164781  0.71355231  1  -0.14677  0  -0.084943  -0.069043  0  3.263491  0
N  N41  1  0.60148206  0.95848408  0.68565343  1  -0.751548  0  -0.235298  -0.233724  0  3.45456  0
N  N42  1  0.23129288  0.87660771  0.30188633  1  -1.21074  0  -0.334537  -0.323079  0  3.452528  0
N  N43  1  0.41976957  0.96193476  0.22010966  1  -1.260713  0  -0.357315  -0.22222  0  3.625366  0
N  N44  1  0.40418484  0.10001157  0.05057425  1  -0.622415  0  -0.218706  -0.259897  0  3.142999  0
N  N45  1  0.34843745  0.17954419  0.98432334  1  -0.235823  0  -0.115911  -0.030205  0  3.595719  0
N  N46  1  0.20061169  0.21494635  0.99324516  1  -0.090633  0  -0.087604  -0.055556  0  3.19924  0
N  N47  1  0.15556920  0.15907106  0.06759374  1  -0.710828  0  -0.226228  -0.236876  0  3.470029  0
N  N48  1  0.92168885  0.87116170  0.28851198  1  -0.743352  0  -0.234433  -0.239373  0  3.483936  0
N  N49  1  0.77040930  0.89687004  0.27474707  1  -0.102807  0  -0.089522  -0.066465  0  3.239125  0
N  N50  1  0.75587383  0.99835197  0.21355334  1  -0.146758  0  -0.084926  -0.068935  0  3.263465  0
N  N51  1  0.89851551  0.04151386  0.18565168  1  -0.75159  0  -0.235353  -0.233815  0  3.454552  0
N  N52  1  0.73129395  0.62338632  0.69811031  1  -1.210893  0  -0.334555  -0.323127  0  3.452613  0
N  N53  1  0.91976353  0.53806737  0.77989341  1  -1.260234  0  -0.357266  -0.22196  0  3.625434  0
N  N54  1  0.90417488  0.39998925  0.94942526  1  -0.62302  0  -0.218777  -0.260052  0  3.1434  0
N  N55  1  0.84843633  0.32045350  0.01567380  1  -0.235049  0  -0.115993  -0.030308  0  3.595794  0
N  N56  1  0.70061089  0.28504998  0.00675490  1  -0.090745  0  -0.087558  -0.055352  0  3.19909  0
N  N57  1  0.65556209  0.34092793  0.93240707  1  -0.710727  0  -0.22616  -0.236993  0  3.470099  0
N  N58  1  0.42168348  0.62883339  0.71148416  1  -0.743424  0  -0.234315  -0.239169  0  3.483962  0
N  N59  1  0.27040282  0.60312959  0.72525136  1  -0.102873  0  -0.089573  -0.06656  0  3.239143  0
N  N60  1  0.25586979  0.50164893  0.78644576  1  -0.146817  0  -0.084959  -0.06898  0  3.263423  0
N  N61  1  0.39851396  0.45848466  0.81434280  1  -0.751474  0  -0.235337  -0.23378  0  3.454457  0
N  N62  1  0.76870698  0.37660905  0.19811340  1  -1.210887  0  -0.334505  -0.323043  0  3.45258  0
N  N63  1  0.58023551  0.46192887  0.27989150  1  -1.260461  0  -0.357306  -0.221877  0  3.625819  0
N  N64  1  0.59582034  0.60000865  0.44942383  1  -0.622367  0  -0.218711  -0.259877  0  3.143226  0
N  N65  1  0.65155812  0.67954631  0.51567314  1  -0.235823  0  -0.115886  -0.030199  0  3.595729  0
N  N66  1  0.79938480  0.71494881  0.50675554  1  -0.090648  0  -0.087657  -0.055585  0  3.199133  0
N  N67  1  0.84444022  0.65907028  0.43240780  1  -0.710701  0  -0.22614  -0.236855  0  3.469904  0
N  N68  1  0.07832262  0.37116628  0.21148715  1  -0.74363  0  -0.234232  -0.239095  0  3.483678  0
N  N69  1  0.22960547  0.39686984  0.22525318  1  -0.102536  0  -0.089517  -0.066446  0  3.238982  0
N  N70  1  0.24413679  0.49834941  0.28644826  1  -0.146988  0  -0.085037  -0.069093  0  3.263364  0
N  N71  1  0.10149470  0.54151200  0.31434545  1  -0.75142  0  -0.235295  -0.233743  0  3.454348  0
