# generated using pymatgen
data_CdH32C24S4(N3O4)2
_symmetry_space_group_name_H-M   'P 1'
_cell_length_a   8.39564371
_cell_length_b   8.86774479
_cell_length_c   10.79276542
_cell_angle_alpha   79.23894545
_cell_angle_beta   84.87997177
_cell_angle_gamma   81.87705488
_symmetry_Int_Tables_number   1
_chemical_formula_structural   CdH32C24S4(N3O4)2
_chemical_formula_sum   'Cd1 H32 C24 S4 N6 O8'
_cell_volume   779.84156900
_cell_formula_units_Z   1
loop_
 _symmetry_equiv_pos_site_id
 _symmetry_equiv_pos_as_xyz
  1  'x, y, z'
loop_
 _atom_site_type_symbol
 _atom_site_label
 _atom_site_symmetry_multiplicity
 _atom_site_fract_x
 _atom_site_fract_y
 _atom_site_fract_z
 _atom_site_occupancy
 _atom_site_hle17_bader_spin_density
 _atom_site_hle17_ddec_charge
 _atom_site_hle17_ddec_spin_density
 _atom_site_hle17_ddec_sum_bond_order
 _atom_site_hle17_magmom
 _atom_site_hse06_10hf_bader_spin_density
 _atom_site_hse06_10hf_ddec_charge
 _atom_site_hse06_10hf_ddec_spin_density
 _atom_site_hse06_10hf_ddec_sum_bond_order
 _atom_site_hse06_10hf_magmom
 _atom_site_hse06_bader_spin_density
 _atom_site_hse06_ddec_charge
 _atom_site_hse06_ddec_spin_density
 _atom_site_hse06_ddec_sum_bond_order
 _atom_site_hse06_magmom
 _atom_site_pbe_bader_spin_density
 _atom_site_pbe_cm5_charge
 _atom_site_pbe_ddec_charge
 _atom_site_pbe_ddec_spin_density
 _atom_site_pbe_ddec_sum_bond_order
 _atom_site_pbe_magmom
Cd  Cd0  1  0.99999930  0.00000005  0.49999773  1  0  1.072127  0  1.736571  0  0  0.876692  0  2.194952  0  0  0.923911  0  2.15043  0  0  0.785128  0.842298  0  2.226074  0
H  H1  1  0.97077233  0.28635522  0.57442046  1  0  0.312123  0  0.92559  0  0  0.296167  0  0.987149  0  0  0.30375  0  0.981245  0  0  0.287462  0.290523  0  0.991765  0
H  H2  1  0.02922808  0.71364361  0.42557996  1  0  0.312106  0  0.925611  0  0  0.296151  0  0.987171  0  0  0.303733  0  0.981269  0  0  0.28746  0.290507  0  0.991785  0
H  H3  1  0.89192776  0.32876659  0.42991571  1  0  0.333203  0  0.904376  0  0  0.318169  0  0.964394  0  0  0.325344  0  0.958466  0  0  0.296829  0.313127  0  0.968208  0
H  H4  1  0.10807131  0.67123341  0.57008462  1  0  0.333216  0  0.904313  0  0  0.318218  0  0.964303  0  0  0.325397  0  0.958363  0  0  0.296819  0.313176  0  0.968117  0
H  H5  1  0.16465758  0.59930620  0.92263675  1  0  0.149548  0  0.953881  0  0  0.162836  0  1.019284  0  0  0.16616  0  1.017184  0  0  0.10356  0.160545  0  1.020432  0
H  H6  1  0.83534163  0.40069264  0.07736283  1  0  0.149567  0  0.953849  0  0  0.162847  0  1.01926  0  0  0.166172  0  1.01716  0  0  0.103565  0.160556  0  1.020408  0
H  H7  1  0.07626226  0.69849010  0.04622614  1  0  0.139919  0  0.943233  0  0  0.158951  0  1.003562  0  0  0.161417  0  1.002618  0  0  0.101179  0.157286  0  1.004164  0
H  H8  1  0.92373648  0.30151222  0.95376923  1  0  0.139912  0  0.943203  0  0  0.158946  0  1.00354  0  0  0.161411  0  1.002598  0  0  0.101179  0.15728  0  1.004142  0
H  H9  1  0.28934285  0.67523874  0.01457612  1  0  0.119645  0  0.950727  0  0  0.143698  0  1.005947  0  0  0.145055  0  1.005829  0  0  0.097681  0.142753  0  1.00591  0
H  H10  1  0.71065561  0.32476589  0.98542169  1  0  0.119638  0  0.950634  0  0  0.143688  0  1.00587  0  0  0.145045  0  1.005752  0  0  0.097668  0.142742  0  1.005835  0
H  H11  1  0.17625117  0.04314261  0.97045582  1  0  0.156996  0  0.964796  0  0  0.16125  0  1.030251  0  0  0.165417  0  1.029073  0  0  0.107689  0.158096  0  1.031638  0
H  H12  1  0.82374921  0.95685622  0.02953996  1  0  0.157001  0  0.964825  0  0  0.161245  0  1.030293  0  0  0.165406  0  1.029111  0  0  0.107681  0.158091  0  1.031679  0
H  H13  1  0.52788987  0.32593098  0.86058906  1  0  0.086699  0  0.974624  0  0  0.096231  0  1.037653  0  0  0.099633  0  1.034707  0  0  0.096356  0.093585  0  1.040093  0
H  H14  1  0.47211250  0.67407132  0.13941253  1  0  0.086693  0  0.974665  0  0  0.096236  0  1.037688  0  0  0.09964  0  1.034738  0  0  0.096352  0.093589  0  1.040128  0
H  H15  1  0.80925509  0.29181567  0.75842722  1  0  0.105523  0  0.978362  0  0  0.112949  0  1.044719  0  0  0.115763  0  1.044947  0  0  0.099922  0.11076  0  1.044481  0
H  H16  1  0.19074622  0.70818547  0.24157370  1  0  0.105513  0  0.978365  0  0  0.112924  0  1.044741  0  0  0.115735  0  1.04497  0  0  0.099908  0.110733  0  1.044502  0
H  H17  1  0.61353360  0.27361134  0.40807905  1  0  0.104958  0  0.951647  0  0  0.112668  0  1.015675  0  0  0.116663  0  1.013415  0  0  0.102238  0.109556  0  1.017892  0
H  H18  1  0.38646533  0.72638982  0.59192297  1  0  0.104945  0  0.951615  0  0  0.112642  0  1.015656  0  0  0.116637  0  1.013395  0  0  0.10223  0.10953  0  1.017873  0
H  H19  1  0.33515127  0.29989952  0.50976285  1  0  0.109689  0  0.944788  0  0  0.117173  0  1.008248  0  0  0.121126  0  1.00533  0  0  0.103834  0.114124  0  1.010828  0
H  H20  1  0.66484901  0.70010047  0.49023925  1  0  0.109694  0  0.944796  0  0  0.117176  0  1.008259  0  0  0.12113  0  1.005338  0  0  0.103822  0.114127  0  1.010839  0
H  H21  1  0.90328502  0.59881488  0.78148607  1  0  0.166365  0  0.956241  0  0  0.180615  0  1.015678  0  0  0.183872  0  1.013953  0  0  0.104309  0.177787  0  1.017881  0
H  H22  1  0.09671629  0.40118626  0.21851485  1  0  0.166359  0  0.95627  0  0  0.180621  0  1.015689  0  0  0.18388  0  1.013957  0  0  0.104301  0.177792  0  1.017894  0
H  H23  1  0.69329959  0.60023653  0.75668421  1  0  0.140374  0  0.946523  0  0  0.159517  0  1.003406  0  0  0.160884  0  1.004387  0  0  0.100186  0.159353  0  1.001499  0
H  H24  1  0.30670188  0.39976346  0.24331780  1  0  0.14038  0  0.946516  0  0  0.159502  0  1.003423  0  0  0.16087  0  1.004402  0  0  0.100169  0.159338  0  1.001515  0
H  H25  1  0.75433372  0.62145320  0.90958541  1  0  0.160409  0  0.962495  0  0  0.179414  0  1.018046  0  0  0.181392  0  1.017869  0  0  0.104284  0.178016  0  1.018051  0
H  H26  1  0.24566745  0.37854910  0.09041627  1  0  0.160435  0  0.962456  0  0  0.179442  0  1.018003  0  0  0.181419  0  1.017826  0  0  0.104294  0.178043  0  1.018008  0
H  H27  1  0.51646293  0.01816942  0.76737991  1  0  0.146288  0  0.969532  0  0  0.161426  0  1.031452  0  0  0.162258  0  1.033919  0  0  0.099466  0.161054  0  1.029411  0
H  H28  1  0.48353613  0.98183058  0.23261950  1  0  0.146288  0  0.969532  0  0  0.161425  0  1.031453  0  0  0.162258  0  1.033918  0  0  0.099469  0.161052  0  1.029412  0
H  H29  1  0.52909154  0.86163455  0.90010653  1  0  0.143065  0  0.933451  0  0  0.165811  0  0.984889  0  0  0.167166  0  0.984968  0  0  0.10495  0.164822  0  0.984991  0
H  H30  1  0.47090632  0.13836545  0.09989297  1  0  0.143054  0  0.933457  0  0  0.165783  0  0.984922  0  0  0.167139  0  0.984999  0  0  0.104936  0.164794  0  0.985024  0
H  H31  1  0.48420284  0.82788616  0.74721179  1  0  0.148842  0  0.934987  0  0  0.167975  0  0.988939  0  0  0.170237  0  0.988163  0  0  0.105642  0.166322  0  0.990068  0
H  H32  1  0.51579742  0.17211383  0.25278753  1  0  0.148854  0  0.934975  0  0  0.167987  0  0.988925  0  0  0.17025  0  0.988149  0  0  0.105653  0.166335  0  0.990055  0
C  C33  1  0.17320677  0.69586867  0.97089241  1  0  -0.379678  0  3.688359  0  0  -0.454218  0  3.915681  0  0  -0.458772  0  3.920418  0  0  -0.237749  -0.450433  0  3.912006  0
C  C34  1  0.82679109  0.30413133  0.02910708  1  0  -0.379691  0  3.688144  0  0  -0.454229  0  3.915505  0  0  -0.458789  0  3.920246  0  0  -0.237743  -0.450444  0  3.911832  0
C  C35  1  0.15958646  0.84350211  0.87977926  1  0  0.337427  0  3.722957  0  0  0.326766  0  3.996094  0  0  0.344066  0  4.007192  0  0  0.091056  0.314702  0  3.988633  0
C  C36  1  0.84041153  0.15649673  0.12021762  1  0  0.337546  0  3.722802  0  0  0.326882  0  3.995951  0  0  0.344184  0  4.007035  0  0  0.091126  0.314815  0  3.988492  0
C  C37  1  0.16245846  0.99484544  0.88767359  1  0  -0.386705  0  3.704601  0  0  -0.407759  0  3.959103  0  0  -0.421982  0  3.975004  0  0  -0.132022  -0.39872  0  3.949256  0
C  C38  1  0.83754089  0.00515224  0.11232430  1  0  -0.386723  0  3.704756  0  0  -0.407785  0  3.959238  0  0  -0.422  0  3.975127  0  0  -0.132044  -0.398745  0  3.94939  0
C  C39  1  0.13685506  0.08017912  0.76278718  1  0  0.426471  0  3.8994  0  0  0.392082  0  4.186513  0  0  0.414205  0  4.196964  0  0  0.204731  0.377696  0  4.178786  0
C  C40  1  0.86314517  0.91982087  0.23720843  1  0  0.42634  0  3.899574  0  0  0.392029  0  4.186587  0  0  0.414149  0  4.197041  0  0  0.204705  0.377644  0  4.178855  0
C  C41  1  0.41550761  0.31888663  0.69098492  1  0  -0.153749  0  3.78084  0  0  -0.130919  0  4.034042  0  0  -0.139977  0  4.057879  0  0  -0.036605  -0.12496  0  4.019076  0
C  C42  1  0.58449252  0.68111452  0.30901701  1  0  -0.153705  0  3.780641  0  0  -0.130879  0  4.033857  0  0  -0.139935  0  4.057697  0  0  -0.036619  -0.124918  0  4.018888  0
C  C43  1  0.54848526  0.31445077  0.76146420  1  0  -0.070234  0  3.830509  0  0  -0.092622  0  4.079499  0  0  -0.090117  0  4.099429  0  0  -0.095547  -0.094776  0  4.065505  0
C  C44  1  0.45151291  0.68554692  0.23853748  1  0  -0.070307  0  3.830653  0  0  -0.092706  0  4.079642  0  0  -0.090205  0  4.099571  0  0  -0.095561  -0.094861  0  4.065647  0
C  C45  1  0.70407778  0.29526818  0.70512659  1  0  -0.197855  0  3.742803  0  0  -0.211918  0  3.99181  0  0  -0.219733  0  4.013945  0  0  -0.107428  -0.204779  0  3.973532  0
C  C46  1  0.29592383  0.70473065  0.29487466  1  0  -0.197831  0  3.74302  0  0  -0.211878  0  3.992001  0  0  -0.219696  0  4.014144  0  0  -0.107431  -0.204739  0  3.973725  0
C  C47  1  0.72805692  0.28304192  0.57676765  1  0  0.310666  0  3.784185  0  0  0.305657  0  4.029113  0  0  0.316364  0  4.049395  0  0  0.094494  0.297394  0  4.015521  0
C  C48  1  0.27194350  0.71695691  0.42323369  1  0  0.310661  0  3.784338  0  0  0.30567  0  4.029234  0  0  0.316377  0  4.049518  0  0  0.094532  0.297405  0  4.015648  0
C  C49  1  0.59361962  0.28558336  0.50713870  1  0  -0.153097  0  3.687881  0  0  -0.170824  0  3.941278  0  0  -0.17719  0  3.960722  0  0  -0.092185  -0.166742  0  3.930115  0
C  C50  1  0.40637946  0.71441664  0.49286348  1  0  -0.153047  0  3.687915  0  0  -0.170761  0  3.941297  0  0  -0.177127  0  3.960743  0  0  -0.09218  -0.166679  0  3.930134  0
C  C51  1  0.43838988  0.30251464  0.56360289  1  0  -0.037923  0  3.744538  0  0  -0.06199  0  3.995841  0  0  -0.058841  0  4.014357  0  0  -0.082871  -0.065133  0  3.985139  0
C  C52  1  0.56160920  0.69748536  0.43639929  1  0  -0.037971  0  3.744508  0  0  -0.062042  0  3.995816  0  0  -0.058894  0  4.014331  0  0  -0.082857  -0.065184  0  3.98511  0
C  C53  1  0.77902196  0.64576533  0.80671102  1  0  -0.440523  0  3.554697  0  0  -0.507057  0  3.794997  0  0  -0.511657  0  3.800324  0  0  -0.24046  -0.504219  0  3.790693  0
C  C54  1  0.22097831  0.35423466  0.19329108  1  0  -0.440553  0  3.554731  0  0  -0.507084  0  3.795032  0  0  -0.51168  0  3.800358  0  0  -0.240444  -0.504244  0  3.79073  0
C  C55  1  0.55029856  0.89370320  0.79729690  1  0  -0.428575  0  3.587979  0  0  -0.497185  0  3.833243  0  0  -0.501091  0  3.839979  0  0  -0.234299  -0.49426  0  3.827637  0
C  C56  1  0.44970050  0.10629680  0.20270251  1  0  -0.428573  0  3.587982  0  0  -0.497167  0  3.833238  0  0  -0.501074  0  3.839974  0  0  -0.234297  -0.494244  0  3.827632  0
S  S57  1  0.21748301  0.34746305  0.76360722  1  0  1.216493  0  5.538504  0  0  1.127989  0  6.053248  0  0  1.171688  0  6.037069  0  0  0.540518  1.097694  0  6.065476  0
S  S58  1  0.78251591  0.65253810  0.23639294  1  0  1.216478  0  5.538289  0  0  1.127971  0  6.053032  0  0  1.171663  0  6.036861  0  0  0.540564  1.097673  0  6.065258  0
S  S59  1  0.76259845  0.85176090  0.75917287  1  0  0.694569  0  3.607627  0  0  0.662555  0  4.056229  0  0  0.679162  0  4.054881  0  0  0.278501  0.652554  0  4.053704  0
S  S60  1  0.23740166  0.14824025  0.24082721  1  0  0.694584  0  3.607607  0  0  0.662584  0  4.056198  0  0  0.679189  0  4.054852  0  0  0.278501  0.652582  0  4.053675  0
N  N61  1  0.11627781  0.23498490  0.71513187  1  0  -0.68046  0  3.032035  0  0  -0.631993  0  3.328832  0  0  -0.655575  0  3.329738  0  0  -0.397467  -0.615649  0  3.328824  0
N  N62  1  0.88372349  0.76501624  0.28486628  1  0  -0.680404  0  3.031939  0  0  -0.63196  0  3.328703  0  0  -0.655536  0  3.329613  0  0  -0.397486  -0.615625  0  3.328715  0
N  N63  1  0.88525727  0.26399610  0.51928456  1  0  -0.676009  0  3.107323  0  0  -0.61967  0  3.340835  0  0  -0.640783  0  3.336998  0  0  -0.602569  -0.604571  0  3.343659  0
N  N64  1  0.11474180  0.73600390  0.48071577  1  0  -0.675986  0  3.107294  0  0  -0.619698  0  3.340751  0  0  -0.640813  0  3.336917  0  0  -0.602566  -0.604598  0  3.343574  0
N  N65  1  0.12364018  0.98128745  0.68521608  1  0  -0.333563  0  2.892124  0  0  -0.289104  0  3.195244  0  0  -0.305008  0  3.203019  0  0  -0.269986  -0.278495  0  3.189134  0
N  N66  1  0.87636005  0.01871254  0.31477954  1  0  -0.333547  0  2.892193  0  0  -0.289108  0  3.195277  0  0  -0.305019  0  3.203054  0  0  -0.26996  -0.278499  0  3.189165  0
O  O67  1  0.23610087  0.31519176  0.90029744  1  0  -0.662131  0  1.949873  0  0  -0.611106  0  2.195951  0  0  -0.631986  0  2.184866  0  0  -0.343102  -0.596742  0  2.204026  0
O  O68  1  0.76389728  0.68480593  0.09970239  1  0  -0.66209  0  1.949819  0  0  -0.611047  0  2.195863  0  0  -0.631925  0  2.184778  0  0  -0.343083  -0.596684  0  2.203942  0
O  O69  1  0.14703913  0.50505251  0.71342913  1  0  -0.642053  0  2.002203  0  0  -0.596951  0  2.255173  0  0  -0.616587  0  2.242682  0  0  -0.332161  -0.583133  0  2.262969  0
O  O70  1  0.85296115  0.49494749  0.28657390  1  0  -0.642058  0  2.002042  0  0  -0.596953  0  2.255004  0  0  -0.616589  0  2.242522  0  0  -0.332204  -0.583131  0  2.262795  0
O  O71  1  0.78202943  0.88063127  0.61488905  1  0  -0.647747  0  1.921013  0  0  -0.575647  0  2.191104  0  0  -0.59877  0  2.181948  0  0  -0.363578  -0.55878  0  2.195975  0
O  O72  1  0.21797069  0.11936988  0.38511103  1  0  -0.647759  0  1.920976  0  0  -0.575685  0  2.191085  0  0  -0.598807  0  2.181929  0  0  -0.363585  -0.55881  0  2.195937  0
O  O73  1  0.13659395  0.83173237  0.75875416  1  0  -0.155045  0  2.362654  0  0  -0.089293  0  2.597687  0  0  -0.105523  0  2.605802  0  0  -0.049418  -0.077513  0  2.589631  0
O  O74  1  0.86340270  0.16826764  0.24124171  1  0  -0.155071  0  2.362754  0  0  -0.089321  0  2.597792  0  0  -0.105536  0  2.605895  0  0  -0.04944  -0.077538  0  2.589736  0
