# generated using pymatgen
data_ZnH5C9NO5F6
_symmetry_space_group_name_H-M   'P 1'
_cell_length_a   7.17751008
_cell_length_b   8.53194280
_cell_length_c   11.13240189
_cell_angle_alpha   107.04266672
_cell_angle_beta   89.99948673
_cell_angle_gamma   89.99932983
_symmetry_Int_Tables_number   1
_chemical_formula_structural   ZnH5C9NO5F6
_chemical_formula_sum   'Zn2 H10 C18 N2 O10 F12'
_cell_volume   651.79035724
_cell_formula_units_Z   2
loop_
 _symmetry_equiv_pos_site_id
 _symmetry_equiv_pos_as_xyz
  1  'x, y, z'
loop_
 _atom_site_type_symbol
 _atom_site_label
 _atom_site_symmetry_multiplicity
 _atom_site_fract_x
 _atom_site_fract_y
 _atom_site_fract_z
 _atom_site_occupancy
 _atom_site_hle17_bader_spin_density
 _atom_site_hle17_ddec_charge
 _atom_site_hle17_ddec_spin_density
 _atom_site_hle17_ddec_sum_bond_order
 _atom_site_hle17_magmom
 _atom_site_hse06_10hf_bader_spin_density
 _atom_site_hse06_10hf_ddec_charge
 _atom_site_hse06_10hf_ddec_spin_density
 _atom_site_hse06_10hf_ddec_sum_bond_order
 _atom_site_hse06_10hf_magmom
 _atom_site_hse06_bader_spin_density
 _atom_site_hse06_ddec_charge
 _atom_site_hse06_ddec_spin_density
 _atom_site_hse06_ddec_sum_bond_order
 _atom_site_hse06_magmom
 _atom_site_pbe_bader_spin_density
 _atom_site_pbe_cm5_charge
 _atom_site_pbe_ddec_charge
 _atom_site_pbe_ddec_spin_density
 _atom_site_pbe_ddec_sum_bond_order
 _atom_site_pbe_magmom
Zn  Zn0  1  0.99999724  0.49999653  0.50000271  1  0  1.2102  0  1.728978  0  0  1.056227  0  2.185223  0  0  1.102394  0  2.123815  0  0  0.688046  1.023581  0  2.227776  0
Zn  Zn1  1  0.49999934  0.49999863  0.50000194  1  0  1.210125  0  1.728751  0  0  1.056115  0  2.184973  0  0  1.102285  0  2.123568  0  0  0.688117  1.023469  0  2.227524  0
H  H2  1  0.75000183  0.12027928  0.77460666  1  0  0.313268  0  0.814675  0  0  0.305032  0  0.852806  0  0  0.311398  0  0.849179  0  0  0.353466  0.300356  0  0.855763  0
H  H3  1  0.25000660  0.87972172  0.22538909  1  0  0.313277  0  0.814674  0  0  0.305036  0  0.852794  0  0  0.311404  0  0.849166  0  0  0.353471  0.300373  0  0.855722  0
H  H4  1  0.74999348  0.90059351  0.59196725  1  0  0.12351  0  0.920505  0  0  0.129799  0  0.983534  0  0  0.133727  0  0.97873  0  0  0.130387  0.126722  0  0.987393  0
H  H5  1  0.24999824  0.09940503  0.40802884  1  0  0.12365  0  0.920475  0  0  0.12981  0  0.983577  0  0  0.133748  0  0.978761  0  0  0.130399  0.126707  0  0.987473  0
H  H6  1  0.75000667  0.57625456  0.82464800  1  0  0.131587  0  0.907931  0  0  0.139502  0  0.967204  0  0  0.143953  0  0.962747  0  0  0.113684  0.136072  0  0.9708  0
H  H7  1  0.25000733  0.42375131  0.17535247  1  0  0.131661  0  0.907862  0  0  0.139549  0  0.967146  0  0  0.144009  0  0.962692  0  0  0.113711  0.136128  0  0.970721  0
H  H8  1  0.75000634  0.82511812  0.01375992  1  0  0.112081  0  0.978713  0  0  0.112833  0  1.050966  0  0  0.116623  0  1.048523  0  0  0.097464  0.10998  0  1.053026  0
H  H9  1  0.25001184  0.17488773  0.98624323  1  0  0.112094  0  0.97879  0  0  0.112878  0  1.050989  0  0  0.116634  0  1.04858  0  0  0.097454  0.109758  0  1.05343  0
H  H10  1  0.75000608  0.10657394  0.98108028  1  0  0.103929  0  0.950088  0  0  0.110462  0  1.015505  0  0  0.113772  0  1.012494  0  0  0.121328  0.107942  0  1.01791  0
H  H11  1  0.25001350  0.89342828  0.01891665  1  0  0.104047  0  0.950032  0  0  0.110471  0  1.015548  0  0  0.113763  0  1.012559  0  0  0.121319  0.107955  0  1.018034  0
C  C12  1  0.74999302  0.87678687  0.68230500  1  0  0.049754  0  3.544143  0  0  0.000411  0  3.809003  0  0  0.008185  0  3.817819  0  0  0.056985  -0.005021  0  3.804021  0
C  C13  1  0.24999451  0.12321534  0.31769283  1  0  0.049566  0  3.544306  0  0  0.000452  0  3.80898  0  0  0.008216  0  3.817805  0  0  0.057024  -0.004909  0  3.803869  0
C  C14  1  0.74999686  0.71572639  0.69202961  1  0  0.339211  0  3.872591  0  0  0.33386  0  4.122957  0  0  0.342759  0  4.141061  0  0  0.097092  0.327047  0  4.111311  0
C  C15  1  0.25000042  0.28427703  0.30797119  1  0  0.339292  0  3.872753  0  0  0.333849  0  4.123112  0  0  0.342746  0  4.141216  0  0  0.097086  0.327051  0  4.111435  0
C  C16  1  0.75000588  0.69933966  0.81456758  1  0  -0.084972  0  3.607782  0  0  -0.117467  0  3.865557  0  0  -0.116122  0  3.88069  0  0  -0.067321  -0.118246  0  3.855842  0
C  C17  1  0.25000951  0.30066499  0.18543170  1  0  -0.085066  0  3.607715  0  0  -0.117502  0  3.865446  0  0  -0.11617  0  3.880584  0  0  -0.067332  -0.118291  0  3.855718  0
C  C18  1  0.75000977  0.83753748  0.91941260  1  0  -0.106192  0  3.777319  0  0  -0.121311  0  4.044099  0  0  -0.127151  0  4.066384  0  0  -0.087952  -0.117678  0  4.029648  0
C  C19  1  0.25001398  0.16246718  0.08058669  1  0  -0.106361  0  3.777567  0  0  -0.121474  0  4.04425  0  0  -0.127284  0  4.066548  0  0  -0.088056  -0.117953  0  4.030201  0
C  C20  1  0.75000322  0.99312969  0.90461904  1  0  0.085438  0  3.651858  0  0  0.035487  0  3.923557  0  0  0.041358  0  3.940483  0  0  0.034385  0.031435  0  3.912537  0
C  C21  1  0.25000661  0.00687377  0.09537549  1  0  0.085365  0  3.651743  0  0  0.035434  0  3.923505  0  0  0.041324  0  3.940425  0  0  0.034387  0.031388  0  3.912404  0
C  C22  1  0.74997733  0.52717779  0.27973255  1  0  0.522045  0  3.998902  0  0  0.469652  0  4.300085  0  0  0.499671  0  4.295161  0  0  0.202631  0.449246  0  4.302986  0
C  C23  1  0.24999767  0.47281822  0.72027374  1  0  0.522366  0  3.998625  0  0  0.469845  0  4.300046  0  0  0.499828  0  4.295162  0  0  0.202588  0.449464  0  4.302899  0
C  C24  1  0.74999487  0.54307443  0.14338795  1  0  0.678996  0  3.616362  0  0  0.607241  0  3.963072  0  0  0.634357  0  3.936527  0  0  0.293444  0.587588  0  3.982563  0
C  C25  1  0.25000241  0.45692403  0.85661800  1  0  0.679325  0  3.616019  0  0  0.607297  0  3.963297  0  0  0.634449  0  3.936706  0  0  0.293442  0.587703  0  3.982678  0
C  C26  1  0.74998284  0.19107322  0.42645835  1  0  0.526074  0  3.990808  0  0  0.476906  0  4.283183  0  0  0.507258  0  4.278068  0  0  0.206543  0.456263  0  4.28613  0
C  C27  1  0.25000330  0.80892654  0.57353892  1  0  0.526128  0  3.990914  0  0  0.476977  0  4.283299  0  0  0.507339  0  4.278173  0  0  0.206633  0.456066  0  4.286754  0
C  C28  1  0.75000277  0.00631355  0.34839393  1  0  0.662148  0  3.642462  0  0  0.591421  0  3.987596  0  0  0.618562  0  3.961057  0  0  0.292076  0.571934  0  4.006688  0
C  C29  1  0.24999173  0.99368619  0.65160513  1  0  0.662145  0  3.64237  0  0  0.59139  0  3.987552  0  0  0.618512  0  3.961045  0  0  0.292076  0.571457  0  4.00762  0
N  N30  1  0.75000115  0.00609475  0.78616401  1  0  -0.186852  0  3.529133  0  0  -0.12431  0  3.77058  0  0  -0.135921  0  3.785123  0  0  -0.346054  -0.116826  0  3.761452  0
N  N31  1  0.25000310  0.99390746  0.21383382  1  0  -0.186733  0  3.528966  0  0  -0.124233  0  3.770312  0  0  -0.135844  0  3.784848  0  0  -0.346026  -0.116632  0  3.760862  0
O  O32  1  0.74999426  0.58985056  0.58976149  1  0  -0.683522  0  2.199092  0  0  -0.602683  0  2.480473  0  0  -0.629358  0  2.46616  0  0  -0.345031  -0.583792  0  2.490013  0
O  O33  1  0.24999466  0.41014918  0.41023937  1  0  -0.683591  0  2.199263  0  0  -0.60268  0  2.480597  0  0  -0.629367  0  2.466325  0  0  -0.345028  -0.583784  0  2.490132  0
O  O34  1  0.90982499  0.51918494  0.32347365  1  0  -0.573304  0  2.11907  0  0  -0.529544  0  2.379995  0  0  -0.555  0  2.369614  0  0  -0.30208  -0.511471  0  2.386495  0
O  O35  1  0.40980263  0.48081756  0.67653051  1  0  -0.573222  0  2.119877  0  0  -0.529394  0  2.380853  0  0  -0.554833  0  2.370483  0  0  -0.301963  -0.511339  0  2.387339  0
O  O36  1  0.09018204  0.48081595  0.67653646  1  0  -0.573151  0  2.119815  0  0  -0.529392  0  2.380841  0  0  -0.554833  0  2.370474  0  0  -0.30192  -0.511336  0  2.387325  0
O  O37  1  0.59019744  0.51917482  0.32346776  1  0  -0.572737  0  2.120824  0  0  -0.529007  0  2.381779  0  0  -0.55445  0  2.371396  0  0  -0.301753  -0.510946  0  2.388282  0
O  O38  1  0.90939686  0.25299177  0.44983230  1  0  -0.574384  0  2.143646  0  0  -0.528167  0  2.404073  0  0  -0.554781  0  2.394937  0  0  -0.296562  -0.509389  0  2.409725  0
O  O39  1  0.40938089  0.74701318  0.55017243  1  0  -0.574032  0  2.144518  0  0  -0.527834  0  2.404935  0  0  -0.554442  0  2.395797  0  0  -0.296407  -0.509132  0  2.410861  0
O  O40  1  0.09059903  0.74700427  0.55016951  1  0  -0.574327  0  2.143867  0  0  -0.52813  0  2.404324  0  0  -0.554744  0  2.395179  0  0  -0.296612  -0.509424  0  2.410252  0
O  O41  1  0.59061361  0.25298041  0.44982792  1  0  -0.573935  0  2.144579  0  0  -0.527715  0  2.404962  0  0  -0.554317  0  2.395829  0  0  -0.296361  -0.508947  0  2.410613  0
F  F42  1  0.90253764  0.62292446  0.11820243  1  0  -0.250894  0  1.172202  0  0  -0.217544  0  1.340294  0  0  -0.226195  0  1.323308  0  0  -0.109455  -0.211211  0  1.352306  0
F  F43  1  0.40256545  0.37709779  0.88180090  1  0  -0.250933  0  1.172357  0  0  -0.217497  0  1.340492  0  0  -0.226154  0  1.323495  0  0  -0.109324  -0.211256  0  1.352629  0
F  F44  1  0.09744710  0.37709238  0.88180862  1  0  -0.250981  0  1.172227  0  0  -0.21754  0  1.340355  0  0  -0.226196  0  1.323356  0  0  -0.109409  -0.2113  0  1.352492  0
F  F45  1  0.59742487  0.62288723  0.11819749  1  0  -0.25093  0  1.172367  0  0  -0.217486  0  1.340392  0  0  -0.226138  0  1.323409  0  0  -0.109382  -0.211151  0  1.352403  0
F  F46  1  0.75001743  0.38942018  0.05753011  1  0  -0.266798  0  1.134149  0  0  -0.225972  0  1.292349  0  0  -0.236704  0  1.277013  0  0  -0.113965  -0.218245  0  1.30337  0
F  F47  1  0.24999796  0.61058202  0.94246862  1  0  -0.266976  0  1.134084  0  0  -0.225975  0  1.2923  0  0  -0.236716  0  1.27695  0  0  -0.11397  -0.218306  0  1.303319  0
F  F48  1  0.75000092  0.99665527  0.22259606  1  0  -0.267149  0  1.14279  0  0  -0.223453  0  1.302002  0  0  -0.234184  0  1.287828  0  0  -0.111153  -0.215565  0  1.311814  0
F  F49  1  0.24999218  0.00334325  0.77740362  1  0  -0.267169  0  1.142808  0  0  -0.223476  0  1.30203  0  0  -0.234198  0  1.287856  0  0  -0.111152  -0.213103  0  1.308973  0
F  F50  1  0.90220781  0.92304004  0.36922200  1  0  -0.233279  0  1.186488  0  0  -0.202064  0  1.36231  0  0  -0.21182  0  1.347311  0  0  -0.100256  -0.194978  0  1.372711  0
F  F51  1  0.40218473  0.07696265  0.63077056  1  0  -0.233251  0  1.186598  0  0  -0.202009  0  1.362403  0  0  -0.211762  0  1.347411  0  0  -0.100244  -0.195235  0  1.372991  0
F  F52  1  0.09779087  0.07695851  0.63077319  1  0  -0.233278  0  1.186455  0  0  -0.202039  0  1.362273  0  0  -0.211792  0  1.347281  0  0  -0.100238  -0.195268  0  1.372861  0
F  F53  1  0.59781255  0.92303834  0.36922698  1  0  -0.233259  0  1.186695  0  0  -0.202039  0  1.362513  0  0  -0.211797  0  1.347513  0  0  -0.100231  -0.194952  0  1.372914  0
