# generated using pymatgen
data_ZnH20C12(SO5)2
_symmetry_space_group_name_H-M   'P 1'
_cell_length_a   5.26193718
_cell_length_b   10.18980895
_cell_length_c   16.06017804
_cell_angle_alpha   99.36568866
_cell_angle_beta   90.00070620
_cell_angle_gamma   89.99987992
_symmetry_Int_Tables_number   1
_chemical_formula_structural   ZnH20C12(SO5)2
_chemical_formula_sum   'Zn2 H40 C24 S4 O20'
_cell_volume   849.63792144
_cell_formula_units_Z   2
loop_
 _symmetry_equiv_pos_site_id
 _symmetry_equiv_pos_as_xyz
  1  'x, y, z'
loop_
 _atom_site_type_symbol
 _atom_site_label
 _atom_site_symmetry_multiplicity
 _atom_site_fract_x
 _atom_site_fract_y
 _atom_site_fract_z
 _atom_site_occupancy
 _atom_site_hle17_bader_spin_density
 _atom_site_hle17_ddec_charge
 _atom_site_hle17_ddec_spin_density
 _atom_site_hle17_ddec_sum_bond_order
 _atom_site_hle17_magmom
 _atom_site_hse06_10hf_bader_spin_density
 _atom_site_hse06_10hf_ddec_charge
 _atom_site_hse06_10hf_ddec_spin_density
 _atom_site_hse06_10hf_ddec_sum_bond_order
 _atom_site_hse06_10hf_magmom
 _atom_site_hse06_bader_spin_density
 _atom_site_hse06_ddec_charge
 _atom_site_hse06_ddec_spin_density
 _atom_site_hse06_ddec_sum_bond_order
 _atom_site_hse06_magmom
 _atom_site_pbe_bader_spin_density
 _atom_site_pbe_cm5_charge
 _atom_site_pbe_ddec_charge
 _atom_site_pbe_ddec_spin_density
 _atom_site_pbe_ddec_sum_bond_order
 _atom_site_pbe_magmom
Zn  Zn0  1  0.50000974  0.50000482  0.49999873  1  0  1.188747  0  1.6736  0  0  1.030475  0  2.108152  0  0  1.078548  0  2.048972  0  0  0.669491  0.995855  0  2.149671  0
Zn  Zn1  1  0.99998982  0.00000498  0.99999461  1  0  1.188686  0  1.673586  0  0  1.030418  0  2.108095  0  0  1.078488  0  2.04892  0  0  0.669496  0.995795  0  2.149646  0
H  H2  1  0.51775526  0.02255341  0.38432281  1  0  0.374411  0  0.914849  0  0  0.347081  0  0.988848  0  0  0.358523  0  0.977025  0  0  0.296576  0.339069  0  0.996982  0
H  H3  1  0.01775091  0.47743447  0.11568793  1  0  0.374576  0  0.914547  0  0  0.347301  0  0.988442  0  0  0.358746  0  0.976618  0  0  0.296604  0.339293  0  0.996573  0
H  H4  1  0.48225472  0.97743330  0.61569094  1  0  0.3746  0  0.914404  0  0  0.347362  0  0.988239  0  0  0.358806  0  0.976415  0  0  0.296623  0.339353  0  0.996369  0
H  H5  1  0.98224386  0.52254927  0.88431742  1  0  0.374458  0  0.914771  0  0  0.347091  0  0.988829  0  0  0.358531  0  0.97701  0  0  0.296611  0.339083  0  0.996962  0
H  H6  1  0.90395431  0.76373064  0.44227414  1  0  0.125835  0  0.982878  0  0  0.130305  0  1.051537  0  0  0.135061  0  1.047781  0  0  0.10515  0.126737  0  1.054478  0
H  H7  1  0.40400999  0.73625308  0.05773769  1  0  0.125826  0  0.982978  0  0  0.130263  0  1.051664  0  0  0.135009  0  1.047932  0  0  0.105116  0.126713  0  1.054554  0
H  H8  1  0.09601766  0.23625010  0.55774211  1  0  0.125794  0  0.982937  0  0  0.130197  0  1.051714  0  0  0.134949  0  1.047963  0  0  0.105079  0.126641  0  1.054625  0
H  H9  1  0.59603990  0.26373067  0.94226642  1  0  0.125726  0  0.982953  0  0  0.13027  0  1.051545  0  0  0.135023  0  1.047793  0  0  0.105139  0.126703  0  1.054485  0
H  H10  1  0.69842875  0.26282879  0.66083546  1  0  0.152258  0  0.955614  0  0  0.164486  0  1.024646  0  0  0.166727  0  1.024198  0  0  0.09947  0.162688  0  1.025254  0
H  H11  1  0.19838991  0.23717293  0.83916323  1  0  0.152194  0  0.955738  0  0  0.164413  0  1.024799  0  0  0.166654  0  1.024353  0  0  0.099413  0.162614  0  1.025411  0
H  H12  1  0.30161734  0.73717587  0.33915962  1  0  0.152274  0  0.955757  0  0  0.164489  0  1.02482  0  0  0.166731  0  1.024373  0  0  0.099438  0.162684  0  1.025439  0
H  H13  1  0.80157446  0.76283867  0.16084315  1  0  0.152348  0  0.955594  0  0  0.164554  0  1.024635  0  0  0.166797  0  1.024188  0  0  0.099474  0.16275  0  1.025242  0
H  H14  1  0.74617688  0.37366676  0.75924432  1  0  0.145384  0  0.990409  0  0  0.156795  0  1.061329  0  0  0.159538  0  1.060687  0  0  0.09643  0.154822  0  1.06169  0
H  H15  1  0.24618454  0.12634293  0.74075540  1  0  0.145295  0  0.990456  0  0  0.156801  0  1.061288  0  0  0.159548  0  1.060644  0  0  0.096455  0.154827  0  1.061652  0
H  H16  1  0.25382930  0.62633790  0.24075262  1  0  0.145299  0  0.990519  0  0  0.156828  0  1.061306  0  0  0.159571  0  1.060663  0  0  0.096459  0.154852  0  1.061672  0
H  H17  1  0.75381784  0.87368558  0.25925088  1  0  0.145383  0  0.990383  0  0  0.156865  0  1.061218  0  0  0.159615  0  1.060569  0  0  0.09648  0.15489  0  1.06158  0
H  H18  1  0.80302664  0.43135206  0.65934433  1  0  0.164364  0  0.958239  0  0  0.177928  0  1.021494  0  0  0.180826  0  1.019825  0  0  0.10294  0.175692  0  1.022827  0
H  H19  1  0.30302675  0.06866261  0.84065989  1  0  0.164451  0  0.958197  0  0  0.177948  0  1.021545  0  0  0.180849  0  1.019869  0  0  0.102961  0.175711  0  1.022874  0
H  H20  1  0.19698144  0.56866751  0.34065479  1  0  0.164413  0  0.958288  0  0  0.177949  0  1.021585  0  0  0.180847  0  1.019915  0  0  0.102971  0.17571  0  1.022922  0
H  H21  1  0.69695663  0.93135396  0.15934452  1  0  0.164255  0  0.958262  0  0  0.177831  0  1.021503  0  0  0.180729  0  1.019832  0  0  0.102908  0.175596  0  1.022835  0
H  H22  1  0.53644846  0.63582800  0.71508126  1  0  0.154765  0  0.950929  0  0  0.173122  0  1.007869  0  0  0.175476  0  1.006918  0  0  0.106107  0.171352  0  1.008688  0
H  H23  1  0.03650775  0.86416139  0.78492280  1  0  0.154661  0  0.951288  0  0  0.173046  0  1.008174  0  0  0.1754  0  1.007224  0  0  0.106121  0.171273  0  1.008996  0
H  H24  1  0.46349311  0.36416568  0.28492637  1  0  0.154682  0  0.951314  0  0  0.173055  0  1.008219  0  0  0.175407  0  1.00727  0  0  0.106119  0.17128  0  1.009044  0
H  H25  1  0.96349653  0.13585025  0.21506740  1  0  0.154577  0  0.951527  0  0  0.172983  0  1.008382  0  0  0.175336  0  1.007434  0  0  0.106105  0.171212  0  1.009198  0
H  H26  1  0.43360796  0.57930230  0.81110702  1  0  0.14948  0  0.944938  0  0  0.167031  0  1.004017  0  0  0.168662  0  1.004272  0  0  0.104275  0.165788  0  1.003922  0
H  H27  1  0.93364697  0.92067531  0.68888754  1  0  0.149391  0  0.94482  0  0  0.166873  0  1.00404  0  0  0.168504  0  1.004295  0  0  0.104205  0.16563  0  1.003946  0
H  H28  1  0.56636211  0.42067548  0.18889273  1  0  0.149354  0  0.944989  0  0  0.166855  0  1.004138  0  0  0.168485  0  1.004393  0  0  0.10421  0.165611  0  1.004044  0
H  H29  1  0.06636492  0.07933136  0.31110027  1  0  0.149479  0  0.944861  0  0  0.166973  0  1.004017  0  0  0.168605  0  1.004271  0  0  0.104235  0.165731  0  1.003921  0
H  H30  1  0.20271442  0.62905904  0.74045581  1  0  0.152915  0  0.92822  0  0  0.172357  0  0.982564  0  0  0.174982  0  0.980838  0  0  0.106761  0.17038  0  0.983992  0
H  H31  1  0.70277331  0.87091750  0.75953828  1  0  0.152752  0  0.928333  0  0  0.172274  0  0.982607  0  0  0.174902  0  0.980878  0  0  0.106699  0.170295  0  0.984035  0
H  H32  1  0.79723854  0.37091377  0.25954653  1  0  0.15279  0  0.928234  0  0  0.172286  0  0.982535  0  0  0.174914  0  0.980806  0  0  0.106717  0.170306  0  0.983966  0
H  H33  1  0.29723858  0.12908420  0.24044777  1  0  0.152801  0  0.928237  0  0  0.172306  0  0.982534  0  0  0.174934  0  0.980804  0  0  0.106735  0.170329  0  0.98396  0
H  H34  1  0.05866594  0.38271993  0.44650451  1  0  0.43188  0  0.855804  0  0  0.403255  0  0.921017  0  0  0.413326  0  0.906571  0  0  0.298441  0.39607  0  0.931309  0
H  H35  1  0.55864851  0.11728493  0.05348638  1  0  0.431689  0  0.855987  0  0  0.403078  0  0.921259  0  0  0.413147  0  0.906806  0  0  0.298317  0.395895  0  0.931551  0
H  H36  1  0.94135355  0.61727778  0.55348735  1  0  0.43176  0  0.855896  0  0  0.403142  0  0.921175  0  0  0.413213  0  0.90672  0  0  0.298331  0.395957  0  0.931474  0
H  H37  1  0.44132726  0.88271674  0.94651274  1  0  0.431839  0  0.85583  0  0  0.403238  0  0.92104  0  0  0.413307  0  0.906587  0  0  0.298432  0.396058  0  0.931325  0
H  H38  1  0.30812305  0.30362278  0.40962274  1  0  0.40796  0  0.909591  0  0  0.373194  0  0.980828  0  0  0.384552  0  0.964527  0  0  0.284878  0.36523  0  0.992182  0
H  H39  1  0.80811602  0.19638415  0.09037129  1  0  0.408035  0  0.90945  0  0  0.373275  0  0.980708  0  0  0.384636  0  0.964404  0  0  0.284915  0.365313  0  0.992059  0
H  H40  1  0.69188883  0.69637691  0.59037119  1  0  0.407981  0  0.909525  0  0  0.373232  0  0.980759  0  0  0.384589  0  0.96446  0  0  0.284904  0.365269  0  0.992112  0
H  H41  1  0.19187686  0.80362152  0.90962202  1  0  0.407992  0  0.909504  0  0  0.373238  0  0.980723  0  0  0.384593  0  0.964426  0  0  0.284896  0.365276  0  0.992074  0
C  C42  1  0.94732633  0.86731954  0.46676325  1  0  -0.166067  0  3.715178  0  0  -0.201239  0  3.980029  0  0  -0.202464  0  3.996107  0  0  -0.105506  -0.20002  0  3.969246  0
C  C43  1  0.44741969  0.63268310  0.03324202  1  0  -0.166341  0  3.716077  0  0  -0.201496  0  3.980807  0  0  -0.202723  0  3.996903  0  0  -0.105528  -0.20028  0  3.970034  0
C  C44  1  0.05257533  0.13268210  0.53324583  1  0  -0.166167  0  3.715506  0  0  -0.201373  0  3.980321  0  0  -0.202588  0  3.99642  0  0  -0.105476  -0.200157  0  3.969542  0
C  C45  1  0.55267581  0.36732156  0.96675244  1  0  -0.165936  0  3.715438  0  0  -0.201247  0  3.980215  0  0  -0.202473  0  3.99629  0  0  -0.105593  -0.200033  0  3.969432  0
C  C46  1  0.85226847  0.10258930  0.47605031  1  0  -0.184834  0  3.785908  0  0  -0.170623  0  4.035614  0  0  -0.178812  0  4.054923  0  0  -0.037431  -0.165184  0  4.022636  0
C  C47  1  0.35236010  0.39741063  0.02396311  1  0  -0.184727  0  3.78468  0  0  -0.170706  0  4.034667  0  0  -0.178836  0  4.053903  0  0  -0.037208  -0.165273  0  4.02168  0
C  C48  1  0.14767310  0.89741433  0.52396085  1  0  -0.184832  0  3.78491  0  0  -0.170775  0  4.034868  0  0  -0.178917  0  4.054119  0  0  -0.037334  -0.165343  0  4.021886  0
C  C49  1  0.64772590  0.60258106  0.97604618  1  0  -0.184553  0  3.786294  0  0  -0.170498  0  4.035957  0  0  -0.178669  0  4.055244  0  0  -0.037389  -0.165063  0  4.022984  0
C  C50  1  0.69308494  0.21158470  0.45265833  1  0  0.673144  0  3.848042  0  0  0.617192  0  4.141304  0  0  0.652947  0  4.131392  0  0  0.216931  0.59288  0  4.147378  0
C  C51  1  0.19306966  0.28839626  0.04735929  1  0  0.672919  0  3.847154  0  0  0.617063  0  4.14043  0  0  0.652805  0  4.130523  0  0  0.216825  0.59275  0  4.146497  0
C  C52  1  0.30694405  0.78839603  0.54736103  1  0  0.673262  0  3.847499  0  0  0.617299  0  4.140885  0  0  0.653046  0  4.130968  0  0  0.216919  0.592981  0  4.146963  0
C  C53  1  0.80691182  0.71156558  0.95265063  1  0  0.67288  0  3.848642  0  0  0.617036  0  4.141757  0  0  0.652781  0  4.131862  0  0  0.216882  0.592728  0  4.147829  0
C  C54  1  0.79819235  0.96769193  0.44269991  1  0  0.296639  0  3.814327  0  0  0.279782  0  4.084838  0  0  0.290226  0  4.101091  0  0  0.070723  0.27227  0  4.074024  0
C  C55  1  0.29824149  0.53233748  0.05732183  1  0  0.296527  0  3.814353  0  0  0.279728  0  4.084807  0  0  0.29016  0  4.101058  0  0  0.070661  0.27222  0  4.073996  0
C  C56  1  0.20177392  0.03232957  0.55732618  1  0  0.296439  0  3.814267  0  0  0.279633  0  4.084749  0  0  0.290064  0  4.101004  0  0  0.07059  0.272125  0  4.073929  0
C  C57  1  0.70180080  0.46769003  0.94268746  1  0  0.296281  0  3.814609  0  0  0.279685  0  4.084812  0  0  0.290124  0  4.10106  0  0  0.070686  0.272175  0  4.073997  0
C  C58  1  0.68946847  0.36622523  0.69279125  1  0  -0.46078  0  3.581372  0  0  -0.531454  0  3.831036  0  0  -0.536275  0  3.83544  0  0  -0.245716  -0.52778  0  3.82818  0
C  C59  1  0.18945564  0.13377649  0.80720740  1  0  -0.46062  0  3.581564  0  0  -0.531386  0  3.831322  0  0  -0.536213  0  3.835728  0  0  -0.245691  -0.527709  0  3.828459  0
C  C60  1  0.31056432  0.63377943  0.30720383  1  0  -0.460718  0  3.581763  0  0  -0.531527  0  3.831483  0  0  -0.536348  0  3.835882  0  0  -0.245773  -0.527851  0  3.828634  0
C  C61  1  0.81052203  0.86623710  0.19279670  1  0  -0.460725  0  3.581456  0  0  -0.531532  0  3.831307  0  0  -0.536361  0  3.835709  0  0  -0.245715  -0.527847  0  3.828441  0
C  C62  1  0.38943483  0.58298339  0.74473592  1  0  -0.425664  0  3.541128  0  0  -0.496516  0  3.784464  0  0  -0.499082  0  3.787482  0  0  -0.234243  -0.494624  0  3.782723  0
C  C63  1  0.88949142  0.91699819  0.75526136  1  0  -0.425254  0  3.541208  0  0  -0.49615  0  3.784552  0  0  -0.498722  0  3.787578  0  0  -0.234103  -0.494256  0  3.78281  0
C  C64  1  0.61051814  0.41699539  0.25526518  1  0  -0.425315  0  3.541238  0  0  -0.496188  0  3.784544  0  0  -0.498755  0  3.787566  0  0  -0.234168  -0.494299  0  3.782811  0
C  C65  1  0.11051096  0.08301147  0.24472676  1  0  -0.425368  0  3.541366  0  0  -0.496267  0  3.784696  0  0  -0.498839  0  3.787719  0  0  -0.234158  -0.494367  0  3.782941  0
S  S66  1  0.36354459  0.41499257  0.68950368  1  0  0.728534  0  3.548632  0  0  0.710488  0  3.977395  0  0  0.726161  0  3.975672  0  0  0.301096  0.699181  0  3.97863  0
S  S67  1  0.86355358  0.08499134  0.81048140  1  0  0.728419  0  3.54889  0  0  0.710351  0  3.977661  0  0  0.726021  0  3.975941  0  0  0.301076  0.699046  0  3.978892  0
S  S68  1  0.63646730  0.58499122  0.31048486  1  0  0.728555  0  3.548651  0  0  0.710542  0  3.977399  0  0  0.726222  0  3.97567  0  0  0.30118  0.699228  0  3.978633  0
S  S69  1  0.13643550  0.91501632  0.18950963  1  0  0.728491  0  3.548597  0  0  0.710473  0  3.977375  0  0  0.726148  0  3.975661  0  0  0.301114  0.699162  0  3.97861  0
O  O70  1  0.30251597  0.42539163  0.59783043  1  0  -0.666504  0  2.015918  0  0  -0.592779  0  2.293083  0  0  -0.617095  0  2.281945  0  0  -0.34937  -0.575414  0  2.300758  0
O  O71  1  0.80250928  0.07459524  0.90215533  1  0  -0.6665  0  2.016067  0  0  -0.59281  0  2.293385  0  0  -0.61712  0  2.282241  0  0  -0.349418  -0.575445  0  2.301065  0
O  O72  1  0.69749401  0.57460209  0.40216227  1  0  -0.666553  0  2.015975  0  0  -0.592909  0  2.293281  0  0  -0.617234  0  2.282151  0  0  -0.349408  -0.575499  0  2.300863  0
O  O73  1  0.19748360  0.92539850  0.09783425  1  0  -0.666487  0  2.015797  0  0  -0.592815  0  2.293026  0  0  -0.617145  0  2.281912  0  0  -0.349411  -0.575454  0  2.300714  0
O  O74  1  0.22350774  0.39372257  0.41850857  1  0  -0.832897  0  1.909233  0  0  -0.77182  0  2.118552  0  0  -0.794441  0  2.084712  0  0  -0.57478  -0.755713  0  2.141996  0
O  O75  1  0.72349517  0.10628335  0.08147753  1  0  -0.832673  0  1.909181  0  0  -0.771656  0  2.118502  0  0  -0.794253  0  2.084636  0  0  -0.574667  -0.755555  0  2.141937  0
O  O76  1  0.77650984  0.60627811  0.58148609  1  0  -0.832716  0  1.909214  0  0  -0.77172  0  2.118544  0  0  -0.794324  0  2.084706  0  0  -0.574675  -0.755623  0  2.141977  0
O  O77  1  0.27649771  0.89372331  0.91851402  1  0  -0.832888  0  1.909257  0  0  -0.771829  0  2.118546  0  0  -0.794444  0  2.084722  0  0  -0.574768  -0.75572  0  2.141978  0
O  O78  1  0.60176571  0.93383572  0.38817043  1  0  -0.529858  0  2.12092  0  0  -0.477867  0  2.339311  0  0  -0.498283  0  2.332651  0  0  -0.359187  -0.463176  0  2.343562  0
O  O79  1  0.10179000  0.56617275  0.11184580  1  0  -0.529996  0  2.120584  0  0  -0.478094  0  2.338984  0  0  -0.498518  0  2.332335  0  0  -0.359223  -0.463361  0  2.343131  0
O  O80  1  0.39820626  0.06617187  0.61185048  1  0  -0.530014  0  2.120791  0  0  -0.478069  0  2.33906  0  0  -0.498489  0  2.332412  0  0  -0.359153  -0.463358  0  2.343265  0
O  O81  1  0.89823328  0.43383587  0.88815965  1  0  -0.529734  0  2.120869  0  0  -0.477851  0  2.33929  0  0  -0.498265  0  2.33263  0  0  -0.359186  -0.46316  0  2.343536  0
O  O82  1  0.50199484  0.17861120  0.40369028  1  0  -0.632965  0  2.01883  0  0  -0.567736  0  2.235915  0  0  -0.594054  0  2.2272  0  0  -0.308923  -0.549463  0  2.241324  0
O  O83  1  0.00200393  0.32141747  0.09631717  1  0  -0.632778  0  2.019094  0  0  -0.567598  0  2.236145  0  0  -0.593913  0  2.227446  0  0  -0.308814  -0.54933  0  2.241546  0
O  O84  1  0.49800944  0.82140438  0.59631465  1  0  -0.632839  0  2.019254  0  0  -0.567632  0  2.236341  0  0  -0.593946  0  2.227639  0  0  -0.308846  -0.549361  0  2.241738  0
O  O85  1  0.99799275  0.67861801  0.90368672  1  0  -0.632913  0  2.019126  0  0  -0.567694  0  2.236153  0  0  -0.594009  0  2.227451  0  0  -0.308934  -0.549419  0  2.241553  0
O  O86  1  0.75079203  0.33217070  0.48180920  1  0  -0.652261  0  2.073527  0  0  -0.577952  0  2.322509  0  0  -0.605511  0  2.309958  0  0  -0.309421  -0.558472  0  2.330599  0
O  O87  1  0.25085046  0.16781037  0.01817131  1  0  -0.652231  0  2.073082  0  0  -0.57783  0  2.321831  0  0  -0.605433  0  2.309378  0  0  -0.309303  -0.558344  0  2.329924  0
O  O88  1  0.24917425  0.66781012  0.51817218  1  0  -0.652553  0  2.073385  0  0  -0.57814  0  2.322227  0  0  -0.605738  0  2.309751  0  0  -0.309402  -0.558645  0  2.33031  0
O  O89  1  0.74922224  0.83216349  0.98180624  1  0  -0.652188  0  2.073322  0  0  -0.577955  0  2.32231  0  0  -0.605496  0  2.309722  0  0  -0.30945  -0.558487  0  2.330424  0
