# generated using pymatgen
data_Zn3H32C52(NO2)6
_symmetry_space_group_name_H-M   'P 1'
_cell_length_a   13.60019338
_cell_length_b   13.89078615
_cell_length_c   19.52343220
_cell_angle_alpha   85.07649529
_cell_angle_beta   69.61322524
_cell_angle_gamma   60.69158187
_symmetry_Int_Tables_number   1
_chemical_formula_structural   Zn3H32C52(NO2)6
_chemical_formula_sum   'Zn6 H64 C104 N12 O24'
_cell_volume   2998.51734664
_cell_formula_units_Z   2
loop_
 _symmetry_equiv_pos_site_id
 _symmetry_equiv_pos_as_xyz
  1  'x, y, z'
loop_
 _atom_site_type_symbol
 _atom_site_label
 _atom_site_symmetry_multiplicity
 _atom_site_fract_x
 _atom_site_fract_y
 _atom_site_fract_z
 _atom_site_occupancy
 _atom_site_pbe_bader_charge
 _atom_site_pbe_bader_spin_density
 _atom_site_pbe_cm5_charge
 _atom_site_pbe_ddec_charge
 _atom_site_pbe_ddec_spin_density
 _atom_site_pbe_ddec_sum_bond_order
 _atom_site_pbe_magmom
Zn  Zn0  1  0.99999964  0.50000039  0.99999989  1  1.424618  0  0.695395  1.038221  0  2.22756  0
Zn  Zn1  1  0.49999921  0.00000082  0.50000045  1  1.422  0  0.694985  1.037655  0  2.227996  0
Zn  Zn2  1  0.13704434  0.49049425  0.81964397  1  1.292798  0  0.684367  0.830363  0  2.351921  0
Zn  Zn3  1  0.44714403  0.00938479  0.68036431  1  1.290987  0  0.684105  0.830428  0  2.351223  0
Zn  Zn4  1  0.86295616  0.50950572  0.18035568  1  1.292792  0  0.684353  0.830321  0  2.351948  0
Zn  Zn5  1  0.55285537  0.99061517  0.31963567  1  1.290925  0  0.6841  0.830415  0  2.351214  0
H  H6  1  0.33301393  0.29169596  0.02940573  1  0.104431  0  0.106805  0.110509  0  1.001004  0
H  H7  1  0.65407846  0.20823988  0.47068119  1  0.099021  0  0.106561  0.110301  0  1.001157  0
H  H8  1  0.66698613  0.70830483  0.97059398  1  0.104426  0  0.106795  0.110509  0  1.000986  0
H  H9  1  0.34592117  0.79176091  0.52931973  1  0.099042  0  0.106566  0.110283  0  1.001159  0
H  H10  1  0.53645217  0.19240819  0.04209580  1  0.074413  0  0.099839  0.107864  0  1.01965  0
H  H11  1  0.77094992  0.30748364  0.45794670  1  0.086027  0  0.099798  0.108168  0  1.019644  0
H  H12  1  0.46354746  0.80759261  0.95790512  1  0.074431  0  0.099826  0.107856  0  1.019703  0
H  H13  1  0.22905008  0.69251632  0.54205346  1  0.08603  0  0.099791  0.108132  0  1.019667  0
H  H14  1  0.68654796  0.28715741  0.83260208  1  0.06473  0  0.104779  0.114157  0  0.998776  0
H  H15  1  0.80630824  0.21280553  0.66743506  1  0.064636  0  0.105096  0.114353  0  0.997612  0
H  H16  1  0.31345168  0.71284338  0.16739884  1  0.064714  0  0.104787  0.114189  0  0.998752  0
H  H17  1  0.19369235  0.78719444  0.33256529  1  0.06459  0  0.105096  0.114352  0  0.997622  0
H  H18  1  0.48449546  0.38192192  0.81919168  1  0.098637  0  0.104024  0.109497  0  1.000097  0
H  H19  1  0.68557120  0.11803687  0.68089816  1  0.098704  0  0.104431  0.109982  0  1.000213  0
H  H20  1  0.51550555  0.61807805  0.18080746  1  0.098641  0  0.104012  0.10948  0  1.000065  0
H  H21  1  0.31442983  0.88196227  0.31910213  1  0.098708  0  0.104411  0.109949  0  1.000226  0
H  H22  1  0.85158303  0.83350729  0.83583906  1  0.076732  0  0.104176  0.108374  0  0.993292  0
H  H23  1  0.52097139  0.66650348  0.66408641  1  0.078699  0  0.104031  0.107677  0  0.99491  0
H  H24  1  0.14841806  0.16649350  0.16415962  1  0.076768  0  0.104189  0.108381  0  0.993288  0
H  H25  1  0.47902912  0.33349649  0.33591324  1  0.078692  0  0.104031  0.107675  0  0.994909  0
H  H26  1  0.73178064  0.04057833  0.85459477  1  0.079853  0  0.102464  0.111724  0  1.005752  0
H  H27  1  0.62691354  0.45942813  0.64538769  1  0.085001  0  0.102488  0.111771  0  1.003477  0
H  H28  1  0.26822002  0.95942247  0.14540512  1  0.079847  0  0.102478  0.111715  0  1.005775  0
H  H29  1  0.37308867  0.54057184  0.35461183  1  0.084598  0  0.102491  0.111767  0  1.003444  0
H  H30  1  0.87222050  0.04018001  0.02139013  1  0.085635  0  0.10534  0.116571  0  0.994963  0
H  H31  1  0.93393589  0.45966066  0.47865012  1  0.099816  0  0.105913  0.117506  0  0.995017  0
H  H32  1  0.12777942  0.95981913  0.97861049  1  0.085581  0  0.105336  0.116565  0  0.994912  0
H  H33  1  0.06606476  0.54034013  0.52134978  1  0.09983  0  0.105914  0.117503  0  0.995019  0
H  H34  1  0.98027371  0.83256879  0.00818206  1  0.093844  0  0.100997  0.104712  0  1.03366  0
H  H35  1  0.82118751  0.66728251  0.49176018  1  0.096432  0  0.101021  0.104644  0  1.034694  0
H  H36  1  0.01972628  0.16743118  0.99181810  1  0.093848  0  0.100983  0.104697  0  1.03362  0
H  H37  1  0.17881145  0.33271829  0.50823984  1  0.096514  0  0.10104  0.104666  0  1.034661  0
H  H38  1  0.08805266  0.18129865  0.80761835  1  0.128805  0  0.104887  0.11215  0  1.02255  0
H  H39  1  0.07686928  0.31874403  0.69240881  1  0.123752  0  0.105389  0.112817  0  1.022359  0
H  H40  1  0.91194725  0.81870132  0.19238111  1  0.128811  0  0.10488  0.112123  0  1.02253  0
H  H41  1  0.92313080  0.68125594  0.30759206  1  0.12378  0  0.105371  0.112796  0  1.022373  0
H  H42  1  0.96794424  0.08318345  0.84700846  1  0.088735  0  0.104402  0.116848  0  0.999764  0
H  H43  1  0.89808792  0.41681598  0.65298721  1  0.077003  0  0.104031  0.116236  0  1.000611  0
H  H44  1  0.03205574  0.91681734  0.15299055  1  0.088736  0  0.104384  0.11679  0  0.999783  0
H  H45  1  0.10191112  0.58318481  0.34701352  1  0.077017  0  0.104039  0.116233  0  1.000591  0
H  H46  1  0.67492111  0.37038014  0.99636661  1  0.072846  0  0.106638  0.118873  0  0.989355  0
H  H47  1  0.04170563  0.12958564  0.50364923  1  0.086343  0  0.106589  0.118812  0  0.989387  0
H  H48  1  0.32508000  0.62961900  0.00363439  1  0.072837  0  0.10663  0.118847  0  0.989379  0
H  H49  1  0.95829458  0.87041599  0.49635072  1  0.086315  0  0.106614  0.118859  0  0.989384  0
H  H50  1  0.79984675  0.46366440  0.96085762  1  0.092643  0  0.105686  0.112076  0  1.018773  0
H  H51  1  0.22440721  0.03638003  0.53914758  1  0.089207  0  0.105899  0.11213  0  1.01858  0
H  H52  1  0.20015435  0.53633557  0.03914222  1  0.0926  0  0.105666  0.112083  0  1.01876  0
H  H53  1  0.77559345  0.96362076  0.46085232  1  0.089188  0  0.10592  0.112177  0  1.018601  0
H  H54  1  0.22120423  0.63409441  0.73883623  1  0.127981  0  0.125607  0.102789  0  0.977071  0
H  H55  1  0.59414133  0.86581561  0.76117340  1  0.133778  0  0.125456  0.10233  0  0.97608  0
H  H56  1  0.77879576  0.36590555  0.26116394  1  0.128026  0  0.125623  0.102784  0  0.97708  0
H  H57  1  0.40585850  0.13418768  0.23882615  1  0.133758  0  0.125439  0.102284  0  0.976103  0
H  H58  1  0.37617073  0.62646039  0.61736894  1  0.118045  0  0.1184  0.126695  0  1.014587  0
H  H59  1  0.62001346  0.87348233  0.88263168  1  0.120983  0  0.118145  0.126449  0  1.014639  0
H  H60  1  0.62383022  0.37353875  0.38263065  1  0.118092  0  0.118392  0.126697  0  1.014581  0
H  H61  1  0.37998682  0.12652013  0.11736782  1  0.120848  0  0.118141  0.126454  0  1.014614  0
H  H62  1  0.40788138  0.32072287  0.55081295  1  0.157792  0  0.120211  0.142117  0  0.998872  0
H  H63  1  0.27950071  0.17920260  0.94919985  1  0.155148  0  0.120676  0.142701  0  0.997344  0
H  H64  1  0.59211802  0.67927709  0.44918702  1  0.157794  0  0.120219  0.142125  0  0.9989  0
H  H65  1  0.72049958  0.82079571  0.05080001  1  0.155145  0  0.120669  0.142692  0  0.997314  0
H  H66  1  0.25767413  0.33722068  0.67645953  1  0.164308  0  0.126298  0.110074  0  1.002184  0
H  H67  1  0.27140376  0.16274383  0.82355737  1  0.157869  0  0.125775  0.109237  0  1.002472  0
H  H68  1  0.74232542  0.66278011  0.32354069  1  0.164306  0  0.126293  0.110078  0  1.002163  0
H  H69  1  0.72859468  0.83725697  0.17644317  1  0.157874  0  0.125778  0.1092  0  1.002486  0
C  C70  1  0.27735503  0.39492059  0.91333212  1  1.555689  0  0.212931  0.587459  0  4.196584  0
C  C71  1  0.58554587  0.10502923  0.58671734  1  1.563497  0  0.213233  0.587424  0  4.197747  0
C  C72  1  0.72264490  0.60507854  0.08666850  1  1.555708  0  0.212887  0.587328  0  4.196722  0
C  C73  1  0.41445472  0.89497074  0.41328301  1  1.563425  0  0.213175  0.587232  0  4.197854  0
C  C74  1  0.39669436  0.34208903  0.92339914  1  -0.014581  0  -0.025781  -0.055975  0  3.978926  0
C  C75  1  0.66213549  0.15784063  0.57668956  1  0.005191  0  -0.026506  -0.055907  0  3.980829  0
C  C76  1  0.60330548  0.65791011  0.07660078  1  -0.014614  0  -0.025774  -0.055953  0  3.978875  0
C  C77  1  0.33786450  0.84215933  0.42331060  1  0.005188  0  -0.026503  -0.055889  0  3.980837  0
C  C78  1  0.41134334  0.28929206  0.98642294  1  -0.080102  0  -0.083258  -0.07917  0  3.996929  0
C  C79  1  0.68705133  0.21061082  0.51365625  1  -0.014072  0  -0.083206  -0.079959  0  3.995511  0
C  C80  1  0.58865725  0.71070791  0.01357742  1  -0.080115  0  -0.083265  -0.079169  0  3.996856  0
C  C81  1  0.31294977  0.78938914  0.48634359  1  -0.014132  0  -0.083187  -0.079925  0  3.995477  0
C  C82  1  0.52421135  0.23394461  0.99336697  1  0.020538  0  -0.096734  -0.174168  0  3.987935  0
C  C83  1  0.75155191  0.26593445  0.50667609  1  -0.036563  0  -0.096421  -0.173456  0  3.985088  0
C  C84  1  0.47578828  0.76605619  0.00663395  1  0.020527  0  -0.096724  -0.17419  0  3.988055  0
C  C85  1  0.24844868  0.73406552  0.49332427  1  -0.03655  0  -0.096383  -0.17336  0  3.985033  0
C  C86  1  0.62393280  0.23195221  0.93765092  1  0.283037  0  0.093848  0.189391  0  4.033543  0
C  C87  1  0.79352581  0.26796475  0.56239358  1  0.271253  0  0.09346  0.188808  0  4.032137  0
C  C88  1  0.37606719  0.76804776  0.06234924  1  0.283044  0  0.093847  0.189414  0  4.033507  0
C  C89  1  0.20647478  0.73203522  0.43760678  1  0.271265  0  0.09344  0.188768  0  4.03221  0
C  C90  1  0.60889333  0.28811061  0.87553765  1  -0.047228  0  -0.095965  -0.179703  0  3.99717  0
C  C91  1  0.77253269  0.21182571  0.62451496  1  -0.016826  0  -0.096214  -0.179881  0  3.993571  0
C  C92  1  0.39110726  0.71188936  0.12446270  1  -0.047364  0  -0.095965  -0.179733  0  3.997111  0
C  C93  1  0.22746781  0.78817425  0.37548469  1  -0.016773  0  -0.096218  -0.179897  0  3.993612  0
C  C94  1  0.49645454  0.34161938  0.86832291  1  0.001442  0  -0.083619  -0.072528  0  3.98489  0
C  C95  1  0.70635041  0.15833410  0.63176067  1  -0.076864  0  -0.08375  -0.072804  0  3.983101  0
C  C96  1  0.50354581  0.65837976  0.13167649  1  0.001625  0  -0.083602  -0.072502  0  3.984853  0
C  C97  1  0.29364914  0.84166669  0.36823955  1  -0.076872  0  -0.083749  -0.072778  0  3.983116  0
C  C98  1  0.99565221  0.69641357  0.90817802  1  1.5954  0  0.21703  0.606829  0  4.153431  0
C  C99  1  0.60037422  0.80350354  0.59171508  1  1.60443  0  0.216516  0.607586  0  4.1545  0
C  C100  1  0.00434675  0.30358723  0.09182201  1  1.595413  0  0.217027  0.606792  0  4.153471  0
C  C101  1  0.39962518  0.19649642  0.40828489  1  1.604428  0  0.216467  0.607561  0  4.154571  0
C  C102  1  0.92371768  0.82043956  0.92045976  1  -0.051662  0  -0.021764  -0.043191  0  3.974784  0
C  C103  1  0.66470211  0.67947410  0.57941288  1  -0.092593  0  -0.021677  -0.044715  0  3.97681  0
C  C104  1  0.07628245  0.17956207  0.07953949  1  -0.051686  0  -0.021775  -0.043189  0  3.974829  0
C  C105  1  0.33529780  0.32052586  0.42058658  1  -0.092588  0  -0.021654  -0.044664  0  3.976843  0
C  C106  1  0.85285470  0.87940831  0.87781813  1  0.037644  0  -0.086006  -0.086914  0  4.004323  0
C  C107  1  0.61009840  0.62057729  0.62209379  1  -0.10691  0  -0.085775  -0.085545  0  4.007646  0
C  C108  1  0.14714491  0.12059332  0.12218163  1  0.037595  0  -0.085987  -0.086884  0  4.00426  0
C  C109  1  0.38990166  0.37942350  0.37790592  1  -0.106994  0  -0.085796  -0.085616  0  4.007728  0
C  C110  1  0.78694740  0.99481375  0.88781505  1  -0.101419  0  -0.097818  -0.177855  0  4.000575  0
C  C111  1  0.66955697  0.50516599  0.61215464  1  0.049371  0  -0.097153  -0.176677  0  3.995767  0
C  C112  1  0.21305437  0.00518705  0.11218452  1  -0.101254  0  -0.097884  -0.177891  0  4.00057  0
C  C113  1  0.33044353  0.49483397  0.38784501  1  0.049829  0  -0.097154  -0.176622  0  3.995751  0
C  C114  1  0.79615397  0.05316697  0.93837202  1  0.312116  0  0.091978  0.184917  0  4.032172  0
C  C115  1  0.78772121  0.44676002  0.56164078  1  0.339847  0  0.090888  0.183976  0  4.035602  0
C  C116  1  0.20384662  0.94683299  0.06162833  1  0.311999  0  0.092024  0.184972  0  4.032138  0
C  C117  1  0.21227929  0.55323994  0.43835887  1  0.339814  0  0.090873  0.18394  0  4.035548  0
C  C118  1  0.86630072  0.99434650  0.98171154  1  0.058063  0  -0.096421  -0.178404  0  3.985842  0
C  C119  1  0.84246874  0.50551352  0.51828649  1  0.004211  0  -0.09679  -0.179085  0  3.98983  0
C  C120  1  0.13369832  0.00565429  0.01828919  1  0.058083  0  -0.096395  -0.178387  0  3.985745  0
C  C121  1  0.15753109  0.49448644  0.48171226  1  0.004241  0  -0.096794  -0.179094  0  3.989842  0
C  C122  1  0.92762214  0.87882394  0.97374253  1  -0.094586  0  -0.085534  -0.084517  0  3.98361  0
C  C123  1  0.78032824  0.62103435  0.52618302  1  -0.067659  0  -0.085316  -0.083939  0  3.983668  0
C  C124  1  0.07237785  0.12117602  0.02625763  1  -0.094591  0  -0.085548  -0.08453  0  3.983628  0
C  C125  1  0.21967174  0.37896645  0.47381599  1  -0.06772  0  -0.08531  -0.083949  0  3.983722  0
C  C126  1  0.02094837  0.38658157  0.86092186  1  1.494346  0  0.20697  0.576402  0  4.163421  0
C  C127  1  0.26846670  0.11342150  0.63905778  1  1.482769  0  0.207113  0.577373  0  4.1619  0
C  C128  1  0.97905258  0.61341756  0.13907773  1  1.494151  0  0.206994  0.576475  0  4.163334  0
C  C129  1  0.73153242  0.88657929  0.36094365  1  1.482795  0  0.207109  0.577318  0  4.161895  0
C  C130  1  0.95121346  0.32787238  0.88262790  1  0.031335  0  -0.028092  -0.060383  0  4.012022  0
C  C131  1  0.16169388  0.17216846  0.61738514  1  0.04612  0  -0.027917  -0.058705  0  4.01059  0
C  C132  1  0.04878549  0.67212842  0.11737213  1  0.031334  0  -0.028111  -0.060358  0  4.012014  0
C  C133  1  0.83830671  0.82783151  0.38261522  1  0.046186  0  -0.027901  -0.058647  0  4.010546  0
C  C134  1  0.99881181  0.22057773  0.85038212  1  -0.071495  0  -0.080336  -0.074632  0  3.978344  0
C  C135  1  0.06970019  0.27943420  0.64964844  1  -0.12045  0  -0.081235  -0.077453  0  3.982443  0
C  C136  1  0.00118766  0.77942306  0.14961740  1  -0.071455  0  -0.080351  -0.074682  0  3.978429  0
C  C137  1  0.93030055  0.72056659  0.35035215  1  -0.12052  0  -0.081245  -0.077487  0  3.982473  0
C  C138  1  0.93142064  0.16649090  0.87187416  1  -0.085729  0  -0.100842  -0.189205  0  3.986906  0
C  C139  1  0.96972752  0.33350412  0.62814417  1  -0.001538  0  -0.100356  -0.187729  0  3.99008  0
C  C140  1  0.06857919  0.83350906  0.12812460  1  -0.085846  0  -0.100795  -0.18907  0  3.986897  0
C  C141  1  0.03027256  0.66649585  0.37185669  1  -0.001553  0  -0.100369  -0.187732  0  3.990103  0
C  C142  1  0.81364714  0.22087263  0.92397587  1  0.33366  0  0.098725  0.194484  0  4.038279  0
C  C143  1  0.95845480  0.27907475  0.57607356  1  0.312369  0  0.098158  0.193254  0  4.040471  0
C  C144  1  0.18635396  0.77912734  0.07602397  1  0.333726  0  0.098692  0.194398  0  4.03832  0
C  C145  1  0.04154534  0.72092604  0.42392685  1  0.312379  0  0.09817  0.193304  0  4.04043  0
C  C146  1  0.76581424  0.32887815  0.95568409  1  0.006413  0  -0.096741  -0.183567  0  3.988705  0
C  C147  1  0.05036712  0.17110413  0.54434670  1  -0.012005  0  -0.096637  -0.182541  0  3.987147  0
C  C148  1  0.23418575  0.67112182  0.04431607  1  0.00643  0  -0.096713  -0.183477  0  3.988669  0
C  C149  1  0.94963302  0.82889667  0.45565370  1  -0.012011  0  -0.096664  -0.182609  0  3.987164  0
C  C150  1  0.83471987  0.38102488  0.93575322  1  -0.029002  0  -0.078163  -0.054801  0  3.964658  0
C  C151  1  0.15150524  0.11901065  0.56425846  1  -0.032493  0  -0.078505  -0.055677  0  3.963049  0
C  C152  1  0.16527953  0.61897508  0.06424675  1  -0.028953  0  -0.078149  -0.054857  0  3.96461  0
C  C153  1  0.84849446  0.88099097  0.43574200  1  -0.032502  0  -0.078537  -0.055744  0  3.963037  0
C  C154  1  0.26597413  0.56645750  0.69535999  1  0.469032  0  0.052446  0.101358  0  3.938294  0
C  C155  1  0.52778534  0.93343807  0.80465248  1  0.457795  0  0.052749  0.102472  0  3.936237  0
C  C156  1  0.73402474  0.43354329  0.30463934  1  0.468975  0  0.052426  0.101429  0  3.938267  0
C  C157  1  0.47221494  0.06656438  0.19534702  1  0.45781  0  0.052756  0.102573  0  3.936279  0
C  C158  1  0.34981262  0.56272724  0.62888171  1  0.002087  0  -0.074076  -0.191446  0  3.944314  0
C  C159  1  0.54141320  0.93718978  0.87113279  1  -0.003172  0  -0.073303  -0.190541  0  3.941492  0
C  C160  1  0.65018788  0.43727272  0.37111794  1  0.00205  0  -0.07408  -0.191514  0  3.944349  0
C  C161  1  0.45858753  0.06281185  0.12886665  1  -0.00304  0  -0.073255  -0.190541  0  3.941537  0
C  C162  1  0.40159237  0.47348150  0.57551414  1  0.340645  0  0.109609  0.19704  0  4.021011  0
C  C163  1  0.45062025  0.02644819  0.92448532  1  0.33554  0  0.108944  0.196593  0  4.018462  0
C  C164  1  0.59840807  0.52651763  0.42448596  1  0.340634  0  0.109611  0.197055  0  4.02109  0
C  C165  1  0.54937930  0.97355261  0.07551490  1  0.335519  0  0.108975  0.19668  0  4.018405  0
C  C166  1  0.36834959  0.39106487  0.59122280  1  -0.060155  0  -0.059582  -0.160956  0  3.866829  0
C  C167  1  0.35067048  0.10885280  0.90878757  1  -0.02752  0  -0.060083  -0.162089  0  3.862042  0
C  C168  1  0.63165033  0.60893427  0.40877782  1  -0.060145  0  -0.059581  -0.16095  0  3.866875  0
C  C169  1  0.64932826  0.89114634  0.09121267  1  -0.027714  0  -0.060158  -0.162211  0  3.861943  0
C  C170  1  0.28473485  0.40032168  0.66019967  1  0.478638  0  0.063099  0.110449  0  3.8805  0
C  C171  1  0.34528711  0.09961037  0.83981642  1  0.463661  0  0.064134  0.113068  0  3.876288  0
C  C172  1  0.71526515  0.59967828  0.33980050  1  0.478648  0  0.063098  0.110443  0  3.880493  0
C  C173  1  0.65471184  0.90039043  0.16018361  1  0.46386  0  0.064167  0.113204  0  3.876232  0
N  N174  1  0.74021135  0.17092165  0.94344718  1  -1.258493  0  -0.264793  -0.186551  0  3.660476  0
N  N175  1  0.85456708  0.32900553  0.55658551  1  -1.228549  0  -0.264049  -0.186322  0  3.65795  0
N  N176  1  0.25978828  0.82907915  0.05655374  1  -1.258507  0  -0.264789  -0.186558  0  3.660539  0
N  N177  1  0.14543402  0.67099444  0.44341433  1  -1.228545  0  -0.26403  -0.186288  0  3.657931  0
N  N178  1  0.23423888  0.48665937  0.71082977  1  -1.243536  0  -0.320683  -0.218692  0  3.538186  0
N  N179  1  0.43172814  0.01325415  0.78918223  1  -1.238872  0  -0.321295  -0.221209  0  3.537829  0
N  N180  1  0.76576007  0.51334142  0.28917026  1  -1.24353  0  -0.320663  -0.218707  0  3.538212  0
N  N181  1  0.56827192  0.98674665  0.21081747  1  -1.238838  0  -0.321306  -0.221323  0  3.537862  0
N  N182  1  0.48734944  0.46111525  0.50519303  1  -0.460743  0  -0.126338  -0.10902  0  3.247667  0
N  N183  1  0.45367101  0.03888221  0.99479746  1  -0.425839  0  -0.125858  -0.108545  0  3.248268  0
N  N184  1  0.51265159  0.53888388  0.49480727  1  -0.431527  0  -0.126354  -0.109069  0  3.247694  0
N  N185  1  0.54632854  0.96111858  0.00520276  1  -0.465131  0  -0.125854  -0.108598  0  3.248341  0
O  O186  1  0.18993562  0.39124196  0.96316238  1  -1.184505  0  -0.312481  -0.567846  0  2.332808  0
O  O187  1  0.54421102  0.10882953  0.53689697  1  -1.181744  0  -0.311371  -0.567874  0  2.332875  0
O  O188  1  0.81006402  0.60875884  0.03683855  1  -1.184516  0  -0.312484  -0.567811  0  2.33284  0
O  O189  1  0.45578817  0.89117210  0.46310400  1  -1.181673  0  -0.311348  -0.567748  0  2.332798  0
O  O190  1  0.27454122  0.43814647  0.85281361  1  -1.174826  0  -0.329825  -0.556565  0  2.355563  0
O  O191  1  0.56548972  0.06170252  0.64719301  1  -1.178578  0  -0.330253  -0.555718  0  2.356054  0
O  O192  1  0.72545818  0.56185349  0.14718636  1  -1.174822  0  -0.329801  -0.556491  0  2.355612  0
O  O193  1  0.43451027  0.93829744  0.35280716  1  -1.178575  0  -0.33024  -0.555655  0  2.356087  0
O  O194  1  0.03605470  0.65487822  0.84136698  1  -1.169501  0  -0.330435  -0.561988  0  2.313029  0
O  O195  1  0.53242811  0.84500132  0.65853956  1  -1.173541  0  -0.330368  -0.562777  0  2.313664  0
O  O196  1  0.96394485  0.34512258  0.15863324  1  -1.169514  0  -0.330449  -0.561986  0  2.313027  0
O  O197  1  0.46757188  0.15499865  0.34146061  1  -1.173496  0  -0.330359  -0.562767  0  2.313702  0
O  O198  1  0.01301167  0.64260707  0.96241062  1  -1.18417  0  -0.312495  -0.563691  0  2.317625  0
O  O199  1  0.61811447  0.85735147  0.53750102  1  -1.183521  0  -0.312242  -0.563508  0  2.317831  0
O  O200  1  0.98698729  0.35739373  0.03758941  1  -1.18419  0  -0.312467  -0.563651  0  2.317627  0
O  O201  1  0.38188449  0.14264933  0.46249901  1  -1.183485  0  -0.312197  -0.563454  0  2.317796  0
O  O202  1  0.11451636  0.35341298  0.80290678  1  -1.172355  0  -0.307414  -0.530447  0  2.237168  0
O  O203  1  0.27086576  0.14653599  0.69708132  1  -1.159778  0  -0.307133  -0.530472  0  2.23537  0
O  O204  1  0.88548482  0.64658699  0.19709376  1  -1.172147  0  -0.307407  -0.530454  0  2.23712  0
O  O205  1  0.72913233  0.85346564  0.30291998  1  -1.159706  0  -0.307143  -0.53045  0  2.235297  0
O  O206  1  0.98488751  0.47628293  0.89978935  1  -1.18514  0  -0.324233  -0.580866  0  2.413141  0
O  O207  1  0.36094903  0.02372415  0.60017500  1  -1.191736  0  -0.324496  -0.581532  0  2.414461  0
O  O208  1  0.01511299  0.52371704  0.10021030  1  -1.185153  0  -0.324229  -0.580891  0  2.413138  0
O  O209  1  0.63905128  0.97627665  0.39982682  1  -1.191777  0  -0.324499  -0.581516  0  2.414468  0
