# generated using pymatgen
data_Li2B2H6C8N18OF2
_symmetry_space_group_name_H-M   'P 1'
_cell_length_a   9.64211971
_cell_length_b   15.89730751
_cell_length_c   18.01903204
_cell_angle_alpha   89.99999734
_cell_angle_beta   89.99998535
_cell_angle_gamma   102.42132407
_symmetry_Int_Tables_number   1
_chemical_formula_structural   Li2B2H6C8N18OF2
_chemical_formula_sum   'Li8 B8 H24 C32 N72 O4 F8'
_cell_volume   2697.37199185
_cell_formula_units_Z   4
loop_
 _symmetry_equiv_pos_site_id
 _symmetry_equiv_pos_as_xyz
  1  'x, y, z'
loop_
 _atom_site_type_symbol
 _atom_site_label
 _atom_site_symmetry_multiplicity
 _atom_site_fract_x
 _atom_site_fract_y
 _atom_site_fract_z
 _atom_site_occupancy
 _atom_site_pbe_bader_charge
 _atom_site_pbe_bader_spin_density
 _atom_site_pbe_cm5_charge
 _atom_site_pbe_ddec_charge
 _atom_site_pbe_ddec_spin_density
 _atom_site_pbe_ddec_sum_bond_order
 _atom_site_pbe_magmom
Li  Li0  1  0.78857684  0.83890687  0.71911625  1  0.871183  0  0.553582  0.675642  0  0.706131  0
Li  Li1  1  0.71142380  0.66109338  0.21911659  1  0.871163  0  0.55358  0.675637  0  0.706129  0
Li  Li2  1  0.21142418  0.16109328  0.28088355  1  0.871164  0  0.553569  0.675616  0  0.706164  0
Li  Li3  1  0.28857618  0.33890676  0.78088376  1  0.871182  0  0.553579  0.675598  0  0.706198  0
Li  Li4  1  0.58324235  0.56851335  0.72761395  1  0.868946  0  0.56242  0.673102  0  0.715056  0
Li  Li5  1  0.91675806  0.93148625  0.22761314  1  0.868946  0  0.562431  0.673113  0  0.715042  0
Li  Li6  1  0.41675741  0.43148614  0.27238640  1  0.868947  0  0.562429  0.673121  0  0.715024  0
Li  Li7  1  0.08324192  0.06851389  0.77238665  1  0.868947  0  0.562429  0.673106  0  0.715047  0
B  B8  1  0.26967006  0.78479203  0.88088136  1  2.312102  0  0.094101  0.780751  0  3.383995  0
B  B9  1  0.23033000  0.71520742  0.38088114  1  2.312101  0  0.094088  0.780759  0  3.38398  0
B  B10  1  0.73032993  0.21520811  0.11911844  1  2.312076  0  0.09411  0.780768  0  3.383942  0
B  B11  1  0.76966976  0.28479208  0.61911866  1  2.312103  0  0.094063  0.780719  0  3.38395  0
B  B12  1  0.10436055  0.62820237  0.88608365  1  2.316584  0  0.097342  0.782492  0  3.392369  0
B  B13  1  0.39563973  0.87179773  0.38608340  1  2.316582  0  0.097334  0.782301  0  3.39278  0
B  B14  1  0.89563966  0.37179842  0.11391615  1  2.316494  0  0.097329  0.78242  0  3.392488  0
B  B15  1  0.60436003  0.12820177  0.61391584  1  2.316578  0  0.09732  0.782363  0  3.392591  0
H  H16  1  0.86846106  0.65712900  0.50215676  1  0.114713  0  0.127413  0.178925  0  0.946999  0
H  H17  1  0.63153947  0.84287064  0.00215655  1  0.114722  0  0.127415  0.178918  0  0.947003  0
H  H18  1  0.13153974  0.34287051  0.49784304  1  0.114715  0  0.1274  0.17891  0  0.947025  0
H  H19  1  0.36846051  0.15712951  0.99784325  1  0.114725  0  0.127408  0.178916  0  0.947045  0
H  H20  1  0.02555513  0.73892866  0.49826149  1  0.177185  0  0.126987  0.19094  0  0.962356  0
H  H21  1  0.47444509  0.76107143  0.99826168  1  0.17719  0  0.126992  0.19094  0  0.962343  0
H  H22  1  0.97444590  0.26107149  0.50173887  1  0.177199  0  0.126977  0.190929  0  0.962379  0
H  H23  1  0.52555489  0.23892872  0.00173868  1  0.17719  0  0.126992  0.190946  0  0.962349  0
H  H24  1  0.87230726  0.75135231  0.44710996  1  0.098733  0  0.121718  0.171259  0  0.959169  0
H  H25  1  0.62769223  0.74864791  0.94711020  1  0.098738  0  0.121705  0.171249  0  0.959181  0
H  H26  1  0.12769273  0.24864783  0.55288984  1  0.098727  0  0.121719  0.171268  0  0.959159  0
H  H27  1  0.37230672  0.25135223  0.05289016  1  0.098728  0  0.121716  0.171263  0  0.959162  0
H  H28  1  0.56535746  0.61665027  0.44278400  1  0.080904  0  0.121878  0.168219  0  0.966074  0
H  H29  1  0.93464203  0.88334995  0.94278364  1  0.080881  0  0.121865  0.16819  0  0.966098  0
H  H30  1  0.43464275  0.38335052  0.55721635  1  0.080891  0  0.121852  0.168126  0  0.966123  0
H  H31  1  0.06535795  0.11665019  0.05721616  1  0.080889  0  0.121873  0.168182  0  0.966099  0
H  H32  1  0.50276573  0.70620360  0.48128163  1  0.112694  0  0.130111  0.191227  0  0.94398  0
H  H33  1  0.99723248  0.79379597  0.98128071  1  0.112692  0  0.130106  0.191221  0  0.944016  0
H  H34  1  0.49723426  0.29379655  0.51871872  1  0.112706  0  0.130103  0.191181  0  0.94403  0
H  H35  1  0.00276647  0.20620417  0.01871909  1  0.112679  0  0.130099  0.191185  0  0.944004  0
H  H36  1  0.38404178  0.60467754  0.47047251  1  0.156587  0  0.125553  0.184007  0  0.972121  0
H  H37  1  0.11595742  0.89532254  0.97047219  1  0.156595  0  0.125561  0.184014  0  0.972118  0
H  H38  1  0.61595947  0.39532325  0.52952784  1  0.156572  0  0.125557  0.183972  0  0.97214  0
H  H39  1  0.88404257  0.10467760  0.02952761  1  0.1566  0  0.125567  0.183998  0  0.972134  0
C  C40  1  0.04613674  0.80377588  0.80156856  1  0.9741  0  0.257705  0.218397  0  4.048785  0
C  C41  1  0.45386336  0.69622359  0.30156887  1  0.974114  0  0.257687  0.218345  0  4.048784  0
C  C42  1  0.95386302  0.19622362  0.19843123  1  0.974105  0  0.257706  0.21841  0  4.048823  0
C  C43  1  0.54613662  0.30377656  0.69843148  1  0.974109  0  0.257686  0.218371  0  4.048879  0
C  C44  1  0.96228123  0.71699503  0.79842960  1  1.020529  0  0.250588  0.199719  0  4.051967  0
C  C45  1  0.53772019  0.78300457  0.29842996  1  1.020518  0  0.250602  0.199764  0  4.052023  0
C  C46  1  0.03771957  0.28300447  0.20157020  1  1.02052  0  0.250592  0.199747  0  4.052071  0
C  C47  1  0.46228084  0.21699558  0.70157039  1  1.020524  0  0.250554  0.199663  0  4.052117  0
C  C48  1  0.41340484  0.69031886  0.80187821  1  0.986596  0  0.256486  0.209758  0  4.041219  0
C  C49  1  0.08659526  0.80968060  0.30187857  1  0.986608  0  0.256485  0.20974  0  4.041286  0
C  C50  1  0.58659493  0.30968064  0.19812103  1  0.986617  0  0.25646  0.209683  0  4.041281  0
C  C51  1  0.91340450  0.19031890  0.69812123  1  0.986592  0  0.2565  0.209798  0  4.041279  0
C  C52  1  0.32867252  0.60398039  0.80905785  1  1.012673  0  0.257184  0.21513  0  4.035745  0
C  C53  1  0.17132779  0.89601972  0.30905764  1  1.012683  0  0.257157  0.215042  0  4.035777  0
C  C54  1  0.67132746  0.39601976  0.19094195  1  1.012681  0  0.257183  0.215141  0  4.035739  0
C  C55  1  0.82867219  0.10398042  0.69094216  1  1.012678  0  0.257153  0.21504  0  4.035801  0
C  C56  1  0.90909614  0.72708636  0.49894182  1  0.001709  0  -0.191794  -0.42897  0  3.952378  0
C  C57  1  0.59090413  0.77291322  0.99894206  1  0.001885  0  -0.191785  -0.428949  0  3.95244  0
C  C58  1  0.09090488  0.27291379  0.50105853  1  0.00189  0  -0.191779  -0.428967  0  3.95237  0
C  C59  1  0.40909585  0.22708693  0.00105829  1  0.001892  0  -0.191795  -0.428982  0  3.952462  0
C  C60  1  0.86084399  0.76890544  0.56223989  1  0.873801  0  0.223145  0.413036  0  3.962438  0
C  C61  1  0.63915547  0.73109418  0.06223913  1  0.873613  0  0.223123  0.413  0  3.962447  0
C  C62  1  0.13915681  0.23109406  0.43776046  1  0.873665  0  0.223166  0.413058  0  3.962327  0
C  C63  1  0.36084348  0.26890596  0.93776066  1  0.873611  0  0.223142  0.413028  0  3.962416  0
C  C64  1  0.49412063  0.63617361  0.48385114  1  0.013881  0  -0.195219  -0.437865  0  3.947105  0
C  C65  1  0.00587857  0.86382647  0.98385028  1  0.013875  0  -0.195177  -0.437771  0  3.947215  0
C  C66  1  0.50587958  0.36382717  0.51614922  1  0.01389  0  -0.195105  -0.437564  0  3.947251  0
C  C67  1  0.99412164  0.13617432  0.01614952  1  0.013908  0  -0.195144  -0.437654  0  3.947218  0
C  C68  1  0.52903553  0.61163865  0.55763257  1  0.894734  0  0.221243  0.411921  0  3.961797  0
C  C69  1  0.97096312  0.88836161  0.05763176  1  0.895042  0  0.22125  0.411868  0  3.96176  0
C  C70  1  0.47096445  0.38836149  0.44236778  1  0.894714  0  0.221227  0.411868  0  3.961876  0
C  C71  1  0.02903687  0.11163853  0.94236804  1  0.895059  0  0.221235  0.41184  0  3.961872  0
N  N72  1  0.17539577  0.83425601  0.83142588  1  -0.93286  0  -0.096664  -0.183139  0  3.618949  0
N  N73  1  0.32460431  0.66574345  0.33142620  1  -0.932864  0  -0.096667  -0.183163  0  3.618969  0
N  N74  1  0.82460525  0.16574414  0.16857392  1  -0.932864  0  -0.096668  -0.183158  0  3.61893  0
N  N75  1  0.67539441  0.33425605  0.66857415  1  -0.932854  0  -0.096647  -0.183106  0  3.618915  0
N  N76  1  0.20734358  0.92030176  0.82028487  1  -0.061544  0  -0.047912  -0.035379  0  3.12775  0
N  N77  1  0.29265570  0.57969834  0.32028465  1  -0.061562  0  -0.047922  -0.035396  0  3.12773  0
N  N78  1  0.79265641  0.07969839  0.17971548  1  -0.061818  0  -0.047908  -0.035371  0  3.127766  0
N  N79  1  0.70734429  0.42030180  0.67971515  1  -0.061557  0  -0.047932  -0.035426  0  3.127746  0
N  N80  1  0.10016840  0.93989764  0.78515980  1  -0.116687  0  -0.122858  -0.101229  0  3.395895  0
N  N81  1  0.39983090  0.56010247  0.28515901  1  -0.11669  0  -0.122843  -0.101194  0  3.395836  0
N  N82  1  0.89983033  0.06010186  0.21484111  1  -0.116436  0  -0.122875  -0.101238  0  3.395931  0
N  N83  1  0.60016909  0.43989768  0.71484079  1  -0.116687  0  -0.122842  -0.101189  0  3.395856  0
N  N84  1  0.99724130  0.86922747  0.77245595  1  -0.714475  0  -0.238578  -0.295496  0  3.277987  0
N  N85  1  0.50275806  0.63077212  0.27245576  1  -0.71445  0  -0.238592  -0.295493  0  3.277965  0
N  N86  1  0.00275743  0.13077202  0.22754441  1  -0.714437  0  -0.238562  -0.295502  0  3.277984  0
N  N87  1  0.49724089  0.36922802  0.72754459  1  -0.714488  0  -0.238566  -0.295466  0  3.277979  0
N  N88  1  0.98331799  0.64327569  0.82953782  1  -0.927698  0  -0.092019  -0.175556  0  3.601473  0
N  N89  1  0.51668364  0.85672455  0.32953707  1  -0.927664  0  -0.092022  -0.175595  0  3.601565  0
N  N90  1  0.01668304  0.35672445  0.17046253  1  -0.927667  0  -0.092036  -0.175632  0  3.60152  0
N  N91  1  0.48331739  0.14327560  0.67046273  1  -0.927661  0  -0.092021  -0.175605  0  3.601516  0
N  N92  1  0.87123451  0.58046053  0.81080375  1  -0.033567  0  -0.045044  -0.019352  0  3.108783  0
N  N93  1  0.62876482  0.91953906  0.31080354  1  -0.03356  0  -0.045018  -0.019288  0  3.108798  0
N  N94  1  0.12876421  0.41953897  0.18919661  1  -0.0335  0  -0.045051  -0.019326  0  3.108896  0
N  N95  1  0.37123494  0.08046044  0.68919626  1  -0.033569  0  -0.045044  -0.01929  0  3.108722  0
N  N96  1  0.78669456  0.61610934  0.77029603  1  -0.173731  0  -0.132695  -0.126764  0  3.39311  0
N  N97  1  0.71330584  0.88389026  0.27029581  1  -0.173777  0  -0.13273  -0.126816  0  3.393255  0
N  N98  1  0.21330521  0.38389016  0.22970433  1  -0.173822  0  -0.13269  -0.126771  0  3.393382  0
N  N99  1  0.28669392  0.11610924  0.72970399  1  -0.173739  0  -0.132699  -0.126785  0  3.393063  0
N  N100  1  0.83982790  0.70098519  0.76128333  1  -0.638838  0  -0.203446  -0.261829  0  3.288369  0
N  N101  1  0.66017272  0.79901505  0.26128423  1  -0.63882  0  -0.203393  -0.26176  0  3.288633  0
N  N102  1  0.16017312  0.29901495  0.23871591  1  -0.638818  0  -0.203392  -0.261768  0  3.288658  0
N  N103  1  0.33982727  0.20098509  0.73871668  1  -0.63886  0  -0.203384  -0.261748  0  3.288448  0
N  N104  1  0.53524243  0.70384258  0.76415587  1  -0.640332  0  -0.207476  -0.264728  0  3.281651  0
N  N105  1  0.96475715  0.79615766  0.26415562  1  -0.640328  0  -0.207526  -0.264703  0  3.281648  0
N  N106  1  0.46475733  0.29615692  0.23584393  1  -0.640306  0  -0.207462  -0.26466  0  3.281614  0
N  N107  1  0.03524180  0.20384248  0.73584418  1  -0.640316  0  -0.207535  -0.264757  0  3.281655  0
N  N108  1  0.58948215  0.78915168  0.76933539  1  -0.166275  0  -0.124163  -0.119376  0  3.392453  0
N  N109  1  0.91051825  0.71084792  0.26933515  1  -0.166263  0  -0.124156  -0.11941  0  3.392444  0
N  N110  1  0.41051762  0.21084782  0.23066497  1  -0.166279  0  -0.124175  -0.119428  0  3.392471  0
N  N111  1  0.08948152  0.28915158  0.73066465  1  -0.166251  0  -0.124147  -0.119354  0  3.392415  0
N  N112  1  0.50610721  0.82753089  0.80798342  1  -0.052777  0  -0.051787  -0.038586  0  3.127549  0
N  N113  1  0.99389235  0.67246935  0.30798372  1  -0.052779  0  -0.051778  -0.038577  0  3.127545  0
N  N114  1  0.49389278  0.17246925  0.19201638  1  -0.052773  0  -0.051789  -0.038588  0  3.127522  0
N  N115  1  0.00610764  0.32753080  0.69201608  1  -0.052784  0  -0.051786  -0.038565  0  3.127574  0
N  N116  1  0.39367142  0.76605742  0.82935194  1  -0.937375  0  -0.09565  -0.181774  0  3.619731  0
N  N117  1  0.10632785  0.73394268  0.32935285  1  -0.937392  0  -0.095643  -0.181765  0  3.619763  0
N  N118  1  0.60632856  0.23394272  0.17064730  1  -0.93741  0  -0.095634  -0.181698  0  3.6197  0
N  N119  1  0.89367214  0.26605747  0.67064750  1  -0.937381  0  -0.095616  -0.181826  0  3.619858  0
N  N120  1  0.20095939  0.57530662  0.84125382  1  -0.920425  0  -0.086974  -0.163765  0  3.587662  0
N  N121  1  0.29904091  0.92469348  0.34125359  1  -0.920411  0  -0.086928  -0.16355  0  3.587597  0
N  N122  1  0.79904059  0.42469352  0.15874653  1  -0.920424  0  -0.086993  -0.163807  0  3.587753  0
N  N123  1  0.70095804  0.07530666  0.65874621  1  -0.920423  0  -0.086954  -0.163624  0  3.587611  0
N  N124  1  0.16737889  0.48907756  0.83237821  1  -0.017185  0  -0.036488  -0.013825  0  3.09424  0
N  N125  1  0.33262167  0.01092312  0.33237743  1  -0.017175  0  -0.036517  -0.013928  0  3.094293  0
N  N126  1  0.83262213  0.51092259  0.16762270  1  -0.017187  0  -0.036506  -0.01383  0  3.094329  0
N  N127  1  0.66737831  0.98907702  0.66762237  1  -0.01719  0  -0.036538  -0.013902  0  3.094287  0
N  N128  1  0.27225997  0.46748252  0.79646562  1  -0.158264  0  -0.123605  -0.109267  0  3.381538  0
N  N129  1  0.22773935  0.03251751  0.29646485  1  -0.15827  0  -0.123578  -0.109188  0  3.381541  0
N  N130  1  0.72774002  0.53251762  0.20353473  1  -0.158273  0  -0.123554  -0.109205  0  3.381512  0
N  N131  1  0.77225960  0.96748263  0.70353494  1  -0.15827  0  -0.123571  -0.109257  0  3.3816  0
N  N132  1  0.37512614  0.53726988  0.78085378  1  -0.713343  0  -0.238506  -0.290661  0  3.275497  0
N  N133  1  0.12487294  0.96272959  0.28085357  1  -0.713364  0  -0.238522  -0.29069  0  3.275498  0
N  N134  1  0.62487385  0.46273027  0.21914601  1  -0.71334  0  -0.238512  -0.290676  0  3.275464  0
N  N135  1  0.87512579  0.03726991  0.71914623  1  -0.713335  0  -0.238491  -0.290622  0  3.275518  0
N  N136  1  0.82285445  0.80158216  0.61380371  1  -1.245076  0  -0.366647  -0.472584  0  2.924916  0
N  N137  1  0.67714603  0.69841746  0.11380405  1  -1.245095  0  -0.366623  -0.472551  0  2.924836  0
N  N138  1  0.17714636  0.19841734  0.38619664  1  -1.245145  0  -0.366654  -0.472589  0  2.924832  0
N  N139  1  0.32285418  0.30158333  0.88619630  1  -1.245083  0  -0.366641  -0.472554  0  2.924844  0
N  N140  1  0.55595505  0.59202336  0.61717850  1  -1.243694  0  -0.363219  -0.475827  0  2.932212  0
N  N141  1  0.94404439  0.90797626  0.11717769  1  -1.243985  0  -0.363269  -0.475852  0  2.932118  0
N  N142  1  0.44404471  0.40797614  0.38282186  1  -1.24367  0  -0.363291  -0.475918  0  2.932173  0
N  N143  1  0.05595456  0.09202388  0.88282211  1  -1.244034  0  -0.363293  -0.475884  0  2.93218  0
O  O144  1  0.18692584  0.70834447  0.90865977  1  -1.561553  0  -0.205961  -0.735879  0  2.530602  0
O  O145  1  0.31307339  0.79165562  0.40865954  1  -1.561542  0  -0.205959  -0.73584  0  2.530582  0
O  O146  1  0.81307415  0.29165567  0.09134003  1  -1.56155  0  -0.205964  -0.735864  0  2.530631  0
O  O147  1  0.68692659  0.20834452  0.59134081  1  -1.561544  0  -0.205958  -0.735828  0  2.53064  0
F  F148  1  0.33174635  0.84222346  0.93650809  1  -0.821771  0  -0.133061  -0.378453  0  1.231145  0
F  F149  1  0.16825368  0.65777598  0.43650788  1  -0.821776  0  -0.133049  -0.378449  0  1.231136  0
F  F150  1  0.66825445  0.15777604  0.06349171  1  -0.821747  0  -0.133047  -0.378449  0  1.231139  0
F  F151  1  0.83174609  0.34222352  0.56349191  1  -0.821772  0  -0.133048  -0.378437  0  1.231138  0
F  F152  1  0.03903159  0.57782735  0.94343024  1  -0.810158  0  -0.127681  -0.354206  0  1.233162  0
F  F153  1  0.46096948  0.92217210  0.44343054  1  -0.810162  0  -0.127696  -0.354178  0  1.233201  0
F  F154  1  0.96096966  0.42217344  0.05656956  1  -0.810128  0  -0.127718  -0.354207  0  1.233158  0
F  F155  1  0.53903029  0.07782740  0.55656926  1  -0.810218  0  -0.127671  -0.354167  0  1.233215  0
