# generated using pymatgen
data_CuH6C2N(OF)2
_symmetry_space_group_name_H-M   'P 1'
_cell_length_a   6.70820651
_cell_length_b   7.57685521
_cell_length_c   11.19265194
_cell_angle_alpha   109.75733117
_cell_angle_beta   97.24846666
_cell_angle_gamma   90.01246491
_symmetry_Int_Tables_number   1
_chemical_formula_structural   CuH6C2N(OF)2
_chemical_formula_sum   'Cu4 H24 C8 N4 O8 F8'
_cell_volume   530.56221390
_cell_formula_units_Z   4
loop_
 _symmetry_equiv_pos_site_id
 _symmetry_equiv_pos_as_xyz
  1  'x, y, z'
loop_
 _atom_site_type_symbol
 _atom_site_label
 _atom_site_symmetry_multiplicity
 _atom_site_fract_x
 _atom_site_fract_y
 _atom_site_fract_z
 _atom_site_occupancy
 _atom_site_hle17_ddec_charge
 _atom_site_hle17_ddec_spin_density
 _atom_site_hle17_ddec_sum_bond_order
 _atom_site_hle17_magmom
 _atom_site_hse06_10hf_ddec_charge
 _atom_site_hse06_10hf_ddec_spin_density
 _atom_site_hse06_10hf_ddec_sum_bond_order
 _atom_site_hse06_10hf_magmom
 _atom_site_hse06_ddec_charge
 _atom_site_hse06_ddec_spin_density
 _atom_site_hse06_ddec_sum_bond_order
 _atom_site_hse06_magmom
 _atom_site_pbe_cm5_charge
 _atom_site_pbe_ddec_charge
 _atom_site_pbe_ddec_spin_density
 _atom_site_pbe_ddec_sum_bond_order
 _atom_site_pbe_magmom
Cu  Cu0  1  0.78305783  0.16915750  0.83936180  1  1.089984  0.784015  1.65697  0.617  1.073095  0.860213  2.049116  0.732  1.147294  0.90882  1.992051  0.801  0.688045  1.019359  0.818484  2.091598  0.68
Cu  Cu1  1  0.71777439  0.32968289  0.16035040  1  1.090132  0.779111  1.661628  0.612  1.072927  0.858427  2.054162  0.73  1.146951  0.909004  1.997254  0.8  0.688415  1.020176  0.810894  2.096252  0.673
Cu  Cu2  1  0.21792269  0.83072545  0.16031396  1  1.09048  -0.830146  1.660235  -0.609  1.072863  -0.898193  2.053619  -0.729  1.14703  -0.9603  1.996566  -0.8  0.687588  1.019357  -0.834144  2.096117  -0.667
Cu  Cu3  1  0.28304373  0.67030095  0.83948305  1  1.090973  0.781764  1.654366  0.615  1.07413  0.859873  2.04672  0.732  1.148253  0.908693  1.989542  0.801  0.687785  1.020166  0.816379  2.089291  0.678
H  H4  1  0.45417716  0.09165211  0.90006095  1  0.446181  -9.6e-05  0.849534  -0.002  0.417619  0.000601  0.910263  0.0  0.431395  0.000358  0.890244  0.0  0.273828  0.407644  0.00078  0.924749  0.0
H  H5  1  0.04773037  0.19273986  0.10199902  1  0.445529  -0.000424  0.851155  -0.001  0.41734  -7e-05  0.911243  0.0  0.431107  -8.9e-05  0.891241  0.0  0.273633  0.407386  -5.3e-05  0.925677  0.0
H  H6  1  0.54786317  0.90951343  0.10233164  1  0.445547  0.000356  0.85143  0.001  0.417604  4e-05  0.911082  0.0  0.431269  7.4e-05  0.891213  0.0  0.27375  0.407651  1e-05  0.925541  0.0
H  H7  1  0.95363166  0.80792513  0.89909547  1  0.445592  -0.00011  0.850578  -0.002  0.417048  0.000594  0.910987  0.0  0.43078  0.000342  0.89105  0.0  0.273804  0.40709  0.000788  0.925453  0.0
H  H8  1  0.45650904  0.30641366  0.90676817  1  0.444605  -1.8e-05  0.850624  -0.002  0.416614  0.000663  0.910389  0.0  0.430087  0.000405  0.890808  0.0  0.276113  0.40681  0.000858  0.924633  0.0
H  H9  1  0.04528632  0.40053868  0.09493116  1  0.443707  -0.000442  0.852848  -0.001  0.415231  -7.3e-05  0.913198  0.0  0.42878  -8.9e-05  0.893517  0.0  0.275238  0.405435  -6.4e-05  0.927413  0.0
H  H10  1  0.54545689  0.69460184  0.09523416  1  0.445033  0.000364  0.850988  0.001  0.416832  3.3e-05  0.910836  0.0  0.430318  6.5e-05  0.89124  0.0  0.275944  0.407016  1.5e-05  0.925091  0.0
H  H11  1  0.95593099  0.59990939  0.90583913  1  0.444635  -3e-05  0.850654  -0.001  0.416135  0.000663  0.911161  0.0  0.429661  0.000395  0.891499  0.0  0.275733  0.406318  0.00087  0.92544  0.0
H  H12  1  0.12193937  0.25445690  0.79901109  1  0.433432  -7.1e-05  0.869984  -0.001  0.403867  0.000652  0.933241  0.0  0.416684  0.000386  0.914716  0.0  0.270538  0.394508  0.000863  0.946787  0.0
H  H13  1  0.37839494  0.45480944  0.19926388  1  0.433517  -0.00037  0.870547  -0.001  0.403754  6.2e-05  0.934096  0.0  0.416671  1.4e-05  0.915437  0.0  0.269801  0.39434  8.8e-05  0.947701  0.0
H  H14  1  0.87854109  0.74454920  0.19907343  1  0.433716  0.000303  0.870154  0.001  0.403724  -4.7e-05  0.934033  0.0  0.416647  -6e-06  0.915392  0.0  0.269792  0.394331  -6.6e-05  0.947583  0.0
H  H15  1  0.62154285  0.54439390  0.79865163  1  0.433434  -0.000105  0.869814  -0.001  0.403586  0.000593  0.933595  0.0  0.416456  0.000343  0.915004  0.0  0.270595  0.39418  0.000796  0.947188  0.0
H  H16  1  0.12074486  0.04118448  0.79221755  1  0.438653  -2.3e-05  0.861473  -0.001  0.408275  0.000704  0.92524  0.0  0.42165  0.000429  0.905952  0.0  0.268992  0.398522  0.000918  0.939328  0.0
H  H17  1  0.37974199  0.24833497  0.20635281  1  0.438838  -0.000355  0.861934  -0.001  0.408761  6.1e-05  0.925477  0.0  0.422141  1.7e-05  0.906135  0.0  0.26876  0.399002  8.4e-05  0.939593  0.0
H  H18  1  0.87993023  0.95816181  0.20624069  1  0.439124  0.000277  0.861642  0.001  0.409332  -6.1e-05  0.924566  0.0  0.422676  -2.2e-05  0.905287  0.0  0.26898  0.399632  -7.8e-05  0.938576  0.0
H  H19  1  0.62024083  0.75101579  0.79192829  1  0.439087  -4.9e-05  0.860948  -0.001  0.408638  0.000652  0.924927  0.0  0.422015  0.00039  0.905626  0.0  0.26919  0.398904  0.00086  0.938998  0.0
H  H20  1  0.37429765  0.26864372  0.65885814  1  0.098922  -6.4e-05  0.966389  0.0  0.102476  -2e-05  1.032062  0.0  0.10653  -3.7e-05  1.029201  0.0  0.113463  0.099584  7e-06  1.034284  0.0
H  H21  1  0.12433757  0.60967341  0.34135616  1  0.098193  0.000201  0.966294  0.0  0.101226  0.000144  1.032899  0.0  0.105327  0.000111  1.029978  0.0  0.113193  0.098257  0.000186  1.035185  0.0
H  H22  1  0.62439032  0.73192940  0.34206985  1  0.098488  -0.000194  0.965415  0.0  0.101924  -0.000166  1.031541  0.0  0.105948  -0.000132  1.028752  0.0  0.113319  0.098933  -0.000186  1.0338  0.0
H  H23  1  0.87406503  0.38951477  0.65826212  1  0.098416  -3.9e-05  0.966919  0.0  0.101833  -1.5e-05  1.032898  0.0  0.105925  -4e-05  1.030002  0.0  0.113154  0.098961  2.9e-05  1.035058  0.0
H  H24  1  0.79648942  0.86045861  0.57200966  1  0.091213  -5.4e-05  0.938931  0.0  0.09682  -7.2e-05  1.003032  0.0  0.100057  -6.2e-05  1.001723  0.0  0.116464  0.094549  -6.5e-05  1.004032  0.0
H  H25  1  0.70139224  0.28896304  0.42837314  1  0.091135  -7.1e-05  0.9387  0.0  0.096957  -0.000108  1.002405  0.0  0.100214  -9.7e-05  1.001089  0.0  0.11655  0.09462  -9.1e-05  1.003455  0.0
H  H26  1  0.20183808  0.13972658  0.42892283  1  0.090899  7.9e-05  0.938474  0.0  0.09657  8e-05  1.002196  0.0  0.099772  6.9e-05  1.000938  0.0  0.116424  0.094257  9e-05  1.003226  0.0
H  H27  1  0.29628823  0.71113148  0.57138332  1  0.090862  -4.6e-05  0.938716  0.0  0.096133  -7.9e-05  1.003152  0.0  0.099358  -7.7e-05  1.001858  0.0  0.116443  0.093862  -5.7e-05  1.004167  0.0
C  C28  1  0.43032676  0.14860789  0.58765910  1  0.074531  -0.000445  3.674291  -0.001  0.057458  -9.1e-05  3.922399  0.0  0.059792  -0.000101  3.937947  0.0  0.050159  0.055778  -8.6e-05  3.912019  0.0
C  C29  1  0.06809269  0.56094931  0.41259385  1  0.075005  0.000481  3.675257  0.0  0.058231  0.000221  3.923954  0.0  0.060465  0.000139  3.939649  0.0  0.05075  0.056397  0.000334  3.913925  0.0
C  C30  1  0.56816174  0.85189071  0.41323228  1  0.074324  0.000586  3.6765  0.001  0.056963  0.000138  3.925662  0.0  0.059314  0.000103  3.941125  0.0  0.050048  0.055222  0.000232  3.91554  0.0
C  C31  1  0.93004137  0.43857630  0.58709600  1  0.075675  0.000343  3.673504  0.0  0.058783  0.000133  3.921881  0.0  0.060925  6.8e-05  3.937723  0.0  0.050763  0.057125  0.000251  3.911471  0.0
C  C32  1  0.66267011  0.92235803  0.53953285  1  0.077009  -0.000606  3.690488  -0.001  0.057897  -0.000299  3.940846  0.0  0.059466  -0.000248  3.957743  0.0  0.053114  0.056819  -0.000343  3.929446  0.0
C  C33  1  0.83540362  0.38309988  0.46081696  1  0.076457  0.000237  3.691141  0.0  0.057267  -4.4e-05  3.94155  0.0  0.058888  -5.6e-05  3.958351  0.0  0.052518  0.056142  -4e-06  3.930327  0.0
C  C34  1  0.33569966  0.07795604  0.46138451  1  0.076691  0.00072  3.688985  0.001  0.057949  0.000339  3.938688  0.0  0.059529  0.000258  3.955554  0.0  0.052934  0.056825  0.000466  3.927463  0.0
C  C35  1  0.16248205  0.61674194  0.53893340  1  0.077902  0.000146  3.689139  0.0  0.059188  -0.000101  3.939587  0.0  0.060815  -0.0001  3.956383  0.0  0.052886  0.058109  -4.4e-05  3.928213  0.0
N  N36  1  0.59402340  0.07042543  0.62680545  1  -0.297073  0.000321  3.195669  0.002  -0.264215  -0.000652  3.481028  0.0  -0.27459  -0.001  3.493653  0.0  -0.306696  -0.256582  0.000242  3.47257  0.001
N  N37  1  0.90425015  0.44380718  0.37349566  1  -0.29641  0.00032  3.19725  0.002  -0.263424  -0.0008  3.482453  0.0  -0.27375  -0.001127  3.495104  0.0  -0.306288  -0.256065  0.000268  3.474355  0.001
N  N38  1  0.40442053  0.92994851  0.37409018  1  -0.295082  0.000112  3.193264  -0.001  -0.262073  0.000522  3.478059  0.0  -0.272397  0.000852  3.490692  0.0  -0.305246  -0.254777  0.000187  3.470002  -0.001
N  N39  1  0.09378847  0.55587494  0.62623827  1  -0.298157  -0.000637  3.191567  0.001  -0.265324  -0.000901  3.476913  0.0  -0.275566  -0.001162  3.489437  0.0  -0.306692  -0.257788  -0.000514  3.468459  0.0
O  O40  1  0.54269773  0.21037408  0.92920562  1  -0.841208  0.072365  1.994617  0.102  -0.838082  0.042678  2.246295  0.064  -0.871245  0.031078  2.201941  0.049  -0.579624  -0.812713  0.052924  2.2772  0.076
O  O41  1  0.95938752  0.28187839  0.07229017  1  -0.841912  0.063883  1.993086  0.09  -0.838504  0.037155  2.245353  0.055  -0.871775  0.027834  2.201214  0.044  -0.581408  -0.813302  0.04434  2.276247  0.063
O  O42  1  0.45956580  0.79063084  0.07257338  1  -0.84432  -0.069904  1.992248  -0.089  -0.840677  -0.041172  2.244818  -0.056  -0.87369  -0.03205  2.200552  -0.045  -0.58278  -0.815857  -0.047078  2.276154  -0.062
O  O43  1  0.04202003  0.71836466  0.92828334  1  -0.842043  0.072859  1.995524  0.1  -0.83729  0.044485  2.247924  0.064  -0.870572  0.033229  2.203995  0.05  -0.580353  -0.81259  0.053399  2.278904  0.074
O  O44  1  0.03606552  0.13470015  0.76540733  1  -0.823025  0.077014  1.93919  0.107  -0.813347  0.045625  2.169671  0.067  -0.848874  0.033775  2.133444  0.052  -0.593388  -0.787943  0.054439  2.195423  0.077
O  O45  1  0.46425141  0.36882992  0.23317117  1  -0.82447  0.07014  1.939627  0.097  -0.815204  0.041157  2.169767  0.06  -0.850962  0.0312  2.133724  0.048  -0.593861  -0.789363  0.047716  2.195375  0.067
O  O46  1  0.96444296  0.86441130  0.23298341  1  -0.824567  -0.07442  1.939165  -0.096  -0.815732  -0.042573  2.170425  -0.06  -0.851442  -0.032782  2.133995  -0.047  -0.593962  -0.789601  -0.048623  2.195934  -0.066
O  O47  1  0.53561022  0.63066350  0.76517179  1  -0.823169  0.076694  1.938334  0.107  -0.813572  0.045429  2.168944  0.067  -0.849226  0.033701  2.132771  0.052  -0.593746  -0.788087  0.053954  2.194687  0.076
F  F48  1  0.78988826  0.91071029  0.83796500  1  -0.614997  0.051957  0.853222  0.079  -0.557867  0.037392  1.028157  0.06  -0.587848  0.028133  1.00414  0.047  -0.317402  -0.537027  0.04392  1.045552  0.068
F  F49  1  0.71080910  0.07262973  0.16220638  1  -0.613464  0.049069  0.857232  0.074  -0.556581  0.035721  1.031315  0.057  -0.58635  0.027333  1.007025  0.045  -0.315525  -0.535224  0.040964  1.048597  0.063
F  F50  1  0.21092154  0.08940991  0.16200152  1  -0.613709  -0.053182  0.856321  -0.075  -0.55688  -0.037679  1.031142  -0.057  -0.586974  -0.029223  1.007114  -0.045  -0.3159  -0.535364  -0.042727  1.048319  -0.063
F  F51  1  0.29058757  0.92754598  0.83833920  1  -0.61515  0.052167  0.851597  0.08  -0.558096  0.037517  1.026412  0.06  -0.58815  0.028244  1.002415  0.047  -0.317687  -0.536984  0.044122  1.043594  0.068
F  F52  1  0.79007817  0.43300342  0.85051119  1  -0.618214  0.049779  0.869966  0.076  -0.560177  0.036148  1.047145  0.057  -0.589989  0.027277  1.023594  0.045  -0.312738  -0.539315  0.042424  1.06413  0.065
F  F53  1  0.71059001  0.58218205  0.14856728  1  -0.616565  0.047325  0.872862  0.072  -0.558793  0.034738  1.0499  0.055  -0.58835  0.026664  1.02599  0.044  -0.311227  -0.537534  0.039761  1.066877  0.061
F  F54  1  0.21049665  0.56655889  0.14863251  1  -0.6166  -0.051039  0.873154  -0.072  -0.558608  -0.03652  1.050235  -0.055  -0.58844  -0.028418  1.026623  -0.044  -0.311125  -0.537268  -0.041316  1.067098  -0.061
F  F55  1  0.29065545  0.41776511  0.85107354  1  -0.617784  0.049951  0.868684  0.076  -0.560604  0.036288  1.046125  0.058  -0.590001  0.027415  1.022162  0.045  -0.313059  -0.539882  0.042597  1.063286  0.065
