# generated using pymatgen
data_DyH11C16(NO7)2
_symmetry_space_group_name_H-M   'P 1'
_cell_length_a   9.10891168
_cell_length_b   10.02843367
_cell_length_c   13.22383822
_cell_angle_alpha   114.03292370
_cell_angle_beta   96.30647974
_cell_angle_gamma   111.48268742
_symmetry_Int_Tables_number   1
_chemical_formula_structural   DyH11C16(NO7)2
_chemical_formula_sum   'Dy2 H22 C32 N4 O28'
_cell_volume   977.77755471
_cell_formula_units_Z   2
loop_
 _symmetry_equiv_pos_site_id
 _symmetry_equiv_pos_as_xyz
  1  'x, y, z'
loop_
 _atom_site_type_symbol
 _atom_site_label
 _atom_site_symmetry_multiplicity
 _atom_site_fract_x
 _atom_site_fract_y
 _atom_site_fract_z
 _atom_site_occupancy
 _atom_site_hle17_bader_spin_density
 _atom_site_hle17_ddec_charge
 _atom_site_hle17_ddec_spin_density
 _atom_site_hle17_ddec_sum_bond_order
 _atom_site_hle17_magmom
 _atom_site_hse06_10hf_bader_spin_density
 _atom_site_hse06_10hf_ddec_charge
 _atom_site_hse06_10hf_ddec_spin_density
 _atom_site_hse06_10hf_ddec_sum_bond_order
 _atom_site_hse06_10hf_magmom
 _atom_site_hse06_bader_spin_density
 _atom_site_hse06_ddec_charge
 _atom_site_hse06_ddec_spin_density
 _atom_site_hse06_ddec_sum_bond_order
 _atom_site_hse06_magmom
 _atom_site_pbe_bader_spin_density
 _atom_site_pbe_cm5_charge
 _atom_site_pbe_ddec_charge
 _atom_site_pbe_ddec_spin_density
 _atom_site_pbe_ddec_sum_bond_order
 _atom_site_pbe_magmom
Dy  Dy0  1  0.79946138  0.56206644  0.53249916  1  0  2.300423  0  1.590905  0  0  2.229794  0  1.913115  0  0  2.277432  0  1.871652  0  0  1.519527  2.116297  0  2.088859  0
Dy  Dy1  1  0.20053900  0.43792976  0.46750068  1  0  2.300392  0  1.590945  0  0  2.229767  0  1.913166  0  0  2.277409  0  1.871697  0  0  1.519484  2.116275  0  2.088908  0
H  H2  1  0.11378500  0.03820901  0.75202977  1  0  0.414098  0  0.83656  0  0  0.383967  0  0.915459  0  0  0.396235  0  0.901181  0  0  0.317299  0.374979  0  0.92609  0
H  H3  1  0.88622559  0.96179553  0.24796928  1  0  0.414035  0  0.836579  0  0  0.383927  0  0.915463  0  0  0.396195  0  0.901187  0  0  0.317285  0.374938  0  0.926104  0
H  H4  1  0.89864904  0.57925644  0.76380338  1  0  0.454812  0  0.823268  0  0  0.42529  0  0.882864  0  0  0.435894  0  0.866916  0  0  0.313477  0.417211  0  0.894838  0
H  H5  1  0.10134039  0.42072767  0.23619457  1  0  0.454803  0  0.823258  0  0  0.425262  0  0.882891  0  0  0.435866  0  0.866943  0  0  0.313459  0.417178  0  0.894871  0
H  H6  1  0.00833246  0.50758690  0.68831069  1  0  0.449153  0  0.848351  0  0  0.419247  0  0.909251  0  0  0.429764  0  0.893988  0  0  0.305082  0.411334  0  0.920522  0
H  H7  1  0.99165580  0.49239717  0.31168644  1  0  0.449168  0  0.848347  0  0  0.419245  0  0.909272  0  0  0.429763  0  0.894006  0  0  0.305079  0.411332  0  0.920538  0
H  H8  1  0.61569117  0.67210375  0.69401781  1  0  0.440494  0  0.856545  0  0  0.409164  0  0.921855  0  0  0.419972  0  0.905953  0  0  0.302429  0.401132  0  0.933357  0
H  H9  1  0.38431333  0.32789714  0.30597985  1  0  0.440449  0  0.856591  0  0  0.409121  0  0.921897  0  0  0.419926  0  0.906  0  0  0.30241  0.401091  0  0.933398  0
H  H10  1  0.78667484  0.82775268  0.73938815  1  0  0.436231  0  0.849653  0  0  0.411163  0  0.902693  0  0  0.420423  0  0.88888  0  0  0.312776  0.404443  0  0.91246  0
H  H11  1  0.21332726  0.17224810  0.26060710  1  0  0.436232  0  0.84965  0  0  0.411166  0  0.902686  0  0  0.420425  0  0.888874  0  0  0.312789  0.404445  0  0.912452  0
H  H12  1  0.88420068  0.59429319  0.17723586  1  0  0.134412  0  0.95494  0  0  0.133696  0  1.029918  0  0  0.138532  0  1.024737  0  0  0.118948  0.13013  0  1.03389  0
H  H13  1  0.11580129  0.40571060  0.82277090  1  0  0.134338  0  0.954926  0  0  0.133641  0  1.029905  0  0  0.138477  0  1.024726  0  0  0.118941  0.130076  0  1.033878  0
H  H14  1  0.51124726  0.32350793  0.84357318  1  0  0.122035  0  0.95625  0  0  0.124897  0  1.028662  0  0  0.128179  0  1.026838  0  0  0.114369  0.122543  0  1.029899  0
H  H15  1  0.48875838  0.67650913  0.15643398  1  0  0.122114  0  0.956149  0  0  0.124973  0  1.028554  0  0  0.128251  0  1.026743  0  0  0.114416  0.122623  0  1.029785  0
H  H16  1  0.40870888  0.21238459  0.11785580  1  0  0.122686  0  0.929009  0  0  0.130011  0  0.992433  0  0  0.134247  0  0.988339  0  0  0.120491  0.126764  0  0.99575  0
H  H17  1  0.59129000  0.78762511  0.88214806  1  0  0.122746  0  0.928964  0  0  0.129989  0  0.992464  0  0  0.134224  0  0.988372  0  0  0.120487  0.126741  0  0.995776  0
H  H18  1  0.28428077  0.72061058  0.35841255  1  0  0.131577  0  0.960919  0  0  0.131299  0  1.037177  0  0  0.136418  0  1.031791  0  0  0.121708  0.127611  0  1.040766  0
H  H19  1  0.71571610  0.27938552  0.64158483  1  0  0.131594  0  0.96093  0  0  0.131326  0  1.037173  0  0  0.136444  0  1.03179  0  0  0.121723  0.127636  0  1.040769  0
H  H20  1  0.53484633  0.13597459  0.30717352  1  0  0.138414  0  0.952071  0  0  0.140874  0  1.020879  0  0  0.14539  0  1.017281  0  0  0.122881  0.137648  0  1.023421  0
H  H21  1  0.46515359  0.86401646  0.69282019  1  0  0.138401  0  0.952173  0  0  0.140953  0  1.020853  0  0  0.145471  0  1.017248  0  0  0.122877  0.137721  0  1.023401  0
H  H22  1  0.81620191  0.95404628  0.45075554  1  0  0.133415  0  0.908997  0  0  0.141831  0  0.96726  0  0  0.146212  0  0.963369  0  0  0.12438  0.138355  0  0.970943  0
H  H23  1  0.18379757  0.04594849  0.54924004  1  0  0.13343  0  0.909011  0  0  0.141852  0  0.967268  0  0  0.146233  0  0.963378  0  0  0.124384  0.138378  0  0.970949  0
C  C24  1  0.65098597  0.40917155  0.16184582  1  0  -0.052777  0  3.709847  0  0  -0.02336  0  3.941345  0  0  -0.034714  0  3.964291  0  0  -0.004872  -0.017183  0  3.927387  0
C  C25  1  0.34901395  0.59083323  0.83815661  1  0  -0.052655  0  3.709759  0  0  -0.02324  0  3.941248  0  0  -0.034593  0  3.964195  0  0  -0.004829  -0.017071  0  3.927305  0
C  C26  1  0.76163787  0.49700662  0.12034739  1  0  -0.044893  0  3.627118  0  0  -0.087413  0  3.882926  0  0  -0.081087  0  3.89674  0  0  -0.052486  -0.091331  0  3.874337  0
C  C27  1  0.23836365  0.50299935  0.87965470  1  0  -0.044871  0  3.62689  0  0  -0.087441  0  3.882769  0  0  -0.081116  0  3.896584  0  0  -0.052489  -0.09136  0  3.874186  0
C  C28  1  0.70915489  0.46131469  0.00548711  1  0  0.058485  0  3.700416  0  0  0.054771  0  3.961281  0  0  0.04876  0  3.98399  0  0  0.077429  0.058283  0  3.945903  0
C  C29  1  0.29085009  0.53869379  0.99451742  1  0  0.058569  0  3.700095  0  0  0.054888  0  3.960969  0  0  0.048877  0  3.983682  0  0  0.077466  0.058406  0  3.945584  0
C  C30  1  0.54981631  0.34409910  0.93157454  1  0  -0.078442  0  3.675997  0  0  -0.120314  0  3.93467  0  0  -0.116094  0  3.953983  0  0  -0.06435  -0.122347  0  3.921031  0
C  C31  1  0.45018817  0.65591307  0.06843108  1  0  -0.078521  0  3.675872  0  0  -0.120391  0  3.934579  0  0  -0.116174  0  3.953892  0  0  -0.064365  -0.122425  0  3.920926  0
C  C32  1  0.44254875  0.25310740  0.97283959  1  0  -0.061473  0  3.74304  0  0  -0.035714  0  3.98168  0  0  -0.047193  0  4.006283  0  0  -0.009287  -0.028412  0  3.964736  0
C  C33  1  0.55744947  0.74689859  0.02716236  1  0  -0.061596  0  3.742727  0  0  -0.035814  0  3.981421  0  0  -0.04729  0  4.006025  0  0  -0.009372  -0.028511  0  3.964476  0
C  C34  1  0.49374925  0.28481686  0.08733523  1  0  -0.010687  0  3.613621  0  0  -0.054667  0  3.861098  0  0  -0.048655  0  3.877119  0  0  -0.046445  -0.058037  0  3.850458  0
C  C35  1  0.50624941  0.71519027  0.91266557  1  0  -0.010803  0  3.613579  0  0  -0.054698  0  3.861062  0  0  -0.048686  0  3.877084  0  0  -0.046457  -0.058063  0  3.85042  0
C  C36  1  0.70123316  0.45086424  0.28627187  1  0  0.663004  0  3.886766  0  0  0.612239  0  4.179177  0  0  0.646305  0  4.172361  0  0  0.213924  0.589999  0  4.176181  0
C  C37  1  0.29876568  0.54913569  0.71372978  1  0  0.66306  0  3.886686  0  0  0.612347  0  4.179047  0  0  0.646413  0  4.172227  0  0  0.213949  0.590114  0  4.176057  0
C  C38  1  0.27510298  0.11593261  0.89510228  1  0  0.638936  0  3.830374  0  0  0.590103  0  4.131389  0  0  0.62154  0  4.125688  0  0  0.225426  0.568638  0  4.134924  0
C  C39  1  0.72490751  0.88409135  0.10489886  1  0  0.63915  0  3.830233  0  0  0.590206  0  4.131454  0  0  0.621639  0  4.125748  0  0  0.225463  0.568742  0  4.134984  0
C  C40  1  0.55163173  0.82601726  0.40914733  1  0  -0.071399  0  3.719018  0  0  -0.043154  0  3.950271  0  0  -0.054497  0  3.973882  0  0  -0.010653  -0.036746  0  3.936606  0
C  C41  1  0.44836641  0.17398136  0.59085239  1  0  -0.071268  0  3.718895  0  0  -0.04298  0  3.950184  0  0  -0.054319  0  3.973798  0  0  -0.010571  -0.036576  0  3.936531  0
C  C42  1  0.39872197  0.81380452  0.36347736  1  0  -0.078231  0  3.687599  0  0  -0.119116  0  3.947108  0  0  -0.114761  0  3.964697  0  0  -0.062493  -0.121177  0  3.935306  0
C  C43  1  0.60127844  0.18619413  0.63652322  1  0  -0.078245  0  3.687483  0  0  -0.119115  0  3.946989  0  0  -0.114761  0  3.964576  0  0  -0.062484  -0.121175  0  3.935202  0
C  C44  1  0.39666904  0.92278739  0.32420922  1  0  0.047126  0  3.722811  0  0  0.042897  0  3.986576  0  0  0.036435  0  4.010619  0  0  0.07548  0.04684  0  3.970544  0
C  C45  1  0.60333071  0.07720754  0.67578945  1  0  0.047117  0  3.722814  0  0  0.042815  0  3.98667  0  0  0.036353  0  4.010712  0  0  0.075432  0.046756  0  3.970644  0
C  C46  1  0.54091024  0.04807444  0.33362756  1  0  -0.078352  0  3.645807  0  0  -0.118223  0  3.902469  0  0  -0.1138  0  3.918513  0  0  -0.061134  -0.121388  0  3.892607  0
C  C47  1  0.45908987  0.95192160  0.66636919  1  0  -0.078486  0  3.646081  0  0  -0.118377  0  3.902674  0  0  -0.113948  0  3.918721  0  0  -0.061161  -0.121545  0  3.892813  0
C  C48  1  0.69273520  0.06020884  0.38132996  1  0  -0.052688  0  3.722014  0  0  -0.02509  0  3.957035  0  0  -0.035403  0  3.979029  0  0  -0.003766  -0.019316  0  3.944338  0
C  C49  1  0.30726394  0.93978728  0.61866828  1  0  -0.052635  0  3.722046  0  0  -0.025015  0  3.957067  0  0  -0.035338  0  3.979063  0  0  -0.003756  -0.01923  0  3.944367  0
C  C50  1  0.69787335  0.94651671  0.41546130  1  0  -0.018059  0  3.616656  0  0  -0.063635  0  3.871371  0  0  -0.057588  0  3.886181  0  0  -0.052201  -0.068259  0  3.863663  0
C  C51  1  0.30212690  0.05347941  0.58453700  1  0  -0.018142  0  3.616762  0  0  -0.063742  0  3.871515  0  0  -0.057688  0  3.886322  0  0  -0.052202  -0.068369  0  3.863806  0
C  C52  1  0.55989919  0.71360813  0.45529400  1  0  0.72684  0  3.860291  0  0  0.681326  0  4.150516  0  0  0.716533  0  4.140178  0  0  0.235792  0.656646  0  4.152582  0
C  C53  1  0.44010445  0.28639046  0.54470596  1  0  0.726906  0  3.860043  0  0  0.681243  0  4.15055  0  0  0.716435  0  4.140239  0  0  0.235656  0.656563  0  4.152616  0
C  C54  1  0.85298410  0.19651323  0.40087181  1  0  0.701565  0  3.857313  0  0  0.653762  0  4.15213  0  0  0.689008  0  4.141784  0  0  0.230474  0.629967  0  4.149602  0
C  C55  1  0.14701287  0.80348536  0.59912708  1  0  0.701675  0  3.857145  0  0  0.653807  0  4.152063  0  0  0.68906  0  4.141708  0  0  0.230456  0.630011  0  4.149537  0
N  N56  1  0.23655439  0.91211011  0.27819518  1  0  0.510974  0  3.876028  0  0  0.533161  0  4.180386  0  0  0.554452  0  4.189084  0  0  0.059586  0.518893  0  4.174838  0
N  N57  1  0.76344572  0.08788593  0.72180157  1  0  0.511108  0  3.875912  0  0  0.533322  0  4.18026  0  0  0.554615  0  4.188955  0  0  0.059651  0.519054  0  4.174711  0
N  N58  1  0.82572606  0.55180920  0.96117514  1  0  0.507899  0  3.886523  0  0  0.534056  0  4.18565  0  0  0.55532  0  4.194462  0  0  0.062121  0.519835  0  4.179787  0
N  N59  1  0.17427657  0.44819676  0.03882701  1  0  0.507936  0  3.886551  0  0  0.534084  0  4.185686  0  0  0.555347  0  4.194501  0  0  0.062115  0.519865  0  4.179815  0
O  O60  1  0.85094595  0.55176154  0.34969089  1  0  -0.681149  0  2.037749  0  0  -0.631778  0  2.265556  0  0  -0.657216  0  2.256803  0  0  -0.350068  -0.60634  0  2.271301  0
O  O61  1  0.14905306  0.44823605  0.65031234  1  0  -0.68118  0  2.037736  0  0  -0.631859  0  2.265545  0  0  -0.657299  0  2.256794  0  0  -0.350058  -0.606428  0  2.2713  0
O  O62  1  0.59509549  0.38838596  0.32975082  1  0  -0.694011  0  2.061462  0  0  -0.644078  0  2.297263  0  0  -0.669923  0  2.288216  0  0  -0.337794  -0.618698  0  2.302213  0
O  O63  1  0.40490314  0.61160166  0.67024634  1  0  -0.694092  0  2.061528  0  0  -0.644183  0  2.297334  0  0  -0.670034  0  2.288287  0  0  -0.337836  -0.618792  0  2.302269  0
O  O64  1  0.20913192  0.99361857  0.90529923  1  0  -0.509075  0  1.8535  0  0  -0.475469  0  2.038329  0  0  -0.493602  0  2.031895  0  0  -0.28815  -0.463088  0  2.042759  0
O  O65  1  0.79085334  0.00638187  0.09471029  1  0  -0.508894  0  1.854078  0  0  -0.475219  0  2.03898  0  0  -0.493344  0  2.032538  0  0  -0.287985  -0.462852  0  2.043412  0
O  O66  1  0.20966911  0.14280097  0.81324373  1  0  -0.556939  0  2.107936  0  0  -0.511538  0  2.334863  0  0  -0.534266  0  2.322401  0  0  -0.334213  -0.495561  0  2.343605  0
O  O67  1  0.79034083  0.85719984  0.18675340  1  0  -0.557098  0  2.107618  0  0  -0.511726  0  2.334589  0  0  -0.534456  0  2.322129  0  0  -0.334304  -0.495743  0  2.34332  0
O  O68  1  0.76958674  0.53049081  0.86219503  1  0  -0.380408  0  1.783186  0  0  -0.3489  0  1.986709  0  0  -0.364378  0  1.983343  0  0  -0.121151  -0.338974  0  1.989644  0
O  O69  1  0.23041810  0.46951027  0.13780649  1  0  -0.380499  0  1.783173  0  0  -0.348954  0  1.986679  0  0  -0.364431  0  1.983314  0  0  -0.121178  -0.339029  0  1.989617  0
O  O70  1  0.97146953  0.64211282  0.02211734  1  0  -0.327489  0  1.765129  0  0  -0.321302  0  1.975744  0  0  -0.33208  0  1.972407  0  0  -0.115328  -0.314051  0  1.978235  0
O  O71  1  0.02853445  0.35789816  0.97788866  1  0  -0.327517  0  1.765186  0  0  -0.32134  0  1.975811  0  0  -0.332116  0  1.972473  0  0  -0.115344  -0.314087  0  1.978297  0
O  O72  1  0.70078737  0.72408689  0.48943814  1  0  -0.716025  0  2.067117  0  0  -0.682144  0  2.319551  0  0  -0.707033  0  2.309612  0  0  -0.385589  -0.653834  0  2.328391  0
O  O73  1  0.29920821  0.27590423  0.51055615  1  0  -0.716086  0  2.066981  0  0  -0.682155  0  2.319487  0  0  -0.707043  0  2.30956  0  0  -0.385538  -0.653843  0  2.328322  0
O  O74  1  0.42565637  0.61740012  0.45851585  1  0  -0.753115  0  2.115009  0  0  -0.715924  0  2.388324  0  0  -0.740729  0  2.374298  0  0  -0.422475  -0.684569  0  2.398497  0
O  O75  1  0.57434420  0.38260106  0.54148702  1  0  -0.753187  0  2.115032  0  0  -0.715918  0  2.388354  0  0  -0.740713  0  2.374336  0  0  -0.422467  -0.684561  0  2.398527  0
O  O76  1  0.97153450  0.16377769  0.37640631  1  0  -0.68286  0  1.994422  0  0  -0.640496  0  2.230072  0  0  -0.664915  0  2.21803  0  0  -0.352365  -0.61483  0  2.238565  0
O  O77  1  0.02846580  0.83622334  0.62359347  1  0  -0.682886  0  1.994428  0  0  -0.640502  0  2.230094  0  0  -0.664937  0  2.218082  0  0  -0.352362  -0.614841  0  2.238593  0
O  O78  1  0.87195324  0.34301104  0.44564236  1  0  -0.769504  0  2.109056  0  0  -0.732491  0  2.368066  0  0  -0.758363  0  2.358242  0  0  -0.386381  -0.697196  0  2.373727  0
O  O79  1  0.12803954  0.65698282  0.55435794  1  0  -0.769553  0  2.108888  0  0  -0.732526  0  2.367948  0  0  -0.75838  0  2.358083  0  0  -0.386338  -0.697227  0  2.373604  0
O  O80  1  0.23102884  0.97857954  0.21715840  1  0  -0.365903  0  1.771425  0  0  -0.341329  0  1.973148  0  0  -0.353303  0  1.966395  0  0  -0.11961  -0.333813  0  1.97838  0
O  O81  1  0.76897636  0.02142265  0.78284120  1  0  -0.365941  0  1.77144  0  0  -0.34138  0  1.973184  0  0  -0.35335  0  1.966428  0  0  -0.11961  -0.333864  0  1.978418  0
O  O82  1  0.11658458  0.83967316  0.30376474  1  0  -0.329498  0  1.747129  0  0  -0.30537  0  1.95041  0  0  -0.317428  0  1.946732  0  0  -0.103441  -0.297646  0  1.95353  0
O  O83  1  0.88341464  0.16032146  0.69622776  1  0  -0.329559  0  1.747059  0  0  -0.305446  0  1.950329  0  0  -0.317508  0  1.946648  0  0  -0.103475  -0.297717  0  1.953445  0
O  O84  1  0.92192361  0.54611263  0.68911436  1  0  -0.931803  0  1.900494  0  0  -0.891302  0  2.091517  0  0  -0.910076  0  2.058535  0  0  -0.655938  -0.867357  0  2.120788  0
O  O85  1  0.07806526  0.45387026  0.31088319  1  0  -0.93179  0  1.90048  0  0  -0.89127  0  2.091516  0  0  -0.910048  0  2.058535  0  0  -0.655929  -0.867333  0  2.120804  0
O  O86  1  0.73587919  0.70806331  0.70307083  1  0  -0.88778  0  1.871742  0  0  -0.850714  0  2.051302  0  0  -0.86992  0  2.02121  0  0  -0.633413  -0.827369  0  2.077167  0
O  O87  1  0.26412558  0.29193773  0.29692992  1  0  -0.887741  0  1.871814  0  0  -0.850672  0  2.051375  0  0  -0.869878  0  2.021286  0  0  -0.633406  -0.827328  0  2.077236  0
