# generated using pymatgen
data_SnH10(C5O2)2
_symmetry_space_group_name_H-M   'P 1'
_cell_length_a   7.44618280
_cell_length_b   9.81046208
_cell_length_c   14.38509093
_cell_angle_alpha   90.00150358
_cell_angle_beta   89.99961222
_cell_angle_gamma   92.82825406
_symmetry_Int_Tables_number   1
_chemical_formula_structural   SnH10(C5O2)2
_chemical_formula_sum   'Sn4 H40 C40 O16'
_cell_volume   1049.55800117
_cell_formula_units_Z   4
loop_
 _symmetry_equiv_pos_site_id
 _symmetry_equiv_pos_as_xyz
  1  'x, y, z'
loop_
 _atom_site_type_symbol
 _atom_site_label
 _atom_site_symmetry_multiplicity
 _atom_site_fract_x
 _atom_site_fract_y
 _atom_site_fract_z
 _atom_site_occupancy
 _atom_site_hle17_bader_spin_density
 _atom_site_hle17_ddec_charge
 _atom_site_hle17_ddec_spin_density
 _atom_site_hle17_ddec_sum_bond_order
 _atom_site_hle17_magmom
 _atom_site_hse06_10hf_bader_spin_density
 _atom_site_hse06_10hf_ddec_charge
 _atom_site_hse06_10hf_ddec_spin_density
 _atom_site_hse06_10hf_ddec_sum_bond_order
 _atom_site_hse06_10hf_magmom
 _atom_site_hse06_bader_spin_density
 _atom_site_hse06_ddec_charge
 _atom_site_hse06_ddec_spin_density
 _atom_site_hse06_ddec_sum_bond_order
 _atom_site_hse06_magmom
 _atom_site_pbe_bader_spin_density
 _atom_site_pbe_cm5_charge
 _atom_site_pbe_ddec_charge
 _atom_site_pbe_ddec_spin_density
 _atom_site_pbe_ddec_sum_bond_order
 _atom_site_pbe_magmom
Sn  Sn0  1  0.40673475  0.84123476  0.60010338  1  0  1.509587  0  2.755859  0  0  1.359881  0  3.254758  0  0  1.41353  0  3.224482  0  0  0.62405  1.322905  0  3.274575  0
Sn  Sn1  1  0.09325322  0.15877562  0.10010688  1  0  1.50957  0  2.755965  0  0  1.359869  0  3.254769  0  0  1.413522  0  3.224488  0  0  0.62405  1.322885  0  3.274591  0
Sn  Sn2  1  0.59327079  0.15879542  0.39989494  1  0  1.509659  0  2.755746  0  0  1.359996  0  3.254483  0  0  1.413651  0  3.224194  0  0  0.624147  1.323019  0  3.274299  0
Sn  Sn3  1  0.90674774  0.84121887  0.89989700  1  0  1.5097  0  2.755935  0  0  1.360017  0  3.254737  0  0  1.41367  0  3.224447  0  0  0.624086  1.323046  0  3.27455  0
H  H4  1  0.74269835  0.83332905  0.53364669  1  0  0.160155  0  1.007542  0  0  0.178073  0  1.063854  0  0  0.180925  0  1.065136  0  0  0.089386  0.176051  0  1.062994  0
H  H5  1  0.75731761  0.16665809  0.03364170  1  0  0.160101  0  1.007662  0  0  0.178002  0  1.06398  0  0  0.180851  0  1.065271  0  0  0.089319  0.175987  0  1.063113  0
H  H6  1  0.25731616  0.16665573  0.46634884  1  0  0.160106  0  1.007589  0  0  0.178031  0  1.06389  0  0  0.180879  0  1.065183  0  0  0.089381  0.176016  0  1.063021  0
H  H7  1  0.24271062  0.83334975  0.96634063  1  0  0.160174  0  1.007445  0  0  0.178104  0  1.06375  0  0  0.180952  0  1.065044  0  0  0.089417  0.176092  0  1.062881  0
H  H8  1  0.64087503  0.66345812  0.54115810  1  0  0.173879  0  0.973064  0  0  0.189955  0  1.030691  0  0  0.193449  0  1.030655  0  0  0.096971  0.187435  0  1.030958  0
H  H9  1  0.85910906  0.33653252  0.04115140  1  0  0.173854  0  0.973071  0  0  0.189919  0  1.030716  0  0  0.193413  0  1.030678  0  0  0.096956  0.187398  0  1.03098  0
H  H10  1  0.35907078  0.33654659  0.45885064  1  0  0.173963  0  0.972819  0  0  0.189974  0  1.030556  0  0  0.193462  0  1.030524  0  0  0.097017  0.187451  0  1.03082  0
H  H11  1  0.14093564  0.66346754  0.95884205  1  0  0.174047  0  0.972844  0  0  0.190085  0  1.030535  0  0  0.193574  0  1.030501  0  0  0.097028  0.187564  0  1.030802  0
H  H12  1  0.72380381  0.74943877  0.64493482  1  0  0.183686  0  0.983536  0  0  0.196712  0  1.044195  0  0  0.201304  0  1.042578  0  0  0.096888  0.193314  0  1.045578  0
H  H13  1  0.77617614  0.25055597  0.14492568  1  0  0.183587  0  0.983692  0  0  0.196606  0  1.044361  0  0  0.201198  0  1.042742  0  0  0.09677  0.19321  0  1.045745  0
H  H14  1  0.27618202  0.25056345  0.35506905  1  0  0.183794  0  0.983463  0  0  0.196716  0  1.044246  0  0  0.201308  0  1.042628  0  0  0.096865  0.193316  0  1.045632  0
H  H15  1  0.22382414  0.74944367  0.85505943  1  0  0.183765  0  0.983522  0  0  0.196789  0  1.044183  0  0  0.20138  0  1.042567  0  0  0.096918  0.193391  0  1.045566  0
H  H16  1  0.15969837  0.00847959  0.53747552  1  0  0.157305  0  1.009735  0  0  0.175241  0  1.06751  0  0  0.178133  0  1.068477  0  0  0.089955  0.173132  0  1.067163  0
H  H17  1  0.34030431  0.99151661  0.03748006  1  0  0.15729  0  1.009822  0  0  0.175241  0  1.067573  0  0  0.178132  0  1.068541  0  0  0.089942  0.173126  0  1.067233  0
H  H18  1  0.84028847  0.99154103  0.46253045  1  0  0.157313  0  1.009835  0  0  0.175265  0  1.067587  0  0  0.17814  0  1.068574  0  0  0.089962  0.173154  0  1.067241  0
H  H19  1  0.65972219  0.00848822  0.96252104  1  0  0.157313  0  1.009753  0  0  0.175278  0  1.067501  0  0  0.17817  0  1.068466  0  0  0.08998  0.173168  0  1.067153  0
H  H20  1  0.06226421  0.89331685  0.62315931  1  0  0.181766  0  0.969734  0  0  0.197838  0  1.025859  0  0  0.201859  0  1.025144  0  0  0.098308  0.194883  0  1.026545  0
H  H21  1  0.43773594  0.10668474  0.12316814  1  0  0.181748  0  0.96972  0  0  0.197795  0  1.025882  0  0  0.201816  0  1.02517  0  0  0.098265  0.194839  0  1.026568  0
H  H22  1  0.93774890  0.10668846  0.37684179  1  0  0.181814  0  0.96959  0  0  0.197874  0  1.025732  0  0  0.201895  0  1.025018  0  0  0.098322  0.194919  0  1.026416  0
H  H23  1  0.56227371  0.89331455  0.87683921  1  0  0.181752  0  0.96976  0  0  0.197856  0  1.025833  0  0  0.201874  0  1.025118  0  0  0.098302  0.194903  0  1.026516  0
H  H24  1  0.09834307  0.83532387  0.50584972  1  0  0.163566  0  0.986366  0  0  0.182248  0  1.042558  0  0  0.184937  0  1.043585  0  0  0.09378  0.180222  0  1.042098  0
H  H25  1  0.40166271  0.16467408  0.00585426  1  0  0.163615  0  0.986294  0  0  0.182283  0  1.042489  0  0  0.184974  0  1.043519  0  0  0.093771  0.180258  0  1.042024  0
H  H26  1  0.90168111  0.16469435  0.49414929  1  0  0.163499  0  0.98641  0  0  0.18217  0  1.042625  0  0  0.184859  0  1.04365  0  0  0.093738  0.180145  0  1.042161  0
H  H27  1  0.59834195  0.83533871  0.99415727  1  0  0.163565  0  0.986342  0  0  0.18221  0  1.042593  0  0  0.184895  0  1.043622  0  0  0.093733  0.180184  0  1.042135  0
H  H28  1  0.26684963  0.52921620  0.83477312  1  0  0.10476  0  0.953593  0  0  0.116438  0  1.011261  0  0  0.119284  0  1.010103  0  0  0.109618  0.114174  0  1.012461  0
H  H29  1  0.23311533  0.47079370  0.33480783  1  0  0.104728  0  0.953485  0  0  0.116278  0  1.011317  0  0  0.119116  0  1.010171  0  0  0.10954  0.114034  0  1.012502  0
H  H30  1  0.73313029  0.47079237  0.16520573  1  0  0.104641  0  0.953629  0  0  0.116259  0  1.011381  0  0  0.119099  0  1.010229  0  0  0.109585  0.114004  0  1.012569  0
H  H31  1  0.76686958  0.52920138  0.66519466  1  0  0.104743  0  0.953518  0  0  0.116298  0  1.011356  0  0  0.119138  0  1.010203  0  0  0.109548  0.114042  0  1.012545  0
H  H32  1  0.15720260  0.31502215  0.91097333  1  0  0.102898  0  0.973117  0  0  0.111567  0  1.037877  0  0  0.11496  0  1.035381  0  0  0.107668  0.109068  0  1.039713  0
H  H33  1  0.34279239  0.68498443  0.41099178  1  0  0.10293  0  0.973116  0  0  0.111621  0  1.037852  0  0  0.115018  0  1.035352  0  0  0.107713  0.109125  0  1.039687  0
H  H34  1  0.84279524  0.68498987  0.08901804  1  0  0.102976  0  0.973063  0  0  0.111615  0  1.03786  0  0  0.115008  0  1.035362  0  0  0.107711  0.109117  0  1.039698  0
H  H35  1  0.65720916  0.31499366  0.58901974  1  0  0.102978  0  0.973015  0  0  0.111583  0  1.037873  0  0  0.114979  0  1.035368  0  0  0.107696  0.109085  0  1.03971  0
H  H36  1  0.00752287  0.14507552  0.64445185  1  0  0.09793  0  0.961039  0  0  0.108609  0  1.023145  0  0  0.111487  0  1.0219  0  0  0.105992  0.106388  0  1.024297  0
H  H37  1  0.49246262  0.85489670  0.14445788  1  0  0.098126  0  0.960822  0  0  0.108753  0  1.022993  0  0  0.111645  0  1.021718  0  0  0.106095  0.106536  0  1.024146  0
H  H38  1  0.99247542  0.85491908  0.35554299  1  0  0.097992  0  0.961068  0  0  0.108612  0  1.023231  0  0  0.111491  0  1.021986  0  0  0.106014  0.106395  0  1.024378  0
H  H39  1  0.50754719  0.14509337  0.85555086  1  0  0.098056  0  0.960971  0  0  0.108696  0  1.023117  0  0  0.111574  0  1.021872  0  0  0.106067  0.106475  0  1.024266  0
H  H40  1  0.11489269  0.36485795  0.56786033  1  0  0.105425  0  0.948251  0  0  0.116178  0  1.006813  0  0  0.119716  0  1.004668  0  0  0.107985  0.1135  0  1.008637  0
H  H41  1  0.38506052  0.63511048  0.06787693  1  0  0.105427  0  0.948278  0  0  0.116203  0  1.006804  0  0  0.119753  0  1.004644  0  0  0.107977  0.113533  0  1.008625  0
H  H42  1  0.88507188  0.63513582  0.43213034  1  0  0.105432  0  0.948442  0  0  0.116221  0  1.006943  0  0  0.119795  0  1.004755  0  0  0.108014  0.113547  0  1.008764  0
H  H43  1  0.61494231  0.36488804  0.93213251  1  0  0.105577  0  0.948188  0  0  0.116281  0  1.006769  0  0  0.11986  0  1.004574  0  0  0.108024  0.113605  0  1.008591  0
C  C44  1  0.66218336  0.76180503  0.57644616  1  0  -0.696483  0  3.457136  0  0  -0.746098  0  3.690876  0  0  -0.762201  0  3.695689  0  0  -0.315545  -0.735179  0  3.688024  0
C  C45  1  0.83781274  0.23818651  0.07644058  1  0  -0.696298  0  3.457385  0  0  -0.745897  0  3.691118  0  0  -0.762001  0  3.695934  0  0  -0.31535  -0.734987  0  3.688246  0
C  C46  1  0.33780955  0.23820000  0.42355564  1  0  -0.696627  0  3.456898  0  0  -0.746088  0  3.690748  0  0  -0.762184  0  3.695562  0  0  -0.315593  -0.735177  0  3.687879  0
C  C47  1  0.16220602  0.76181040  0.92354870  1  0  -0.696799  0  3.456991  0  0  -0.746384  0  3.6908  0  0  -0.762482  0  3.695614  0  0  -0.315676  -0.735474  0  3.687937  0
C  C48  1  0.14835100  0.90290101  0.56151615  1  0  -0.695459  0  3.476029  0  0  -0.747183  0  3.711128  0  0  -0.76288  0  3.716753  0  0  -0.317375  -0.736708  0  3.707939  0
C  C49  1  0.35164590  0.09709324  0.06151768  1  0  -0.695514  0  3.476046  0  0  -0.747198  0  3.711087  0  0  -0.762902  0  3.716721  0  0  -0.317333  -0.736713  0  3.707892  0
C  C50  1  0.85165405  0.09711485  0.43848773  1  0  -0.695505  0  3.476001  0  0  -0.747229  0  3.711028  0  0  -0.76291  0  3.716682  0  0  -0.317398  -0.73675  0  3.707835  0
C  C51  1  0.64837044  0.90290581  0.93848967  1  0  -0.695534  0  3.476129  0  0  -0.747293  0  3.711265  0  0  -0.762984  0  3.716887  0  0  -0.317366  -0.736817  0  3.708075  0
C  C52  1  0.26595901  0.58793069  0.65080054  1  0  0.626015  0  3.884288  0  0  0.579754  0  4.170439  0  0  0.613633  0  4.163697  0  0  0.220669  0.557037  0  4.173854  0
C  C53  1  0.23402609  0.41203871  0.15083001  1  0  0.625304  0  3.884897  0  0  0.579102  0  4.170987  0  0  0.612979  0  4.164253  0  0  0.220287  0.556393  0  4.174381  0
C  C54  1  0.73404144  0.41205973  0.34917623  1  0  0.625629  0  3.884436  0  0  0.579437  0  4.170517  0  0  0.613312  0  4.163785  0  0  0.220563  0.556726  0  4.173922  0
C  C55  1  0.76596339  0.58795006  0.84917873  1  0  0.625619  0  3.884151  0  0  0.579434  0  4.170201  0  0  0.613311  0  4.163469  0  0  0.220579  0.556724  0  4.173604  0
C  C56  1  0.19854490  0.45919137  0.69669779  1  0  -0.04383  0  3.741825  0  0  -0.025172  0  3.979617  0  0  -0.031001  0  4.001032  0  0  -0.006451  -0.021369  0  3.965037  0
C  C57  1  0.30142526  0.54078954  0.19671528  1  0  -0.043392  0  3.741623  0  0  -0.024838  0  3.979476  0  0  -0.030671  0  4.0009  0  0  -0.006367  -0.021024  0  3.964888  0
C  C58  1  0.80143786  0.54080789  0.30329079  1  0  -0.043602  0  3.741799  0  0  -0.024985  0  3.979575  0  0  -0.03082  0  4.001003  0  0  -0.006445  -0.02118  0  3.964997  0
C  C59  1  0.69856728  0.45920219  0.80328860  1  0  -0.043635  0  3.742101  0  0  -0.025015  0  3.979852  0  0  -0.030848  0  4.001277  0  0  -0.006422  -0.021211  0  3.965271  0
C  C60  1  0.20866130  0.44552051  0.79341444  1  0  -0.058111  0  3.710552  0  0  -0.084041  0  3.962678  0  0  -0.085182  0  3.983653  0  0  -0.075124  -0.082773  0  3.948203  0
C  C61  1  0.29131873  0.55447908  0.29343363  1  0  -0.058115  0  3.710363  0  0  -0.083935  0  3.962531  0  0  -0.085069  0  3.983502  0  0  -0.075039  -0.082685  0  3.94806  0
C  C62  1  0.79132772  0.55448569  0.20657553  1  0  -0.05807  0  3.71051  0  0  -0.083939  0  3.96262  0  0  -0.085068  0  3.983583  0  0  -0.075128  -0.082675  0  3.948148  0
C  C63  1  0.70867460  0.44551876  0.70657164  1  0  -0.058064  0  3.710612  0  0  -0.08392  0  3.962762  0  0  -0.085044  0  3.983716  0  0  -0.07506  -0.082656  0  3.948293  0
C  C64  1  0.14793364  0.32482990  0.83586165  1  0  -0.061411  0  3.711427  0  0  -0.085385  0  3.962247  0  0  -0.085871  0  3.982553  0  0  -0.075633  -0.085085  0  3.948481  0
C  C65  1  0.35205809  0.67517907  0.33587918  1  0  -0.061505  0  3.711187  0  0  -0.085472  0  3.961951  0  0  -0.085964  0  3.982255  0  0  -0.075703  -0.085176  0  3.948198  0
C  C66  1  0.85206152  0.67518222  0.16412833  1  0  -0.061393  0  3.711155  0  0  -0.085335  0  3.961935  0  0  -0.085818  0  3.982238  0  0  -0.075624  -0.08504  0  3.948182  0
C  C67  1  0.64794435  0.32481640  0.66412887  1  0  -0.061461  0  3.711219  0  0  -0.08536  0  3.962001  0  0  -0.085848  0  3.982307  0  0  -0.075627  -0.085068  0  3.948245  0
C  C68  1  0.07791203  0.21565895  0.78192030  1  0  -0.059802  0  3.766115  0  0  -0.039719  0  4.00359  0  0  -0.04768  0  4.0269  0  0  -0.011557  -0.034465  0  3.987712  0
C  C69  1  0.42208380  0.78433757  0.28193035  1  0  -0.059742  0  3.765915  0  0  -0.039677  0  4.003391  0  0  -0.047629  0  4.026689  0  0  -0.011452  -0.034417  0  3.987512  0
C  C70  1  0.92208972  0.78434165  0.21807662  1  0  -0.059851  0  3.766093  0  0  -0.03978  0  4.003521  0  0  -0.047747  0  4.026841  0  0  -0.011575  -0.034529  0  3.987645  0
C  C71  1  0.57791811  0.21565382  0.71807909  1  0  -0.059791  0  3.765937  0  0  -0.039739  0  4.003378  0  0  -0.047697  0  4.026682  0  0  -0.011567  -0.03449  0  3.987504  0
C  C72  1  0.02100467  0.08598160  0.82851129  1  0  0.635012  0  3.860429  0  0  0.584991  0  4.147124  0  0  0.620298  0  4.139143  0  0  0.227122  0.561387  0  4.151236  0
C  C73  1  0.47900247  0.91402140  0.32852751  1  0  0.63517  0  3.859717  0  0  0.585158  0  4.146405  0  0  0.620463  0  4.138419  0  0  0.227109  0.56156  0  4.150513  0
C  C74  1  0.97900295  0.91402289  0.17148703  1  0  0.634848  0  3.860514  0  0  0.584883  0  4.147137  0  0  0.620189  0  4.139159  0  0  0.227098  0.561289  0  4.15124  0
C  C75  1  0.52099409  0.08597018  0.67149167  1  0  0.635025  0  3.861022  0  0  0.585106  0  4.147575  0  0  0.620408  0  4.139596  0  0  0.22727  0.561513  0  4.151677  0
C  C76  1  0.06561027  0.22982878  0.68510912  1  0  -0.066111  0  3.72398  0  0  -0.092443  0  3.97861  0  0  -0.093049  0  3.999951  0  0  -0.079111  -0.091628  0  3.963988  0
C  C77  1  0.43436993  0.77015644  0.18512092  1  0  -0.066181  0  3.724096  0  0  -0.092499  0  3.978699  0  0  -0.093111  0  4.000046  0  0  -0.07918  -0.091688  0  3.96409  0
C  C78  1  0.93437879  0.77016718  0.31488711  1  0  -0.066055  0  3.724243  0  0  -0.09236  0  3.978872  0  0  -0.092968  0  4.000226  0  0  -0.07915  -0.091545  0  3.96425  0
C  C79  1  0.56563411  0.22984101  0.81489060  1  0  -0.066045  0  3.723807  0  0  -0.092342  0  3.97839  0  0  -0.092951  0  3.99974  0  0  -0.079111  -0.091524  0  3.963769  0
C  C80  1  0.12527305  0.35111658  0.64273283  1  0  -0.069884  0  3.717147  0  0  -0.093263  0  3.968509  0  0  -0.094934  0  3.98915  0  0  -0.077685  -0.092344  0  3.95475  0
C  C81  1  0.37469730  0.64886329  0.14275461  1  0  -0.070199  0  3.717356  0  0  -0.093555  0  3.968703  0  0  -0.095238  0  3.989345  0  0  -0.077785  -0.09265  0  3.954962  0
C  C82  1  0.87470676  0.64888074  0.35725645  1  0  -0.070044  0  3.717514  0  0  -0.093432  0  3.968843  0  0  -0.095132  0  3.989472  0  0  -0.077688  -0.092519  0  3.955094  0
C  C83  1  0.62530324  0.35113839  0.85725483  1  0  -0.070307  0  3.717366  0  0  -0.093622  0  3.968705  0  0  -0.09533  0  3.989332  0  0  -0.077827  -0.092713  0  3.954959  0
O  O84  1  0.27130731  0.59841624  0.56340944  1  0  -0.610317  0  1.914247  0  0  -0.554678  0  2.127024  0  0  -0.579444  0  2.11998  0  0  -0.293151  -0.537256  0  2.131134  0
O  O85  1  0.22869905  0.40154701  0.06343876  1  0  -0.61013  0  1.914506  0  0  -0.55448  0  2.127205  0  0  -0.579248  0  2.120168  0  0  -0.293085  -0.537063  0  2.131316  0
O  O86  1  0.72871017  0.40156024  0.43656524  1  0  -0.610195  0  1.91435  0  0  -0.554542  0  2.127051  0  0  -0.579313  0  2.120018  0  0  -0.293083  -0.537122  0  2.13116  0
O  O87  1  0.77130260  0.59844234  0.93657068  1  0  -0.610155  0  1.914346  0  0  -0.554523  0  2.127049  0  0  -0.579292  0  2.120013  0  0  -0.29308  -0.537107  0  2.131163  0
O  O88  1  0.32033041  0.68915905  0.70436021  1  0  -0.610147  0  1.971166  0  0  -0.541011  0  2.198894  0  0  -0.567947  0  2.191347  0  0  -0.279257  -0.522358  0  2.2029  0
O  O89  1  0.17965446  0.31082161  0.20439097  1  0  -0.609788  0  1.971517  0  0  -0.540638  0  2.199154  0  0  -0.567566  0  2.191601  0  0  -0.278987  -0.521995  0  2.203158  0
O  O90  1  0.67966560  0.31083870  0.29561656  1  0  -0.609908  0  1.971135  0  0  -0.54085  0  2.198893  0  0  -0.567777  0  2.191339  0  0  -0.279211  -0.522205  0  2.202897  0
O  O91  1  0.82034449  0.68917808  0.79561708  1  0  -0.610005  0  1.970928  0  0  -0.540873  0  2.198593  0  0  -0.567804  0  2.191043  0  0  -0.279236  -0.522229  0  2.202599  0
O  O92  1  0.95796402  0.98257006  0.78057944  1  0  -0.584621  0  1.929645  0  0  -0.517736  0  2.153161  0  0  -0.543594  0  2.144896  0  0  -0.269726  -0.499802  0  2.157565  0
O  O93  1  0.54204147  0.01742071  0.28058765  1  0  -0.584575  0  1.929384  0  0  -0.517714  0  2.152886  0  0  -0.543581  0  2.144624  0  0  -0.269662  -0.499791  0  2.157311  0
O  O94  1  0.04203293  0.01742458  0.21942583  1  0  -0.584574  0  1.929811  0  0  -0.517686  0  2.153245  0  0  -0.54354  0  2.144979  0  0  -0.269714  -0.499767  0  2.157669  0
O  O95  1  0.45796524  0.98257665  0.71943361  1  0  -0.584505  0  1.929727  0  0  -0.517736  0  2.153256  0  0  -0.543582  0  2.144988  0  0  -0.269775  -0.499812  0  2.157669  0
O  O96  1  0.03419457  0.07401792  0.91646262  1  0  -0.6459  0  2.040884  0  0  -0.570846  0  2.271343  0  0  -0.599828  0  2.266408  0  0  -0.267836  -0.550611  0  2.273797  0
O  O97  1  0.46581180  0.92598333  0.41647496  1  0  -0.646088  0  2.040833  0  0  -0.570959  0  2.27123  0  0  -0.599939  0  2.266291  0  0  -0.267867  -0.550728  0  2.273688  0
O  O98  1  0.96581975  0.92598633  0.08353848  1  0  -0.64578  0  2.041063  0  0  -0.570752  0  2.271502  0  0  -0.599736  0  2.26657  0  0  -0.267768  -0.550517  0  2.273954  0
O  O99  1  0.53417993  0.07401252  0.58354352  1  0  -0.645909  0  2.041473  0  0  -0.570879  0  2.271902  0  0  -0.599864  0  2.266971  0  0  -0.26787  -0.550648  0  2.274355  0
