# generated using pymatgen
data_SmH20C18N2O11
_symmetry_space_group_name_H-M   'P 1'
_cell_length_a   10.56498163
_cell_length_b   11.03968249
_cell_length_c   12.73960000
_cell_angle_alpha   103.97587832
_cell_angle_beta   109.61231602
_cell_angle_gamma   96.81448037
_symmetry_Int_Tables_number   1
_chemical_formula_structural   SmH20C18N2O11
_chemical_formula_sum   'Sm2 H40 C36 N4 O22'
_cell_volume   1325.41958285
_cell_formula_units_Z   2
loop_
 _symmetry_equiv_pos_site_id
 _symmetry_equiv_pos_as_xyz
  1  'x, y, z'
loop_
 _atom_site_type_symbol
 _atom_site_label
 _atom_site_symmetry_multiplicity
 _atom_site_fract_x
 _atom_site_fract_y
 _atom_site_fract_z
 _atom_site_occupancy
 _atom_site_hle17_bader_spin_density
 _atom_site_hle17_ddec_charge
 _atom_site_hle17_ddec_spin_density
 _atom_site_hle17_ddec_sum_bond_order
 _atom_site_hle17_magmom
 _atom_site_hse06_10hf_bader_spin_density
 _atom_site_hse06_10hf_ddec_charge
 _atom_site_hse06_10hf_ddec_spin_density
 _atom_site_hse06_10hf_ddec_sum_bond_order
 _atom_site_hse06_10hf_magmom
 _atom_site_hse06_bader_spin_density
 _atom_site_hse06_ddec_charge
 _atom_site_hse06_ddec_spin_density
 _atom_site_hse06_ddec_sum_bond_order
 _atom_site_hse06_magmom
 _atom_site_pbe_bader_charge
 _atom_site_pbe_bader_spin_density
 _atom_site_pbe_cm5_charge
 _atom_site_pbe_ddec_charge
 _atom_site_pbe_ddec_spin_density
 _atom_site_pbe_ddec_sum_bond_order
 _atom_site_pbe_magmom
Sm  Sm0  1  0.10064146  0.54569360  0.68115858  1  0  2.291233  0  1.636306  0  0  2.195578  0  1.985452  0  0  2.239476  0  1.94429  0  2.232924  0  1.508951  2.098805  0  2.13596  0
Sm  Sm1  1  0.89935821  0.45430608  0.31884126  1  0  2.291236  0  1.636286  0  0  2.195589  0  1.985428  0  0  2.239472  0  1.944271  0  2.232924  0  1.508951  2.098817  0  2.135925  0
H  H2  1  0.92665990  0.14012555  0.30118206  1  0  0.386155  0  0.896176  0  0  0.358769  0  0.973191  0  0  0.369967  0  0.960701  0  0.641353  0  0.302945  0.350709  0  0.982058  0
H  H3  1  0.07333876  0.85987414  0.69881750  1  0  0.386158  0  0.896175  0  0  0.358772  0  0.97319  0  0  0.36997  0  0.9607  0  0.641354  0  0.302947  0.350712  0  0.982057  0
H  H4  1  0.23564368  0.39004776  0.26236554  1  0  0.384269  0  0.901818  0  0  0.359207  0  0.974952  0  0  0.370685  0  0.961971  0  0.653109  0  0.301417  0.350773  0  0.984522  0
H  H5  1  0.76435700  0.60995193  0.73763536  1  0  0.384245  0  0.901838  0  0  0.359188  0  0.974974  0  0  0.370664  0  0.961993  0  0.653104  0  0.301395  0.350752  0  0.984545  0
H  H6  1  0.17833436  0.89947122  0.93454140  1  0  0.387813  0  0.884572  0  0  0.365408  0  0.950645  0  0  0.376542  0  0.938476  0  0.647076  0  0.304443  0.35721  0  0.959781  0
H  H7  1  0.82166653  0.10052943  0.06545898  1  0  0.387822  0  0.884552  0  0  0.36542  0  0.950619  0  0  0.376552  0  0.938456  0  0.647071  0  0.304446  0.357222  0  0.959755  0
H  H8  1  0.00699469  0.16276845  0.67541153  1  0  0.116818  0  0.957582  0  0  0.123699  0  1.024276  0  0  0.127707  0  1.021425  0  0.08893  0  0.107951  0.120674  0  1.026756  0
H  H9  1  0.99300498  0.83723124  0.32458832  1  0  0.116817  0  0.9576  0  0  0.123701  0  1.024287  0  0  0.127708  0  1.021438  0  0.088928  0  0.107948  0.120676  0  1.026767  0
H  H10  1  0.40167335  0.57304376  0.65013836  1  0  0.129931  0  0.971717  0  0  0.134623  0  1.042126  0  0  0.139193  0  1.038143  0  0.112823  0  0.115124  0.131664  0  1.044147  0
H  H11  1  0.59832777  0.42695784  0.34986150  1  0  0.129938  0  0.971732  0  0  0.134638  0  1.042119  0  0  0.139209  0  1.038137  0  0.11283  0  0.115135  0.131678  0  1.044142  0
H  H12  1  0.56092000  0.82205818  0.87733129  1  0  0.134955  0  0.927556  0  0  0.144506  0  0.985574  0  0  0.149164  0  0.981764  0  0.113819  0  0.112656  0.140903  0  0.988911  0
H  H13  1  0.43908067  0.17794151  0.12266883  1  0  0.134948  0  0.927583  0  0  0.144484  0  0.985617  0  0  0.149143  0  0.98181  0  0.113819  0  0.112655  0.14088  0  0.988955  0
H  H14  1  0.45526787  0.51760402  0.82772169  1  0  0.04851  0  0.931223  0  0  0.056156  0  1.00239  0  0  0.058336  0  0.996785  0  0.142207  0  0.127689  0.054307  0  1.006569  0
H  H15  1  0.54473224  0.48239758  0.17227868  1  0  0.048489  0  0.931228  0  0  0.056141  0  1.002392  0  0  0.058323  0  0.996785  0  0.142237  0  0.12767  0.054289  0  1.006569  0
H  H16  1  0.63738345  0.45670802  0.91275432  1  0  0.100209  0  0.958537  0  0  0.118415  0  1.026735  0  0  0.119719  0  1.025438  0  0.081775  0  0.109528  0.117315  0  1.027911  0
H  H17  1  0.36261823  0.54329167  0.08724609  1  0  0.100201  0  0.958535  0  0  0.118406  0  1.026734  0  0  0.11971  0  1.025437  0  0.081774  0  0.109527  0.117306  0  1.027909  0
H  H18  1  0.64144783  0.29231628  0.86327605  1  0  0.097444  0  0.939361  0  0  0.117734  0  1.002944  0  0  0.118229  0  1.003324  0  0.046662  0  0.105592  0.117258  0  1.002873  0
H  H19  1  0.35855084  0.70768341  0.13672430  1  0  0.097428  0  0.939359  0  0  0.117717  0  1.002948  0  0  0.118213  0  1.003327  0  0.046656  0  0.105587  0.117242  0  1.002876  0
H  H20  1  0.60489363  0.34976673  0.99080034  1  0  0.102832  0  0.94993  0  0  0.121287  0  1.015892  0  0  0.121433  0  1.01656  0  0.076615  0  0.106695  0.121196  0  1.015244  0
H  H21  1  0.39510604  0.65023296  0.00919950  1  0  0.102823  0  0.949933  0  0  0.121277  0  1.015895  0  0  0.121423  0  1.016565  0  0.076616  0  0.106694  0.121186  0  1.015248  0
H  H22  1  0.25972457  0.19513675  0.74139294  1  0  0.122723  0  0.955649  0  0  0.139103  0  1.020675  0  0  0.140514  0  1.020015  0  0.113405  0  0.113098  0.137873  0  1.021519  0
H  H23  1  0.74027476  0.80486581  0.25860820  1  0  0.122693  0  0.955712  0  0  0.139121  0  1.020679  0  0  0.140533  0  1.020018  0  0.113411  0  0.113117  0.13789  0  1.021524  0
H  H24  1  0.36753722  0.17419272  0.87574498  1  0  0.0985  0  0.952168  0  0  0.117766  0  1.018051  0  0  0.11722  0  1.019908  0  0.094042  0  0.102358  0.118143  0  1.016679  0
H  H25  1  0.63246267  0.82580792  0.12425512  1  0  0.098509  0  0.952167  0  0  0.117776  0  1.018059  0  0  0.11723  0  1.019915  0  0.094045  0  0.102357  0.118153  0  1.016686  0
H  H26  1  0.41135490  0.13393274  0.75011019  1  0  0.097126  0  0.914305  0  0  0.120348  0  0.969479  0  0  0.120266  0  0.97028  0  0.057113  0  0.10833  0.120408  0  0.968904  0
H  H27  1  0.58864421  0.86606886  0.24988912  1  0  0.097142  0  0.914298  0  0  0.120365  0  0.969482  0  0  0.120284  0  0.970282  0  0.057095  0  0.108346  0.120425  0  0.968907  0
H  H28  1  0.87996355  0.35588971  0.74890361  1  0  0.043073  0  0.922676  0  0  0.050592  0  0.992187  0  0  0.05282  0  0.986394  0  0.111018  0  0.129056  0.048869  0  0.996051  0
H  H29  1  0.12003612  0.64410998  0.25109623  1  0  0.043078  0  0.922667  0  0  0.050599  0  0.992172  0  0  0.052826  0  0.98638  0  0.111025  0  0.129063  0.048876  0  0.996037  0
H  H30  1  0.79572851  0.18637077  0.77741006  1  0  0.097367  0  0.932556  0  0  0.118953  0  0.992794  0  0  0.119314  0  0.99299  0  0.073112  0  0.111043  0.118557  0  0.992838  0
H  H31  1  0.20427116  0.81362891  0.22258978  1  0  0.097336  0  0.932543  0  0  0.118918  0  0.992792  0  0  0.11928  0  0.992988  0  0.073121  0  0.111031  0.118522  0  0.992836  0
H  H32  1  0.84080927  0.20024578  0.92948928  1  0  0.106463  0  0.950055  0  0  0.123752  0  1.016127  0  0  0.124994  0  1.015751  0  0.089278  0  0.106709  0.12267  0  1.016691  0
H  H33  1  0.15919018  0.79975296  0.07051030  1  0  0.106461  0  0.950043  0  0  0.123748  0  1.016115  0  0  0.124992  0  1.015738  0  0.089272  0  0.106707  0.122667  0  1.01668  0
H  H34  1  0.91729105  0.10222160  0.84569803  1  0  0.120733  0  0.91266  0  0  0.140966  0  0.970738  0  0  0.142489  0  0.969768  0  0.097996  0  0.114384  0.139837  0  0.9715  0
H  H35  1  0.08270861  0.89777809  0.15430102  1  0  0.120732  0  0.912657  0  0  0.140961  0  0.970737  0  0  0.142486  0  0.969765  0  0.097996  0  0.114388  0.139834  0  0.971498  0
H  H36  1  0.19236361  0.39390750  0.99588481  1  0  0.104898  0  0.961099  0  0  0.123283  0  1.02674  0  0  0.124627  0  1.0258  0  0.083707  0  0.108564  0.122056  0  1.027845  0
H  H37  1  0.80763505  0.60609219  0.00411475  1  0  0.104934  0  0.961025  0  0  0.123292  0  1.026702  0  0  0.124636  0  1.02576  0  0.083696  0  0.108578  0.122064  0  1.027807  0
H  H38  1  0.15020805  0.22741227  0.98457002  1  0  0.11356  0  0.921733  0  0  0.135433  0  0.980729  0  0  0.13634  0  0.980226  0  0.091297  0  0.113387  0.134627  0  0.981217  0
H  H39  1  0.84979162  0.77258742  0.01542982  1  0  0.113548  0  0.921752  0  0  0.135418  0  0.980744  0  0  0.136326  0  0.980239  0  0.0913  0  0.113386  0.134611  0  0.981232  0
H  H40  1  0.08857239  0.34184636  0.06959990  1  0  0.110249  0  0.926457  0  0  0.133706  0  0.982683  0  0  0.133987  0  0.983091  0  0.077096  0  0.114051  0.133322  0  0.982629  0
H  H41  1  0.91142705  0.65815238  0.93039968  1  0  0.110212  0  0.926472  0  0  0.133649  0  0.982719  0  0  0.133927  0  0.983132  0  0.077095  0  0.114031  0.133265  0  0.982663  0
C  C42  1  0.97059279  0.02816133  0.39246447  1  0  0.306463  0  3.830434  0  0  0.292608  0  4.095724  0  0  0.30284  0  4.112975  0  0.476091  0  0.077782  0.285278  0  4.084507  0
C  C43  1  0.02940688  0.97183836  0.60753537  1  0  0.306411  0  3.830525  0  0  0.292606  0  4.09572  0  0  0.302836  0  4.112973  0  0.476149  0  0.077774  0.285275  0  4.084505  0
C  C44  1  0.97391604  0.12021462  0.49347393  1  0  -0.17694  0  3.758955  0  0  -0.16189  0  3.997454  0  0  -0.171225  0  4.018273  0  -0.019477  0  -0.03061  -0.156313  0  3.984841  0
C  C45  1  0.02608687  0.87978603  0.50652622  1  0  -0.176898  0  3.75898  0  0  -0.161814  0  3.997422  0  0  -0.171146  0  4.018235  0  -0.019517  0  -0.030575  -0.156238  0  3.98481  0
C  C46  1  0.00318982  0.09046061  0.59866248  1  0  -0.172278  0  3.736889  0  0  -0.205277  0  3.997138  0  0  -0.206663  0  4.014344  0  0.044721  0  -0.1018  -0.204347  0  3.986357  0
C  C47  1  0.99681085  0.90953908  0.40133764  1  0  -0.172291  0  3.736899  0  0  -0.205292  0  3.997162  0  0  -0.20668  0  4.014371  0  0.044737  0  -0.101801  -0.20436  0  3.98638  0
C  C48  1  0.95164251  0.24986002  0.49122023  1  0  0.736789  0  3.825384  0  0  0.690531  0  4.11673  0  0  0.72763  0  4.102054  0  1.547028  0  0.233668  0.665252  0  4.121591  0
C  C49  1  0.04835816  0.75013966  0.50878068  1  0  0.736869  0  3.825247  0  0  0.690573  0  4.116635  0  0  0.727672  0  4.101958  0  1.547058  0  0.233706  0.665294  0  4.121496  0
C  C50  1  0.41291499  0.44359062  0.38095667  1  0  0.305036  0  3.820231  0  0  0.292005  0  4.086407  0  0  0.302097  0  4.104069  0  0.574112  0  0.076705  0.284742  0  4.075178  0
C  C51  1  0.58708591  0.55641002  0.61904372  1  0  0.305035  0  3.820202  0  0  0.291985  0  4.086404  0  0  0.302075  0  4.104065  0  0.57417  0  0.076691  0.284722  0  4.075174  0
C  C52  1  0.35693847  0.48258794  0.46768569  1  0  -0.170398  0  3.75463  0  0  -0.155363  0  3.994059  0  0  -0.164736  0  4.015341  0  -0.041597  0  -0.028354  -0.15035  0  3.981478  0
C  C53  1  0.64306242  0.51741271  0.53231391  1  0  -0.170413  0  3.754639  0  0  -0.155371  0  3.994075  0  0  -0.164742  0  4.015356  0  -0.041628  0  -0.028357  -0.150357  0  3.981494  0
C  C54  1  0.44473372  0.53931330  0.58480480  1  0  -0.165599  0  3.703153  0  0  -0.199291  0  3.960381  0  0  -0.200886  0  3.977812  0  -0.022055  0  -0.096004  -0.197979  0  3.949174  0
C  C55  1  0.55526617  0.46068734  0.41519530  1  0  -0.16562  0  3.703243  0  0  -0.199319  0  3.960468  0  0  -0.200916  0  3.977901  0  -0.022043  0  -0.096016  -0.198007  0  3.949261  0
C  C56  1  0.20632109  0.46357904  0.43516989  1  0  0.718445  0  3.839663  0  0  0.672744  0  4.130631  0  0  0.709169  0  4.11705  0  1.523848  0  0.225291  0.648907  0  4.132064  0
C  C57  1  0.79367880  0.53642160  0.56483022  1  0  0.718362  0  3.839818  0  0  0.672648  0  4.13081  0  0  0.709075  0  4.117228  0  1.523831  0  0.225217  0.648811  0  4.132241  0
C  C58  1  0.36332653  0.99041776  0.99630000  1  0  0.302505  0  3.833144  0  0  0.285184  0  4.106868  0  0  0.295983  0  4.123397  0  0.506789  0  0.077152  0.277513  0  4.095973  0
C  C59  1  0.63667415  0.00958193  0.00370013  1  0  0.302505  0  3.833175  0  0  0.285172  0  4.106912  0  0  0.295971  0  4.123441  0  0.506793  0  0.077145  0.2775  0  4.096017  0
C  C60  1  0.39993671  0.88940527  0.92740565  1  0  -0.176323  0  3.784914  0  0  -0.161186  0  4.029906  0  0  -0.170542  0  4.051816  0  -0.014363  0  -0.033492  -0.155447  0  4.015967  0
C  C61  1  0.60006296  0.11059442  0.07259419  1  0  -0.176299  0  3.784856  0  0  -0.161146  0  4.029835  0  0  -0.170502  0  4.051745  0  -0.014085  0  -0.033475  -0.155405  0  4.015892  0
C  C62  1  0.53511313  0.90033117  0.93135717  1  0  -0.172472  0  3.712914  0  0  -0.204682  0  3.96998  0  0  -0.205986  0  3.986059  0  -0.022379  0  -0.098427  -0.203941  0  3.959977  0
C  C63  1  0.46488654  0.09966852  0.06864346  1  0  -0.172455  0  3.712932  0  0  -0.204659  0  3.97  0  0  -0.205967  0  3.986082  0  -0.022432  0  -0.09842  -0.203919  0  3.959997  0
C  C64  1  0.29672936  0.77000373  0.85265889  1  0  0.643974  0  3.942053  0  0  0.595822  0  4.244317  0  0  0.631003  0  4.233645  0  1.500687  0  0.191315  0.573069  0  4.24378  0
C  C65  1  0.70327131  0.22999596  0.14734123  1  0  0.64399  0  3.942095  0  0  0.595836  0  4.244358  0  0  0.631017  0  4.233684  0  1.500423  0  0.191345  0.573081  0  4.24382  0
C  C66  1  0.38472278  0.42300626  0.79676114  1  0  0.411144  0  3.80993  0  0  0.338067  0  4.101643  0  0  0.366394  0  4.100858  0  1.340854  0  0.185402  0.319083  0  4.098316  0
C  C67  1  0.61527834  0.57699534  0.20323950  1  0  0.41123  0  3.809898  0  0  0.338149  0  4.101611  0  0  0.366475  0  4.100828  0  1.340869  0  0.185436  0.319169  0  4.09828  0
C  C68  1  0.58985598  0.35909517  0.90373054  1  0  -0.169057  0  3.66951  0  0  -0.272272  0  3.920157  0  0  -0.268781  0  3.931395  0  0.256857  0  -0.125425  -0.274414  0  3.912593  0
C  C69  1  0.41014368  0.64090452  0.09626930  1  0  -0.168985  0  3.669504  0  0  -0.2722  0  3.920152  0  0  -0.268709  0  3.931391  0  0.256863  0  -0.125417  -0.274345  0  3.912592  0
C  C70  1  0.36580624  0.20096033  0.79767584  1  0  -0.163833  0  3.633062  0  0  -0.261055  0  3.871343  0  0  -0.25722  0  3.882052  0  0.206746  0  -0.130216  -0.263567  0  3.864337  0
C  C71  1  0.63419365  0.79904032  0.20232505  1  0  -0.163861  0  3.633115  0  0  -0.26113  0  3.871404  0  0  -0.257295  0  3.882113  0  0.206755  0  -0.130285  -0.263642  0  3.864399  0
C  C72  1  0.97869357  0.38127891  0.82437990  1  0  0.413535  0  3.821146  0  0  0.337629  0  4.120598  0  0  0.366548  0  4.11855  0  1.351748  0  0.183936  0.318561  0  4.117381  0
C  C73  1  0.02130633  0.61872174  0.17561942  1  0  0.413606  0  3.821144  0  0  0.337705  0  4.120582  0  0  0.366623  0  4.118535  0  1.351812  0  0.183976  0.318637  0  4.117366  0
C  C74  1  0.87947790  0.19112109  0.85858967  1  0  -0.178154  0  3.660365  0  0  -0.280138  0  3.909988  0  0  -0.277308  0  3.920959  0  0.217617  0  -0.125346  -0.28186  0  3.902905  0
C  C75  1  0.12052177  0.80887860  0.14140938  1  0  -0.178088  0  3.660286  0  0  -0.280067  0  3.909902  0  0  -0.277238  0  3.920872  0  0.217624  0  -0.125329  -0.281788  0  3.90282  0
C  C76  1  0.11330337  0.31689335  0.99091533  1  0  -0.15953  0  3.620133  0  0  -0.259214  0  3.858554  0  0  -0.25579  0  3.868974  0  0.231684  0  -0.124739  -0.261413  0  3.852185  0
C  C77  1  0.88669629  0.68310634  0.00908451  1  0  -0.159483  0  3.620051  0  0  -0.259125  0  3.85848  0  0  -0.2557  0  3.868898  0  0.231691  0  -0.124724  -0.261322  0  3.852112  0
N  N78  1  0.44428889  0.33125142  0.83098298  1  0  -0.089473  0  3.496989  0  0  0.017712  0  3.725867  0  0  -0.002804  0  3.751083  0  -1.185746  0  -0.278749  0.031341  0  3.708917  0
N  N79  1  0.55571100  0.66874922  0.16901791  1  0  -0.089534  0  3.497007  0  0  0.017655  0  3.7259  0  0  -0.002861  0  3.751117  0  -1.185759  0  -0.278736  0.031285  0  3.708949  0
N  N80  1  0.99054906  0.30031223  0.88809665  1  0  -0.080458  0  3.494484  0  0  0.024546  0  3.728906  0  0  0.004451  0  3.75429  0  -1.177036  0  -0.275227  0.037565  0  3.712129  0
N  N81  1  0.00945061  0.69968746  0.11190398  1  0  -0.080561  0  3.49455  0  0  0.024443  0  3.728968  0  0  0.004347  0  3.754349  0  -1.177113  0  -0.275281  0.03746  0  3.712193  0
O  O82  1  0.96908596  0.33255905  0.58622261  1  0  -0.734337  0  2.069759  0  0  -0.692659  0  2.324802  0  0  -0.717129  0  2.312405  0  -1.203678  0  -0.399206  -0.667651  0  2.333783  0
O  O83  1  0.03091247  0.66743968  0.41377669  1  0  -0.734401  0  2.06969  0  0  -0.692722  0  2.324758  0  0  -0.717181  0  2.312348  0  -1.203644  0  -0.399255  -0.667713  0  2.333739  0
O  O84  1  0.91698193  0.27151478  0.39146702  1  0  -0.741717  0  2.082688  0  0  -0.69096  0  2.320943  0  0  -0.716031  0  2.308446  0  -1.19365  0  -0.382641  -0.665145  0  2.329813  0
O  O85  1  0.08301774  0.72848491  0.60853283  1  0  -0.741738  0  2.082667  0  0  -0.690975  0  2.320943  0  0  -0.716049  0  2.308445  0  -1.193665  0  -0.382642  -0.66516  0  2.329812  0
O  O86  1  0.94298133  0.05083005  0.28785482  1  0  -0.516826  0  2.070667  0  0  -0.474999  0  2.276707  0  0  -0.492924  0  2.267504  0  -1.159777  0  -0.365014  -0.462352  0  2.28332  0
O  O87  1  0.05701833  0.94916964  0.71214502  1  0  -0.51683  0  2.07068  0  0  -0.475024  0  2.276698  0  0  -0.492947  0  2.267497  0  -1.159776  0  -0.365029  -0.462377  0  2.283314  0
O  O88  1  0.15377886  0.48585366  0.51235953  1  0  -0.782971  0  2.146168  0  0  -0.742679  0  2.407386  0  0  -0.766345  0  2.394198  0  -1.212531  0  -0.404902  -0.712286  0  2.416144  0
O  O89  1  0.84622203  0.51414699  0.48764164  1  0  -0.782946  0  2.146284  0  0  -0.742634  0  2.407469  0  0  -0.766304  0  2.394287  0  -1.212539  0  -0.404849  -0.712241  0  2.416226  0
O  O90  1  0.12820403  0.42462573  0.32539756  1  0  -0.716099  0  2.00719  0  0  -0.668424  0  2.238674  0  0  -0.691606  0  2.224995  0  -1.18392  0  -0.372806  -0.644854  0  2.248173  0
O  O91  1  0.87179564  0.57537396  0.67460229  1  0  -0.716039  0  2.007191  0  0  -0.668359  0  2.238675  0  0  -0.691541  0  2.224998  0  -1.183925  0  -0.372785  -0.644788  0  2.248172  0
O  O92  1  0.33227645  0.39026777  0.26575056  1  0  -0.524091  0  2.062036  0  0  -0.481453  0  2.266312  0  0  -0.499957  0  2.256843  0  -1.181615  0  -0.367212  -0.4684  0  2.273413  0
O  O93  1  0.66772444  0.60973288  0.73425061  1  0  -0.524049  0  2.062091  0  0  -0.481405  0  2.266362  0  0  -0.499909  0  2.256894  0  -1.181627  0  -0.367157  -0.468354  0  2.273464  0
O  O94  1  0.17278178  0.75698868  0.85091304  1  0  -0.687987  0  1.958259  0  0  -0.642413  0  2.184818  0  0  -0.66425  0  2.172042  0  -1.171726  0  -0.35272  -0.620704  0  2.192416  0
O  O95  1  0.82721766  0.24301005  0.14908654  1  0  -0.688014  0  1.958312  0  0  -0.642445  0  2.184879  0  0  -0.664279  0  2.172102  0  -1.171733  0  -0.352753  -0.620737  0  2.192477  0
O  O96  1  0.33050479  0.67956034  0.79118293  1  0  -0.706062  0  2.013083  0  0  -0.666293  0  2.262441  0  0  -0.690002  0  2.250542  0  -1.191637  0  -0.389144  -0.642508  0  2.269767  0
O  O97  1  0.66949487  0.32043935  0.20881613  1  0  -0.706062  0  2.013116  0  0  -0.666309  0  2.262502  0  0  -0.690014  0  2.250603  0  -1.191631  0  -0.389163  -0.642521  0  2.269825  0
O  O98  1  0.23307601  0.98435504  0.99319894  1  0  -0.513771  0  2.067778  0  0  -0.471425  0  2.270116  0  0  -0.48968  0  2.260851  0  -1.159799  0  -0.361006  -0.458429  0  2.276757  0
O  O99  1  0.76692466  0.01564465  0.00680118  1  0  -0.513761  0  2.067807  0  0  -0.471414  0  2.270149  0  0  -0.489667  0  2.260889  0  -1.15981  0  -0.360984  -0.458418  0  2.276792  0
O  O100  1  0.25979579  0.40583972  0.73521577  1  0  -0.611977  0  2.116022  0  0  -0.571082  0  2.373932  0  0  -0.59374  0  2.367533  0  -1.180704  0  -0.362997  -0.54686  0  2.378948  0
O  O101  1  0.74020511  0.59416093  0.26478462  1  0  -0.611993  0  2.116009  0  0  -0.5711  0  2.373915  0  0  -0.593756  0  2.367516  0  -1.180728  0  -0.362995  -0.546878  0  2.378928  0
O  O102  1  0.06949787  0.47770658  0.84425790  1  0  -0.622397  0  2.055596  0  0  -0.583389  0  2.311594  0  0  -0.605543  0  2.303613  0  -1.18247  0  -0.369199  -0.559679  0  2.317115  0
O  O103  1  0.93050080  0.52229311  0.15574166  1  0  -0.622435  0  2.05554  0  0  -0.583429  0  2.311532  0  0  -0.605583  0  2.303552  0  -1.18247  0  -0.369207  -0.559718  0  2.317053  0
