# generated using pymatgen
data_Zr3H26C24(N3O4)4
_symmetry_space_group_name_H-M   'P 1'
_cell_length_a   14.87508408
_cell_length_b   14.87510430
_cell_length_c   14.87507969
_cell_angle_alpha   60.00002997
_cell_angle_beta   90.00002857
_cell_angle_gamma   120.00001360
_symmetry_Int_Tables_number   1
_chemical_formula_structural   Zr3H26C24(N3O4)4
_chemical_formula_sum   'Zr6 H52 C48 N24 O32'
_cell_volume   2327.36215391
_cell_formula_units_Z   2
loop_
 _symmetry_equiv_pos_site_id
 _symmetry_equiv_pos_as_xyz
  1  'x, y, z'
loop_
 _atom_site_type_symbol
 _atom_site_label
 _atom_site_symmetry_multiplicity
 _atom_site_fract_x
 _atom_site_fract_y
 _atom_site_fract_z
 _atom_site_occupancy
 _atom_site_pbe_bader_charge
 _atom_site_pbe_bader_spin_density
 _atom_site_pbe_cm5_charge
 _atom_site_pbe_ddec_charge
 _atom_site_pbe_ddec_spin_density
 _atom_site_pbe_ddec_sum_bond_order
 _atom_site_pbe_magmom
Zr  Zr0  1  0.11818550  0.00000296  0.11818637  1  2.624368  0  1.637274  2.3569  0  2.794514  0
Zr  Zr1  1  0.88181406  0.00000442  0.88180894  1  2.625443  0  1.63724  2.35693  0  2.794545  0
Zr  Zr2  1  0.88181239  0.76362821  0.11818403  1  2.630142  0  1.636949  2.357088  0  2.794305  0
Zr  Zr3  1  0.11818580  0.23637196  0.88181163  1  2.630204  0  1.636942  2.357048  0  2.794391  0
Zr  Zr4  1  0.11818997  0.00000475  0.88181161  1  2.624375  0  1.637221  2.356957  0  2.79447  0
Zr  Zr5  1  0.88181035  0.99999945  0.11818595  1  2.624513  0  1.637238  2.356977  0  2.794434  0
H  H6  1  0.09339966  0.81320403  0.09339723  1  0.619149  0  0.334002  0.426983  0  0.853096  0
H  H7  1  0.09339899  0.18679961  0.71980130  1  0.610017  0  0.333957  0.426916  0  0.853212  0
H  H8  1  0.71980131  0.81320254  0.09339825  1  0.639435  0  0.333954  0.426931  0  0.853208  0
H  H9  1  0.09339883  0.18679888  0.09339861  1  0.619103  0  0.333965  0.426935  0  0.853112  0
H  H10  1  0.67184899  0.03947746  0.81441491  1  0.476171  0  0.291453  0.294236  0  1.007897  0
H  H11  1  0.58385331  0.06867546  0.75423531  1  0.402272  0  0.289867  0.274339  0  0.981586  0
H  H12  1  0.36762627  0.03947790  0.14610621  1  0.474885  0  0.291458  0.294185  0  1.007956  0
H  H13  1  0.48482114  0.06867611  0.17708877  1  0.398804  0  0.28986  0.274303  0  0.98165  0
H  H14  1  0.32983709  0.96991419  0.85239098  1  0.483475  0  0.291093  0.291559  0  1.014839  0
H  H15  1  0.41188830  0.93253561  0.82444964  1  0.415428  0  0.289992  0.274808  0  0.978426  0
H  H16  1  0.64007358  0.96991047  0.17769576  1  0.487549  0  0.291047  0.291507  0  1.014754  0
H  H17  1  0.52064327  0.93253264  0.24301537  1  0.394395  0  0.289971  0.274824  0  0.978476  0
H  H18  1  0.81441707  0.96052711  0.67184626  1  0.476216  0  0.291466  0.294265  0  1.007823  0
H  H19  1  0.75423632  0.93132693  0.58385158  1  0.402241  0  0.289851  0.274297  0  0.981628  0
H  H20  1  0.14610886  0.96052660  0.36762383  1  0.474484  0  0.291459  0.294202  0  1.00797  0
H  H21  1  0.17709102  0.93133125  0.48481832  1  0.39884  0  0.289894  0.274366  0  0.981663  0
H  H22  1  0.85239232  0.03008940  0.32983541  1  0.483495  0  0.291101  0.291566  0  1.014866  0
H  H23  1  0.82445147  0.06746779  0.41188633  1  0.419766  0  0.289976  0.274817  0  0.978441  0
H  H24  1  0.17769610  0.03009367  0.64007117  1  0.48759  0  0.29105  0.291504  0  1.014827  0
H  H25  1  0.24301722  0.06747303  0.52064082  1  0.394404  0  0.289965  0.274829  0  0.978486  0
H  H26  1  0.67184854  0.81795830  0.36762552  1  0.463267  0  0.291455  0.298535  0  1.001647  0
H  H27  1  0.58385179  0.76094282  0.48482067  1  0.403391  0  0.289864  0.274388  0  0.981585  0
H  H28  1  0.36762693  0.18204443  0.67184774  1  0.463264  0  0.291434  0.298503  0  1.001613  0
H  H29  1  0.48482214  0.23906048  0.58385047  1  0.403523  0  0.289902  0.274441  0  0.981528  0
H  H30  1  0.32983601  0.50753239  0.64007273  1  0.481392  0  0.29101  0.291603  0  1.014759  0
H  H31  1  0.41188644  0.65490347  0.52064332  1  0.422131  0  0.289926  0.274835  0  0.978427  0
H  H32  1  0.64007452  0.49247056  0.32983343  1  0.481349  0  0.291009  0.29158  0  1.014764  0
H  H33  1  0.52064506  0.34509894  0.41188529  1  0.422198  0  0.28993  0.274839  0  0.97844  0
H  H34  1  0.14610706  0.81795739  0.81441428  1  0.481995  0  0.291441  0.294185  0  1.007858  0
H  H35  1  0.17708964  0.76094280  0.75423507  1  0.405271  0  0.289871  0.274333  0  0.981608  0
H  H36  1  0.81441617  0.18204426  0.14610684  1  0.474108  0  0.291401  0.294154  0  1.007733  0
H  H37  1  0.75423649  0.23905962  0.17708817  1  0.404743  0  0.289916  0.274365  0  0.981579  0
H  H38  1  0.17769470  0.50753283  0.85239193  1  0.476914  0  0.291029  0.29162  0  1.014629  0
H  H39  1  0.24301565  0.65490306  0.82445128  1  0.415498  0  0.289936  0.274809  0  0.9785  0
H  H40  1  0.85239260  0.49246993  0.17769312  1  0.477005  0  0.291038  0.291625  0  1.014643  0
H  H41  1  0.82445203  0.34509956  0.24301333  1  0.415532  0  0.289952  0.274815  0  0.978543  0
H  H42  1  0.14610756  0.51373353  0.67184774  1  0.468177  0  0.291407  0.29856  0  1.001621  0
H  H43  1  0.17709008  0.66190998  0.58385341  1  0.408407  0  0.289833  0.274399  0  0.981562  0
H  H44  1  0.81441610  0.48626930  0.36762380  1  0.479106  0  0.291374  0.298471  0  1.001725  0
H  H45  1  0.75423621  0.33809282  0.48481820  1  0.414993  0  0.289822  0.274413  0  0.981671  0
H  H46  1  0.17769668  0.81777213  0.32983536  1  0.482127  0  0.291094  0.291525  0  1.015017  0
H  H47  1  0.24301559  0.76366071  0.41188698  1  0.42017  0  0.289995  0.274858  0  0.978406  0
H  H48  1  0.85239203  0.18223209  0.64007245  1  0.477632  0  0.291076  0.291515  0  1.014947  0
H  H49  1  0.82445054  0.23634220  0.52064206  1  0.419475  0  0.289953  0.274822  0  0.978374  0
H  H50  1  0.64007432  0.81777179  0.85238970  1  0.478116  0  0.291071  0.291982  0  1.015299  0
H  H51  1  0.52064455  0.76366151  0.82444803  1  0.419471  0  0.290002  0.274917  0  0.97829  0
H  H52  1  0.32983654  0.18223306  0.17769397  1  0.482166  0  0.291044  0.291451  0  1.015053  0
H  H53  1  0.41188754  0.23634399  0.24301375  1  0.420214  0  0.289968  0.27486  0  0.978359  0
H  H54  1  0.36762603  0.51373429  0.81441339  1  0.479179  0  0.291382  0.298501  0  1.00172  0
H  H55  1  0.48482045  0.66191057  0.75423278  1  0.414918  0  0.289826  0.274439  0  0.981646  0
H  H56  1  0.67184881  0.48626927  0.14610627  1  0.468203  0  0.291364  0.298457  0  1.001751  0
H  H57  1  0.58385263  0.33809301  0.17708864  1  0.408449  0  0.28987  0.274458  0  0.98153  0
C  C58  1  0.30729458  0.00555917  0.99839078  1  1.46982  0  0.232978  0.661889  0  4.045036  0
C  C59  1  0.99605110  0.99444723  0.69825892  1  1.466617  0  0.233049  0.66204  0  4.04496  0
C  C60  1  0.69826074  0.00555665  0.99604974  1  1.466062  0  0.233035  0.662086  0  4.045026  0
C  C61  1  0.99839279  0.99444534  0.30729266  1  1.469974  0  0.232928  0.66185  0  4.044987  0
C  C62  1  0.99605147  0.69431393  0.30729446  1  1.466265  0  0.232902  0.662027  0  4.045203  0
C  C63  1  0.30729440  0.30568925  0.99604881  1  1.466422  0  0.232983  0.662162  0  4.045028  0
C  C64  1  0.99839330  0.30568829  0.69825929  1  1.473358  0  0.232902  0.661978  0  4.04519  0
C  C65  1  0.69826166  0.69431558  0.99839060  1  1.475791  0  0.232879  0.662133  0  4.044961  0
C  C66  1  0.99839248  0.69665669  0.99604842  1  1.459204  0  0.232961  0.66199  0  4.045056  0
C  C67  1  0.69826013  0.69665649  0.30729247  1  1.46516  0  0.23292  0.662013  0  4.045221  0
C  C68  1  0.99605053  0.30334618  0.99839348  1  1.459343  0  0.232939  0.661896  0  4.04511  0
C  C69  1  0.30729404  0.30334635  0.69825842  1  1.465231  0  0.232972  0.662091  0  4.045061  0
C  C70  1  0.59874647  0.00471241  0.99695211  1  0.008747  0  -0.038521  -0.249685  0  3.93799  0
C  C71  1  0.40596650  0.00471535  0.99833411  1  0.0065  0  -0.038508  -0.249594  0  3.937949  0
C  C72  1  0.55094908  0.00822657  0.91302112  1  0.436176  0  0.079834  0.1755  0  4.038531  0
C  C73  1  0.45727296  0.00822707  0.07875041  1  0.435914  0  0.079818  0.175462  0  4.038659  0
C  C74  1  0.45169889  0.99939938  0.91815582  1  0.418916  0  0.079061  0.174052  0  4.036406  0
C  C75  1  0.54769688  0.99939627  0.08244595  1  0.390758  0  0.079082  0.174043  0  4.036586  0
C  C76  1  0.99695229  0.99529314  0.59874177  1  0.008632  0  -0.038524  -0.249642  0  3.938019  0
C  C77  1  0.99833664  0.99529085  0.40596344  1  0.005868  0  -0.038478  -0.249539  0  3.937858  0
C  C78  1  0.91302375  0.99178010  0.55094662  1  0.438137  0  0.079813  0.1755  0  4.038783  0
C  C79  1  0.07875418  0.99178205  0.45726891  1  0.436095  0  0.079744  0.175374  0  4.03851  0
C  C80  1  0.91815811  0.00060761  0.45169479  1  0.419333  0  0.07905  0.174041  0  4.036448  0
C  C81  1  0.08244858  0.00061052  0.54769406  1  0.390404  0  0.079056  0.174039  0  4.03648  0
C  C82  1  0.59874587  0.59708476  0.40596216  1  0.005498  0  -0.03862  -0.249551  0  3.937694  0
C  C83  1  0.40596442  0.40292010  0.59874187  1  0.000647  0  -0.038614  -0.249589  0  3.937742  0
C  C84  1  0.55095047  0.62970564  0.45727090  1  0.422351  0  0.079791  0.175391  0  4.039344  0
C  C85  1  0.45727259  0.37029921  0.55094686  1  0.427281  0  0.079795  0.175447  0  4.039291  0
C  C86  1  0.45169442  0.53414331  0.54769722  1  0.405601  0  0.079006  0.174109  0  4.036248  0
C  C87  1  0.54769568  0.46585619  0.45169578  1  0.405053  0  0.078946  0.174017  0  4.036237  0
C  C88  1  0.99833575  0.59708436  0.99694995  1  0.038749  0  -0.038664  -0.249633  0  3.937939  0
C  C89  1  0.99695278  0.40291984  0.99833516  1  0.038053  0  -0.038631  -0.249615  0  3.938134  0
C  C90  1  0.07875194  0.62970464  0.91302125  1  0.412847  0  0.07988  0.175477  0  4.038679  0
C  C91  1  0.91302303  0.37029824  0.07875133  1  0.41278  0  0.079844  0.175441  0  4.038703  0
C  C92  1  0.08244678  0.53414370  0.91815707  1  0.398959  0  0.078996  0.173971  0  4.036725  0
C  C93  1  0.91815712  0.46585580  0.08244498  1  0.398697  0  0.078993  0.173931  0  4.036513  0
C  C94  1  0.99833621  0.40430351  0.59874267  1  0.028804  0  -0.038582  -0.249492  0  3.937698  0
C  C95  1  0.99695262  0.59570139  0.40596300  1  -0.018909  0  -0.038646  -0.249581  0  3.93764  0
C  C96  1  0.07875300  0.53602747  0.55094788  1  0.422389  0  0.079761  0.175409  0  4.039368  0
C  C97  1  0.91302362  0.46397672  0.45727070  1  0.432297  0  0.079777  0.175403  0  4.039346  0
C  C98  1  0.08244820  0.63014592  0.45169708  1  0.437757  0  0.079003  0.174028  0  4.03619  0
C  C99  1  0.91815888  0.36985828  0.54769507  1  0.416504  0  0.079104  0.174142  0  4.036273  0
C  C100  1  0.59874567  0.59570136  0.99833310  1  0.029486  0  -0.038597  -0.249498  0  3.937554  0
C  C101  1  0.40596594  0.40430346  0.99694941  1  -0.018269  0  -0.038663  -0.249618  0  3.937747  0
C  C102  1  0.54769819  0.63014771  0.91815379  1  0.415457  0  0.07902  0.174092  0  4.036242  0
C  C103  1  0.45169909  0.36985985  0.08244479  1  0.437385  0  0.079081  0.174085  0  4.036127  0
C  C104  1  0.45727359  0.53602690  0.91301969  1  0.43243  0  0.079834  0.175537  0  4.039338  0
C  C105  1  0.55095059  0.46397798  0.07875065  1  0.422479  0  0.079755  0.175393  0  4.039458  0
N  N106  1  0.59340865  0.01451841  0.82474732  1  -1.196431  0  -0.612532  -0.61427  0  3.339886  0
N  N107  1  0.42110816  0.01451732  0.16073214  1  -1.190846  0  -0.612542  -0.614201  0  3.340177  0
N  N108  1  0.40694874  0.99103328  0.83779400  1  -1.225672  0  -0.612661  -0.614082  0  3.337689  0
N  N109  1  0.58408049  0.99102972  0.17117293  1  -1.208021  0  -0.612605  -0.614082  0  3.337699  0
N  N110  1  0.82474898  0.98548505  0.59340652  1  -1.198221  0  -0.612498  -0.614231  0  3.339936  0
N  N111  1  0.16073588  0.98548896  0.42110409  1  -1.19062  0  -0.612546  -0.614264  0  3.340071  0
N  N112  1  0.83779567  0.00897077  0.40694598  1  -1.229977  0  -0.612652  -0.614105  0  3.337745  0
N  N113  1  0.17117495  0.00897531  0.58407696  1  -1.207737  0  -0.612589  -0.614091  0  3.337659  0
N  N114  1  0.59340748  0.75414367  0.42110725  1  -1.185134  0  -0.61252  -0.61793  0  3.334894  0
N  N115  1  0.42110951  0.24585981  0.59340677  1  -1.185286  0  -0.612564  -0.618008  0  3.334713  0
N  N116  1  0.40694807  0.57812210  0.58408004  1  -1.215897  0  -0.612699  -0.613989  0  3.33762  0
N  N117  1  0.58408164  0.42188078  0.40694537  1  -1.21591  0  -0.612658  -0.613922  0  3.3376  0
N  N118  1  0.16073350  0.75414340  0.82474756  1  -1.200225  0  -0.612538  -0.614206  0  3.340027  0
N  N119  1  0.82474908  0.24585951  0.16073261  1  -1.191742  0  -0.612573  -0.614219  0  3.339779  0
N  N120  1  0.17117207  0.57812122  0.83779685  1  -1.223645  0  -0.612708  -0.613983  0  3.337732  0
N  N121  1  0.83779510  0.42187959  0.17117192  1  -1.223766  0  -0.612751  -0.614014  0  3.337665  0
N  N122  1  0.16073456  0.58184204  0.59340677  1  -1.209662  0  -0.612637  -0.618023  0  3.334768  0
N  N123  1  0.82474987  0.41816148  0.42110601  1  -1.210733  0  -0.612576  -0.61791  0  3.335019  0
N  N124  1  0.17117452  0.75525684  0.40694795  1  -1.232208  0  -0.612647  -0.614158  0  3.337737  0
N  N125  1  0.83779658  0.24474871  0.58407884  1  -1.22216  0  -0.612663  -0.614194  0  3.33762  0
N  N126  1  0.58408117  0.75525609  0.83779283  1  -1.222739  0  -0.612659  -0.614937  0  3.337836  0
N  N127  1  0.40694865  0.24474878  0.17117187  1  -1.232502  0  -0.61263  -0.61416  0  3.337587  0
N  N128  1  0.42110943  0.58184391  0.82474562  1  -1.210728  0  -0.612622  -0.617971  0  3.335022  0
N  N129  1  0.59340849  0.41816232  0.16073233  1  -1.209671  0  -0.612618  -0.617944  0  3.334886  0
O  O130  1  0.26475678  0.00503946  0.07447974  1  -1.187029  0  -0.360784  -0.625486  0  2.310906  0
O  O131  1  0.92048196  0.99496421  0.74027868  1  -1.186908  0  -0.360814  -0.625572  0  2.310977  0
O  O132  1  0.74028121  0.00503911  0.92048186  1  -1.186434  0  -0.360807  -0.625549  0  2.310968  0
O  O133  1  0.07447963  0.99496226  0.26475524  1  -1.187048  0  -0.360793  -0.625537  0  2.311036  0
O  O134  1  0.92048172  0.66076615  0.26475720  1  -1.18715  0  -0.360967  -0.626953  0  2.311845  0
O  O135  1  0.26475742  0.33923676  0.92047959  1  -1.187269  0  -0.360993  -0.626989  0  2.311785  0
O  O136  1  0.07447860  0.33923670  0.74028037  1  -1.195313  0  -0.360969  -0.626954  0  2.311834  0
O  O137  1  0.74028211  0.66076610  0.07447607  1  -1.195286  0  -0.360947  -0.626888  0  2.311748  0
O  O138  1  0.07447981  0.81476132  0.92048036  1  -1.179006  0  -0.360756  -0.625503  0  2.310988  0
O  O139  1  0.74027984  0.81476248  0.26475537  1  -1.182304  0  -0.360824  -0.627007  0  2.31185  0
O  O140  1  0.92048170  0.18523954  0.07448078  1  -1.178989  0  -0.360786  -0.625515  0  2.310986  0
O  O141  1  0.26475736  0.18523969  0.74027921  1  -1.182328  0  -0.360811  -0.626975  0  2.311822  0
O  O142  1  0.74088437  0.66381846  0.26451957  1  -1.196687  0  -0.36015  -0.625513  0  2.321901  0
O  O143  1  0.07166041  0.33618560  0.92292822  1  -1.194569  0  -0.360136  -0.625547  0  2.322031  0
O  O144  1  0.26452123  0.33618438  0.74088274  1  -1.1967  0  -0.360197  -0.625591  0  2.321841  0
O  O145  1  0.92292914  0.66381593  0.07165934  1  -1.194307  0  -0.36018  -0.625629  0  2.322035  0
O  O146  1  0.07166276  0.81254824  0.26452161  1  -1.193685  0  -0.359948  -0.625627  0  2.322079  0
O  O147  1  0.74088514  0.81255139  0.92292654  1  -1.196851  0  -0.359966  -0.625958  0  2.322212  0
O  O148  1  0.92292924  0.18745259  0.74088360  1  -1.194381  0  -0.359982  -0.625619  0  2.32207  0
O  O149  1  0.26452082  0.18745551  0.07166136  1  -1.193707  0  -0.360031  -0.625718  0  2.322096  0
O  O150  1  0.92292831  0.99459074  0.26452180  1  -1.191236  0  -0.359935  -0.625546  0  2.322048  0
O  O151  1  0.26452259  0.00541081  0.92292809  1  -1.191194  0  -0.359969  -0.625595  0  2.32219  0
O  O152  1  0.07166124  0.99459557  0.74088213  1  -1.194347  0  -0.359994  -0.625692  0  2.322123  0
O  O153  1  0.74088428  0.00540926  0.07165994  1  -1.194346  0  -0.360006  -0.625743  0  2.322146  0
O  O154  1  0.06678634  0.13357317  0.06678638  1  -1.244745  0  -0.699668  -1.071667  0  2.386508  0
O  O155  1  0.79964062  0.86642963  0.06678499  1  -1.265501  0  -0.699648  -1.071581  0  2.386486  0
O  O156  1  0.06678619  0.13357435  0.79963925  1  -1.236132  0  -0.69968  -1.071593  0  2.386514  0
O  O157  1  0.06678698  0.86642924  0.06678477  1  -1.244797  0  -0.699677  -1.071724  0  2.386467  0
O  O158  1  0.95079422  0.90159035  0.95079185  1  -1.189295  0  -0.798173  -1.141562  0  2.161814  0
O  O159  1  0.14761787  0.09841320  0.95079284  1  -1.187768  0  -0.79822  -1.141606  0  2.161919  0
O  O160  1  0.95079326  0.09841215  0.95079294  1  -1.189518  0  -0.798221  -1.141644  0  2.161957  0
O  O161  1  0.95079433  0.90159000  0.14761669  1  -1.187851  0  -0.798169  -1.141547  0  2.161808  0
