# generated using pymatgen
data_GdH13C20S(N2O3)2
_symmetry_space_group_name_H-M   'P 1'
_cell_length_a   6.85761998
_cell_length_b   9.96070645
_cell_length_c   15.03684442
_cell_angle_alpha   84.98779133
_cell_angle_beta   79.39848841
_cell_angle_gamma   79.69308322
_symmetry_Int_Tables_number   1
_chemical_formula_structural   GdH13C20S(N2O3)2
_chemical_formula_sum   'Gd2 H26 C40 S2 N8 O12'
_cell_volume   991.71846037
_cell_formula_units_Z   2
loop_
 _symmetry_equiv_pos_site_id
 _symmetry_equiv_pos_as_xyz
  1  'x, y, z'
loop_
 _atom_site_type_symbol
 _atom_site_label
 _atom_site_symmetry_multiplicity
 _atom_site_fract_x
 _atom_site_fract_y
 _atom_site_fract_z
 _atom_site_occupancy
 _atom_site_hle17_bader_spin_density
 _atom_site_hle17_ddec_charge
 _atom_site_hle17_ddec_spin_density
 _atom_site_hle17_ddec_sum_bond_order
 _atom_site_hle17_magmom
 _atom_site_hse06_10hf_bader_spin_density
 _atom_site_hse06_10hf_ddec_charge
 _atom_site_hse06_10hf_ddec_spin_density
 _atom_site_hse06_10hf_ddec_sum_bond_order
 _atom_site_hse06_10hf_magmom
 _atom_site_hse06_bader_spin_density
 _atom_site_hse06_ddec_charge
 _atom_site_hse06_ddec_spin_density
 _atom_site_hse06_ddec_sum_bond_order
 _atom_site_hse06_magmom
 _atom_site_pbe_bader_spin_density
 _atom_site_pbe_cm5_charge
 _atom_site_pbe_ddec_charge
 _atom_site_pbe_ddec_spin_density
 _atom_site_pbe_ddec_sum_bond_order
 _atom_site_pbe_magmom
Gd  Gd0  1  0.43588083  0.04787009  0.11461141  1  0  2.167639  0  1.86944  0  0  2.054238  0  2.265005  0  0  2.111534  0  2.202791  0  0  1.453591  2.010811  0  2.313653  0
Gd  Gd1  1  0.56411842  0.95212995  0.88538797  1  0  2.167676  0  1.869424  0  0  2.054226  0  2.265069  0  0  2.111541  0  2.202824  0  0  1.453601  2.010813  0  2.313701  0
H  H2  1  0.18142771  0.60297446  0.71209865  1  0  0.110349  0  0.941888  0  0  0.120234  0  0.999382  0  0  0.123739  0  0.997799  0  0  0.107984  0.117582  0  1.000719  0
H  H3  1  0.81857545  0.39702769  0.28790157  1  0  0.110403  0  0.941899  0  0  0.12029  0  0.999381  0  0  0.123796  0  0.997798  0  0  0.108006  0.11764  0  1.000716  0
H  H4  1  0.26842654  0.36170231  0.77250477  1  0  0.093243  0  0.971365  0  0  0.100897  0  1.037864  0  0  0.104288  0  1.035683  0  0  0.103164  0.098187  0  1.039922  0
H  H5  1  0.73157663  0.63829986  0.22749612  1  0  0.09322  0  0.971383  0  0  0.100853  0  1.037902  0  0  0.104268  0  1.035693  0  0  0.103172  0.098147  0  1.039961  0
H  H6  1  0.27028784  0.50440421  0.03337688  1  0  0.093209  0  0.969359  0  0  0.105151  0  1.028292  0  0  0.108112  0  1.026965  0  0  0.10461  0.103008  0  1.02936  0
H  H7  1  0.72971356  0.49559896  0.96662410  1  0  0.093188  0  0.969395  0  0  0.105125  0  1.028317  0  0  0.108077  0  1.027009  0  0  0.104581  0.10298  0  1.029381  0
H  H8  1  0.19374527  0.74548957  0.97380367  1  0  0.121098  0  0.944652  0  0  0.130339  0  1.003018  0  0  0.134823  0  0.999677  0  0  0.116491  0.126837  0  1.005789  0
H  H9  1  0.80625611  0.25451359  0.02619599  1  0  0.121079  0  0.944671  0  0  0.130354  0  1.00301  0  0  0.134842  0  0.999662  0  0  0.116472  0.126848  0  1.005782  0
H  H10  1  0.42081689  0.75889266  0.25023917  1  0  0.071772  0  0.980547  0  0  0.077549  0  1.051552  0  0  0.080484  0  1.048611  0  0  0.116116  0.075488  0  1.053591  0
H  H11  1  0.57918410  0.24110637  0.74975946  1  0  0.071814  0  0.980578  0  0  0.077587  0  1.051585  0  0  0.080496  0  1.048671  0  0  0.116114  0.075535  0  1.053607  0
H  H12  1  0.37145675  0.66215249  0.41094453  1  0  0.104489  0  0.944289  0  0  0.119763  0  0.994789  0  0  0.122449  0  0.994418  0  0  0.110911  0.117937  0  0.994911  0
H  H13  1  0.62854424  0.33784654  0.58905410  1  0  0.104507  0  0.944218  0  0  0.119786  0  0.994717  0  0  0.122473  0  0.994344  0  0  0.110923  0.117955  0  0.994839  0
H  H14  1  0.27431336  0.82393395  0.53679796  1  0  0.114566  0  0.931097  0  0  0.128758  0  0.985514  0  0  0.131948  0  0.983193  0  0  0.114313  0.126327  0  0.987321  0
H  H15  1  0.72568319  0.17606502  0.46320106  1  0  0.114509  0  0.931146  0  0  0.128726  0  0.985552  0  0  0.131932  0  0.983214  0  0  0.114303  0.126295  0  0.987365  0
H  H16  1  0.09975809  0.24542458  0.70066951  1  0  0.081238  0  0.92987  0  0  0.095546  0  0.984842  0  0  0.097434  0  0.98274  0  0  0.134529  0.093845  0  0.986902  0
H  H17  1  0.90023698  0.75457437  0.29932964  1  0  0.08123  0  0.929871  0  0  0.09556  0  0.98482  0  0  0.09745  0  0.98272  0  0  0.13454  0.093863  0  0.986884  0
H  H18  1  0.15572399  0.51001377  0.41273958  1  0  0.106688  0  0.967119  0  0  0.1102  0  1.039577  0  0  0.114383  0  1.035401  0  0  0.105824  0.107136  0  1.042569  0
H  H19  1  0.84427760  0.48998325  0.58726178  1  0  0.106718  0  0.967085  0  0  0.110224  0  1.039553  0  0  0.114408  0  1.035377  0  0  0.105859  0.107163  0  1.042542  0
H  H20  1  0.22951554  0.57606079  0.24534645  1  0  0.096525  0  0.947483  0  0  0.108957  0  1.003033  0  0  0.1115  0  1.003288  0  0  0.106767  0.107115  0  1.002985  0
H  H21  1  0.77048551  0.42393828  0.75465549  1  0  0.096462  0  0.947549  0  0  0.108922  0  1.003067  0  0  0.111465  0  1.003321  0  0  0.106747  0.10708  0  1.003012  0
H  H22  1  0.33621936  0.38916112  0.13639515  1  0  0.071691  0  0.989302  0  0  0.077375  0  1.060101  0  0  0.080387  0  1.057216  0  0  0.114516  0.075094  0  1.062375  0
H  H23  1  0.66377963  0.61083996  0.86360552  1  0  0.071684  0  0.98933  0  0  0.077368  0  1.060119  0  0  0.08038  0  1.057232  0  0  0.114515  0.075088  0  1.06239  0
H  H24  1  0.17206880  0.00613438  0.64140418  1  0  0.314465  0  0.933766  0  0  0.29413  0  0.995359  0  0  0.302669  0  0.988536  0  0  0.310602  0.288141  0  1.000149  0
H  H25  1  0.82792981  0.99386258  0.35859612  1  0  0.314523  0  0.933604  0  0  0.294057  0  0.995416  0  0  0.302593  0  0.988595  0  0  0.310547  0.288066  0  1.000206  0
H  H26  1  0.18286382  0.99098395  0.00453784  1  0  0.421537  0  0.862648  0  0  0.406693  0  0.899798  0  0  0.415388  0  0.887069  0  0  0.299683  0.40039  0  0.909064  0
H  H27  1  0.81713515  0.00901711  0.99546149  1  0  0.421526  0  0.862671  0  0  0.406686  0  0.899815  0  0  0.415382  0  0.887084  0  0  0.299669  0.400382  0  0.909082  0
C  C28  1  0.18073400  0.68703762  0.83967063  1  0  -0.11418  0  3.72855  0  0  -0.090484  0  3.977733  0  0  -0.096188  0  3.998767  0  0  -0.008552  -0.086401  0  3.96351  0
C  C29  1  0.81926915  0.31296453  0.16032960  1  0  -0.114267  0  3.728533  0  0  -0.090449  0  3.977562  0  0  -0.096151  0  3.998594  0  0  -0.008511  -0.086361  0  3.963326  0
C  C30  1  0.20103461  0.58053946  0.78238053  1  0  -0.067857  0  3.759026  0  0  -0.092624  0  4.009477  0  0  -0.093076  0  4.030227  0  0  -0.083328  -0.092361  0  3.995612  0
C  C31  1  0.79896827  0.41946372  0.21761965  1  0  -0.0679  0  3.759028  0  0  -0.092707  0  4.00946  0  0  -0.093163  0  4.030217  0  0  -0.083329  -0.092445  0  3.995598  0
C  C32  1  0.24925722  0.44626745  0.81629460  1  0  -0.073373  0  3.733827  0  0  -0.09474  0  3.981777  0  0  -0.096318  0  4.002386  0  0  -0.084089  -0.09341  0  3.968107  0
C  C33  1  0.75074593  0.55373470  0.18370563  1  0  -0.073333  0  3.733822  0  0  -0.094676  0  3.981793  0  0  -0.096274  0  4.002395  0  0  -0.084155  -0.093354  0  3.968144  0
C  C34  1  0.27604474  0.41772968  0.90659319  1  0  -0.064638  0  3.729987  0  0  -0.041418  0  3.957549  0  0  -0.047169  0  3.979301  0  0  -0.013177  -0.037531  0  3.942822  0
C  C35  1  0.72395724  0.58227146  0.09340854  1  0  -0.064751  0  3.730012  0  0  -0.041537  0  3.957608  0  0  -0.047289  0  3.979368  0  0  -0.013182  -0.037667  0  3.942903  0
C  C36  1  0.25111996  0.52646893  0.96315803  1  0  -0.055366  0  3.718557  0  0  -0.079076  0  3.969256  0  0  -0.080767  0  3.990379  0  0  -0.075766  -0.077972  0  3.954964  0
C  C37  1  0.74888320  0.47353323  0.03684220  1  0  -0.055336  0  3.718594  0  0  -0.07903  0  3.969321  0  0  -0.080724  0  3.990445  0  0  -0.075744  -0.077925  0  3.955027  0
C  C38  1  0.20493141  0.66118534  0.93033543  1  0  -0.05773  0  3.706017  0  0  -0.08406  0  3.962192  0  0  -0.084232  0  3.980449  0  0  -0.072482  -0.083642  0  3.949918  0
C  C39  1  0.79507202  0.33881580  0.06966484  1  0  -0.057673  0  3.705994  0  0  -0.084074  0  3.962135  0  0  -0.084245  0  3.980385  0  0  -0.07249  -0.083652  0  3.949848  0
C  C40  1  0.33681092  0.27241375  0.94131504  1  0  0.702866  0  3.854528  0  0  0.657019  0  4.144855  0  0  0.692354  0  4.134583  0  0  0.232485  0.632681  0  4.151469  0
C  C41  1  0.66319046  0.72758940  0.05868461  1  0  0.703067  0  3.854177  0  0  0.657166  0  4.144593  0  0  0.692499  0  4.134323  0  0  0.232568  0.632851  0  4.151189  0
C  C42  1  0.37812086  0.82579605  0.30668329  1  0  0.126027  0  3.734877  0  0  0.093057  0  4.004579  0  0  0.100182  0  4.02041  0  0  0.048291  0.088501  0  3.993131  0
C  C43  1  0.62188071  0.17420095  0.69331674  1  0  0.125877  0  3.735024  0  0  0.092909  0  4.004728  0  0  0.100055  0  4.020574  0  0  0.048245  0.088349  0  3.99326  0
C  C44  1  0.35029453  0.77230427  0.39676503  1  0  -0.107486  0  3.742448  0  0  -0.121738  0  4.000004  0  0  -0.127278  0  4.020464  0  0  -0.082798  -0.118251  0  3.985818  0
C  C45  1  0.64970552  0.22769269  0.60323314  1  0  -0.107528  0  3.742419  0  0  -0.121775  0  4.000011  0  0  -0.127319  0  4.020474  0  0  -0.082854  -0.118286  0  3.985819  0
C  C46  1  0.29836353  0.86143419  0.46593218  1  0  -0.032285  0  3.670688  0  0  -0.064143  0  3.92885  0  0  -0.060387  0  3.943948  0  0  -0.065734  -0.06594  0  3.91844  0
C  C47  1  0.70163478  0.13856378  0.53406675  1  0  -0.03213  0  3.670781  0  0  -0.064033  0  3.92898  0  0  -0.060292  0  3.944078  0  0  -0.065685  -0.065837  0  3.918573  0
C  C48  1  0.27643789  0.00319696  0.44345378  1  0  -0.027197  0  3.780489  0  0  -0.015625  0  4.024477  0  0  -0.017773  0  4.045798  0  0  0.000409  -0.014727  0  4.010428  0
C  C49  1  0.72356072  0.99680001  0.55654652  1  0  -0.027292  0  3.780619  0  0  -0.015699  0  4.024601  0  0  -0.017848  0  4.04593  0  0  0.000408  -0.014797  0  4.01055  0
C  C50  1  0.22250522  0.10584441  0.50788003  1  0  0.093037  0  3.814626  0  0  0.073337  0  4.07216  0  0  0.075562  0  4.09661  0  0  0.08883  0.072098  0  4.055785  0
C  C51  1  0.77749105  0.89415558  0.49211895  1  0  0.093008  0  3.814624  0  0  0.073261  0  4.072202  0  0  0.075483  0  4.096649  0  0  0.088788  0.072007  0  4.055837  0
C  C52  1  0.13845803  0.22566301  0.62914011  1  0  0.228546  0  3.709763  0  0  0.172253  0  3.99711  0  0  0.184249  0  4.011456  0  0  0.145363  0.164658  0  3.986985  0
C  C53  1  0.86153853  0.77433597  0.37085957  1  0  0.228549  0  3.709721  0  0  0.172241  0  3.997052  0  0  0.184232  0  4.011396  0  0  0.145365  0.164639  0  3.986935  0
C  C54  1  0.20257061  0.24609181  0.48418058  1  0  0.088012  0  3.849852  0  0  0.083576  0  4.106236  0  0  0.084443  0  4.130882  0  0  0.081619  0.082737  0  4.089599  0
C  C55  1  0.79742827  0.75390412  0.51581910  1  0  0.088045  0  3.849707  0  0  0.083622  0  4.106102  0  0  0.084491  0  4.130747  0  0  0.08165  0.082788  0  4.089467  0
C  C56  1  0.23574966  0.29414026  0.39104663  1  0  -0.015264  0  3.759686  0  0  -0.002416  0  3.987937  0  0  -0.004966  0  4.010615  0  0  0.003651  -0.000181  0  3.971836  0
C  C57  1  0.76424960  0.70585979  0.60895341  1  0  -0.015188  0  3.759652  0  0  -0.002318  0  3.987902  0  0  -0.004871  0  4.010581  0  0  0.003679  -8.5e-05  0  3.971804  0
C  C58  1  0.21098765  0.43363800  0.36244629  1  0  -0.036808  0  3.686071  0  0  -0.062254  0  3.934995  0  0  -0.05907  0  3.950553  0  0  -0.065795  -0.063727  0  3.923596  0
C  C59  1  0.78901339  0.56636106  0.63755499  1  0  -0.036871  0  3.686041  0  0  -0.062326  0  3.934988  0  0  -0.05914  0  3.950547  0  0  -0.065833  -0.063796  0  3.923578  0
C  C60  1  0.24786508  0.46951496  0.27079362  1  0  -0.119603  0  3.75314  0  0  -0.130495  0  4.006872  0  0  -0.137849  0  4.03009  0  0  -0.08635  -0.126464  0  3.991484  0
C  C61  1  0.75213716  0.53048515  0.72920749  1  0  -0.119538  0  3.753104  0  0  -0.130453  0  4.006823  0  0  -0.137808  0  4.030042  0  0  -0.086329  -0.126424  0  3.99143  0
C  C62  1  0.30702911  0.36586661  0.20921911  1  0  0.140155  0  3.730567  0  0  0.107535  0  3.996953  0  0  0.114088  0  4.015089  0  0  0.051504  0.103445  0  3.984961  0
C  C63  1  0.69296962  0.63413550  0.79078218  1  0  0.140156  0  3.730546  0  0  0.107547  0  3.99692  0  0  0.114101  0  4.015054  0  0  0.05149  0.10346  0  3.984929  0
C  C64  1  0.29280733  0.19494169  0.32409429  1  0  0.150465  0  3.722013  0  0  0.140919  0  3.973439  0  0  0.146099  0  3.992693  0  0  0.121372  0.137651  0  3.960232  0
C  C65  1  0.70719276  0.80505529  0.67590588  1  0  0.150465  0  3.721999  0  0  0.140863  0  3.973463  0  0  0.146046  0  3.992713  0  0  0.121404  0.137593  0  3.960266  0
C  C66  1  0.31134766  0.04939522  0.35014706  1  0  0.154234  0  3.711846  0  0  0.143035  0  3.965861  0  0  0.148252  0  3.984872  0  0  0.123468  0.13918  0  3.95333  0
C  C67  1  0.68865213  0.95060277  0.64985174  1  0  0.15426  0  3.71194  0  0  0.143126  0  3.965868  0  0  0.148341  0  3.984884  0  0  0.123484  0.139277  0  3.953333  0
S  S68  1  0.12658151  0.85915297  0.79739950  1  0  1.390806  0  5.551709  0  0  1.293466  0  6.071762  0  0  1.342857  0  6.044083  0  0  0.551228  1.25877  0  6.090196  0
S  S69  1  0.87341895  0.14084812  0.20260037  1  0  1.390929  0  5.55174  0  0  1.293562  0  6.07176  0  0  1.342952  0  6.044077  0  0  0.551291  1.258877  0  6.090179  0
N  N70  1  0.36086308  0.95923670  0.28359228  1  0  -0.405646  0  3.228886  0  0  -0.363024  0  3.500991  0  0  -0.376979  0  3.517408  0  0  -0.36478  -0.352821  0  3.48966  0
N  N71  1  0.63913644  0.04076231  0.71640714  1  0  -0.405524  0  3.229014  0  0  -0.362901  0  3.501073  0  0  -0.376858  0  3.517488  0  0  -0.364713  -0.352705  0  3.489741  0
N  N72  1  0.32765929  0.23313557  0.23432813  1  0  -0.421257  0  3.253301  0  0  -0.378544  0  3.526498  0  0  -0.393254  0  3.544251  0  0  -0.36899  -0.368789  0  3.514686  0
N  N73  1  0.67234024  0.76686346  0.76567195  1  0  -0.421293  0  3.253351  0  0  -0.378566  0  3.526556  0  0  -0.39328  0  3.544308  0  0  -0.369022  -0.36882  0  3.51476  0
N  N74  1  0.15029417  0.32003711  0.56097037  1  0  -0.412415  0  2.980359  0  0  -0.38258  0  3.255748  0  0  -0.396319  0  3.27064  0  0  -0.345895  -0.37311  0  3.245277  0
N  N75  1  0.84969999  0.67995979  0.43902967  1  0  -0.412489  0  2.980369  0  0  -0.382664  0  3.255775  0  0  -0.3964  0  3.270664  0  0  -0.345936  -0.373188  0  3.245303  0
N  N76  1  0.18117797  0.09544523  0.60084891  1  0  -0.330448  0  3.410022  0  0  -0.268186  0  3.648533  0  0  -0.285872  0  3.665246  0  0  -0.377713  -0.256319  0  3.636956  0
N  N77  1  0.81881890  0.90455275  0.39915215  1  0  -0.330451  0  3.410028  0  0  -0.268059  0  3.648542  0  0  -0.285766  0  3.665315  0  0  -0.377669  -0.256182  0  3.636957  0
O  O78  1  0.27894838  0.93141797  0.81938744  1  0  -0.756967  0  2.099097  0  0  -0.711331  0  2.37429  0  0  -0.734384  0  2.358511  0  0  -0.39768  -0.693746  0  2.385396  0
O  O79  1  0.72105303  0.06858520  0.18061354  1  0  -0.757003  0  2.099165  0  0  -0.711375  0  2.374357  0  0  -0.734425  0  2.358576  0  0  -0.397696  -0.693795  0  2.385461  0
O  O80  1  0.13672493  0.85441027  0.69933741  1  0  -0.657232  0  1.957662  0  0  -0.608922  0  2.200253  0  0  -0.628787  0  2.187028  0  0  -0.328732  -0.594939  0  2.209116  0
O  O81  1  0.86327582  0.14558980  0.30066317  1  0  -0.657308  0  1.957591  0  0  -0.608966  0  2.2002  0  0  -0.62883  0  2.18698  0  0  -0.328763  -0.59499  0  2.209063  0
O  O82  1  0.92714795  0.91731702  0.84565322  1  0  -0.753454  0  2.095851  0  0  -0.705744  0  2.368105  0  0  -0.729201  0  2.351867  0  0  -0.388082  -0.688417  0  2.378966  0
O  O83  1  0.07284839  0.08268302  0.15434908  1  0  -0.753459  0  2.095906  0  0  -0.70576  0  2.368167  0  0  -0.729213  0  2.351929  0  0  -0.388104  -0.688437  0  2.379024  0
O  O84  1  0.39077317  0.18237028  0.88247741  1  0  -0.708315  0  2.039833  0  0  -0.660606  0  2.283246  0  0  -0.686536  0  2.272136  0  0  -0.378034  -0.641984  0  2.291565  0
O  O85  1  0.60922527  0.81763284  0.11752317  1  0  -0.708372  0  2.039773  0  0  -0.660642  0  2.283203  0  0  -0.686572  0  2.272102  0  0  -0.378058  -0.642025  0  2.291521  0
O  O86  1  0.33134719  0.25003697  0.02629507  1  0  -0.69552  0  2.037438  0  0  -0.650443  0  2.288705  0  0  -0.677276  0  2.279864  0  0  -0.374386  -0.631874  0  2.294713  0
O  O87  1  0.66865471  0.74996411  0.97370268  1  0  -0.695605  0  2.037266  0  0  -0.650488  0  2.288552  0  0  -0.677321  0  2.279711  0  0  -0.374401  -0.631926  0  2.294558  0
O  O88  1  0.31675508  0.94357414  0.01068136  1  0  -1.129604  0  1.775715  0  0  -1.085569  0  1.981218  0  0  -1.113528  0  1.955299  0  0  -0.784965  -1.065006  0  2.000149  0
O  O89  1  0.68324416  0.05642590  0.98931802  1  0  -1.129596  0  1.775731  0  0  -1.085569  0  1.981233  0  0  -1.113527  0  1.955309  0  0  -0.784941  -1.065003  0  2.000161  0
