# generated using pymatgen
data_AgH12C12S2N5O3
_symmetry_space_group_name_H-M   'P 1'
_cell_length_a   8.94325356
_cell_length_b   8.90502670
_cell_length_c   10.23877405
_cell_angle_alpha   83.15226549
_cell_angle_beta   79.00489821
_cell_angle_gamma   72.09654318
_symmetry_Int_Tables_number   1
_chemical_formula_structural   AgH12C12S2N5O3
_chemical_formula_sum   'Ag2 H24 C24 S4 N10 O6'
_cell_volume   760.08140063
_cell_formula_units_Z   2
loop_
 _symmetry_equiv_pos_site_id
 _symmetry_equiv_pos_as_xyz
  1  'x, y, z'
loop_
 _atom_site_type_symbol
 _atom_site_label
 _atom_site_symmetry_multiplicity
 _atom_site_fract_x
 _atom_site_fract_y
 _atom_site_fract_z
 _atom_site_occupancy
 _atom_site_hle17_bader_spin_density
 _atom_site_hle17_ddec_charge
 _atom_site_hle17_ddec_spin_density
 _atom_site_hle17_ddec_sum_bond_order
 _atom_site_hle17_magmom
 _atom_site_hse06_10hf_bader_spin_density
 _atom_site_hse06_10hf_ddec_charge
 _atom_site_hse06_10hf_ddec_spin_density
 _atom_site_hse06_10hf_ddec_sum_bond_order
 _atom_site_hse06_10hf_magmom
 _atom_site_hse06_bader_spin_density
 _atom_site_hse06_ddec_charge
 _atom_site_hse06_ddec_spin_density
 _atom_site_hse06_ddec_sum_bond_order
 _atom_site_hse06_magmom
 _atom_site_pbe_bader_spin_density
 _atom_site_pbe_cm5_charge
 _atom_site_pbe_ddec_charge
 _atom_site_pbe_ddec_spin_density
 _atom_site_pbe_ddec_sum_bond_order
 _atom_site_pbe_magmom
Ag  Ag0  1  0.59382488  0.55769790  0.65751425  1  0  0.470961  0  1.551416  0  0  0.334317  0  2.016375  0  0  0.359695  0  1.971894  0  0  0.445007  0.317663  0  2.046628  0
Ag  Ag1  1  0.40618212  0.44230052  0.34248579  1  0  0.470909  0  1.551462  0  0  0.334287  0  2.016406  0  0  0.359656  0  1.971934  0  0  0.444993  0.317633  0  2.046649  0
H  H2  1  0.52854134  0.93420894  0.79389555  1  0  0.079747  0  0.961961  0  0  0.085061  0  1.033324  0  0  0.088289  0  1.0286  0  0  0.116312  0.0825  0  1.037036  0
H  H3  1  0.47144641  0.06579298  0.20610614  1  0  0.079807  0  0.961897  0  0  0.085097  0  1.033303  0  0  0.088337  0  1.028572  0  0  0.116295  0.082533  0  1.037014  0
H  H4  1  0.26776711  0.00104406  0.70663376  1  0  0.11861  0  0.943796  0  0  0.13145  0  0.998308  0  0  0.134312  0  0.998918  0  0  0.112422  0.129336  0  0.998217  0
H  H5  1  0.73221905  0.99897089  0.29336774  1  0  0.118603  0  0.943751  0  0  0.131417  0  0.998304  0  0  0.134278  0  0.998915  0  0  0.112387  0.129299  0  0.998216  0
H  H6  1  0.22675142  0.21135969  0.51489226  1  0  0.093634  0  0.943348  0  0  0.103873  0  1.003422  0  0  0.105871  0  1.001287  0  0  0.122646  0.102308  0  1.005014  0
H  H7  1  0.77324757  0.78865051  0.48510482  1  0  0.093592  0  0.943331  0  0  0.10383  0  1.003406  0  0  0.105827  0  1.001273  0  0  0.122635  0.102275  0  1.00498  0
H  H8  1  0.95077431  0.30220915  0.55791428  1  0  0.117847  0  0.940227  0  0  0.132313  0  1.001483  0  0  0.133991  0  0.999789  0  0  0.102571  0.130992  0  1.002849  0
H  H9  1  0.04922217  0.69779760  0.44209236  1  0  0.117729  0  0.940258  0  0  0.132261  0  1.001424  0  0  0.133939  0  0.99973  0  0  0.10254  0.130928  0  1.002815  0
H  H10  1  0.85567189  0.17258698  0.66311310  1  0  0.09535  0  0.981221  0  0  0.101413  0  1.058312  0  0  0.103518  0  1.057267  0  0  0.096149  0.099795  0  1.059286  0
H  H11  1  0.14432754  0.82741381  0.33688982  1  0  0.095297  0  0.981264  0  0  0.101349  0  1.058376  0  0  0.103454  0  1.057331  0  0  0.09614  0.099733  0  1.059351  0
H  H12  1  0.03356397  0.10462004  0.37298376  1  0  0.095499  0  0.969027  0  0  0.102191  0  1.037755  0  0  0.105211  0  1.036622  0  0  0.095198  0.09988  0  1.038936  0
H  H13  1  0.96643449  0.89538787  0.62701951  1  0  0.095514  0  0.968989  0  0  0.102165  0  1.037769  0  0  0.105182  0  1.036638  0  0  0.095199  0.099854  0  1.038954  0
H  H14  1  0.25608254  0.51260444  0.74917690  1  0  0.071514  0  0.991724  0  0  0.072165  0  1.073792  0  0  0.075478  0  1.06872  0  0  0.105929  0.069722  0  1.077388  0
H  H15  1  0.74392030  0.48739275  0.25082099  1  0  0.071512  0  0.991728  0  0  0.072158  0  1.073792  0  0  0.075473  0  1.068723  0  0  0.105919  0.069714  0  1.077392  0
H  H16  1  0.12548439  0.33846404  0.90930716  1  0  0.127901  0  0.938452  0  0  0.138175  0  0.995442  0  0  0.141859  0  0.994635  0  0  0.111928  0.13551  0  0.996252  0
H  H17  1  0.87451991  0.66152839  0.09068809  1  0  0.127901  0  0.938491  0  0  0.138182  0  0.995481  0  0  0.141869  0  0.99467  0  0  0.111916  0.135516  0  0.996292  0
H  H18  1  0.28821631  0.16010749  0.07678509  1  0  0.078271  0  0.94353  0  0  0.08567  0  1.010097  0  0  0.088823  0  1.005328  0  0  0.116846  0.083308  0  1.013611  0
H  H19  1  0.71178429  0.83989328  0.92321570  1  0  0.078267  0  0.943533  0  0  0.08566  0  1.010106  0  0  0.088817  0  1.005329  0  0  0.116843  0.0833  0  1.013619  0
H  H20  1  0.87101172  0.23919179  0.09650182  1  0  0.119593  0  0.957041  0  0  0.135253  0  1.01551  0  0  0.136729  0  1.01457  0  0  0.103719  0.134102  0  1.016347  0
H  H21  1  0.12899552  0.76078651  0.90350037  1  0  0.119612  0  0.957106  0  0  0.135258  0  1.01557  0  0  0.136731  0  1.01463  0  0  0.103698  0.134107  0  1.016404  0
H  H22  1  0.70420872  0.16782673  0.09528304  1  0  0.102702  0  0.970894  0  0  0.111918  0  1.043915  0  0  0.114132  0  1.041697  0  0  0.102673  0.110298  0  1.045517  0
H  H23  1  0.29579502  0.83215979  0.90471392  1  0  0.102823  0  0.97083  0  0  0.112033  0  1.043833  0  0  0.114249  0  1.041612  0  0  0.102728  0.110411  0  1.04544  0
H  H24  1  0.88242082  0.97156500  0.92067656  1  0  0.091109  0  0.956969  0  0  0.103217  0  1.018018  0  0  0.105891  0  1.016814  0  0  0.097539  0.10119  0  1.019202  0
H  H25  1  0.11757590  0.02842620  0.07931708  1  0  0.091199  0  0.956844  0  0  0.103288  0  1.01791  0  0  0.105988  0  1.016672  0  0  0.097561  0.101259  0  1.019094  0
C  C26  1  0.57837564  0.20788951  0.56378172  1  0  0.323549  0  3.82025  0  0  0.304405  0  4.098192  0  0  0.320946  0  4.113601  0  0  0.23506  0.293218  0  4.087727  0
C  C27  1  0.42162451  0.79210891  0.43622037  1  0  0.323599  0  3.820172  0  0  0.304412  0  4.098152  0  0  0.320952  0  4.113561  0  0  0.235071  0.293245  0  4.087675  0
C  C28  1  0.50110078  0.02494975  0.71332571  1  0  0.1937  0  3.664653  0  0  0.161353  0  3.928257  0  0  0.17284  0  3.941042  0  0  0.06791  0.153861  0  3.919801  0
C  C29  1  0.49889118  0.97505336  0.28667519  1  0  0.19364  0  3.664684  0  0  0.161286  0  3.928279  0  0  0.172771  0  3.94105  0  0  0.067912  0.153798  0  3.919816  0
C  C30  1  0.35724746  0.06106069  0.66562963  1  0  -0.182889  0  3.702311  0  0  -0.195725  0  3.953771  0  0  -0.206768  0  3.974918  0  0  -0.088623  -0.188966  0  3.940053  0
C  C31  1  0.64274537  0.93894716  0.33437063  1  0  -0.182902  0  3.702273  0  0  -0.195737  0  3.953708  0  0  -0.20678  0  3.97486  0  0  -0.088625  -0.188972  0  3.939984  0
C  C32  1  0.33326742  0.17628724  0.56127354  1  0  0.201185  0  3.648746  0  0  0.167204  0  3.894164  0  0  0.178881  0  3.909388  0  0  0.067792  0.159564  0  3.883969  0
C  C33  1  0.66672918  0.82371943  0.43872625  1  0  0.201241  0  3.648736  0  0  0.167294  0  3.894068  0  0  0.178972  0  3.909292  0  0  0.067829  0.159657  0  3.883884  0
C  C34  1  0.89187122  0.21015054  0.55898065  1  0  -0.135127  0  3.665932  0  0  -0.172043  0  3.912749  0  0  -0.170454  0  3.923349  0  0  -0.148495  -0.173015  0  3.90565  0
C  C35  1  0.10812827  0.78985383  0.44102382  1  0  -0.135024  0  3.665964  0  0  -0.171984  0  3.912798  0  0  -0.170397  0  3.923407  0  0  -0.148464  -0.172955  0  3.905692  0
C  C36  1  0.98666143  0.07565631  0.47639948  1  0  -0.073818  0  3.724601  0  0  -0.088196  0  3.984698  0  0  -0.092085  0  4.008812  0  0  -0.107362  -0.085285  0  3.96799  0
C  C37  1  0.01333886  0.92434923  0.52360377  1  0  -0.0737  0  3.724523  0  0  -0.088061  0  3.984628  0  0  -0.091949  0  4.008748  0  0  -0.107278  -0.085144  0  3.967914  0
C  C38  1  0.55108495  0.32702391  0.91207488  1  0  0.338332  0  3.812458  0  0  0.316312  0  4.09714  0  0  0.334966  0  4.110086  0  0  0.235818  0.303651  0  4.088248  0
C  C39  1  0.44891492  0.67297925  0.08792771  1  0  0.338269  0  3.812517  0  0  0.316314  0  4.097122  0  0  0.334971  0  4.110055  0  0  0.235821  0.303655  0  4.088226  0
C  C40  1  0.32076171  0.43070704  0.82120734  1  0  0.184071  0  3.690262  0  0  0.147667  0  3.946088  0  0  0.159767  0  3.960992  0  0  0.055996  0.139861  0  3.935869  0
C  C41  1  0.67924076  0.56929135  0.17879145  1  0  0.18405  0  3.690303  0  0  0.147659  0  3.946141  0  0  0.159749  0  3.961049  0  0  0.055988  0.13985  0  3.935923  0
C  C42  1  0.24783557  0.33436699  0.91069012  1  0  -0.184118  0  3.720937  0  0  -0.199378  0  3.978141  0  0  -0.210989  0  3.999224  0  0  -0.091794  -0.192102  0  3.964246  0
C  C43  1  0.75216691  0.66563140  0.08930868  1  0  -0.184091  0  3.720986  0  0  -0.199372  0  3.978198  0  0  -0.210988  0  3.999289  0  0  -0.09175  -0.192096  0  3.964298  0
C  C44  1  0.33823662  0.23613726  0.00109277  1  0  0.193375  0  3.704359  0  0  0.157248  0  3.972528  0  0  0.169053  0  3.986021  0  0  0.065254  0.149548  0  3.96331  0
C  C45  1  0.66176435  0.76386232  0.99890711  1  0  0.193358  0  3.704402  0  0  0.157239  0  3.972585  0  0  0.169044  0  3.986082  0  0  0.065245  0.149545  0  3.963363  0
C  C46  1  0.81557807  0.18382215  0.03667629  1  0  -0.151219  0  3.675473  0  0  -0.186914  0  3.926347  0  0  -0.185359  0  3.936568  0  0  -0.14936  -0.187874  0  3.91932  0
C  C47  1  0.18442601  0.81616321  0.96332172  1  0  -0.151286  0  3.675634  0  0  -0.186959  0  3.926474  0  0  -0.185407  0  3.936711  0  0  -0.14935  -0.187914  0  3.919445  0
C  C48  1  0.92623391  0.03213590  0.98537076  1  0  -0.077213  0  3.737011  0  0  -0.090165  0  3.992185  0  0  -0.093527  0  4.016343  0  0  -0.104306  -0.087794  0  3.97572  0
C  C49  1  0.07376316  0.96785411  0.01462296  1  0  -0.077613  0  3.736988  0  0  -0.090591  0  3.9922  0  0  -0.093969  0  4.016337  0  0  -0.104435  -0.08822  0  3.97574  0
S  S50  1  0.70984901  0.31848923  0.49262371  1  0  -0.010348  0  2.582682  0  0  0.002551  0  2.991154  0  0  -0.003122  0  2.979241  0  0  0.03244  0.005943  0  2.999976  0
S  S51  1  0.29015158  0.68151155  0.50737806  1  0  -0.01037  0  2.582649  0  0  0.002532  0  2.991136  0  0  -0.003142  0  2.97923  0  0  0.032419  0.005919  0  2.999956  0
S  S52  1  0.74733266  0.33059472  0.90324553  1  0  0.017459  0  2.354804  0  0  0.021307  0  2.701667  0  0  0.013351  0  2.700792  0  0  0.045138  0.027014  0  2.702317  0
S  S53  1  0.25266970  0.66940375  0.09676012  1  0  0.017555  0  2.35482  0  0  0.02139  0  2.701627  0  0  0.013424  0  2.700769  0  0  0.04516  0.027103  0  2.702263  0
N  N54  1  0.44416846  0.24921559  0.50892411  1  0  -0.387621  0  3.280314  0  0  -0.308052  0  3.556094  0  0  -0.330141  0  3.569947  0  0  -0.341073  -0.293405  0  3.546784  0
N  N55  1  0.55583479  0.75078400  0.49107541  1  0  -0.387653  0  3.280255  0  0  -0.308061  0  3.556001  0  0  -0.330151  0  3.569854  0  0  -0.34107  -0.293438  0  3.54671  0
N  N56  1  0.61197933  0.09889675  0.66355318  1  0  -0.356099  0  3.031747  0  0  -0.317129  0  3.300054  0  0  -0.333594  0  3.314744  0  0  -0.310137  -0.306185  0  3.290158  0
N  N57  1  0.38801742  0.90110165  0.33644847  1  0  -0.356089  0  3.031783  0  0  -0.31709  0  3.30007  0  0  -0.333555  0  3.314766  0  0  -0.310136  -0.30615  0  3.29017  0
N  N58  1  0.47194926  0.42857220  0.82095208  1  0  -0.397778  0  3.292223  0  0  -0.317477  0  3.577856  0  0  -0.340241  0  3.590785  0  0  -0.349365  -0.30206  0  3.568585  0
N  N59  1  0.52805208  0.57142979  0.17905139  1  0  -0.397688  0  3.292196  0  0  -0.317435  0  3.577849  0  0  -0.340179  0  3.590744  0  0  -0.349335  -0.302019  0  3.568588  0
N  N60  1  0.48934957  0.23171411  0.00190114  1  0  -0.388397  0  3.08214  0  0  -0.343106  0  3.350617  0  0  -0.361151  0  3.363444  0  0  -0.317759  -0.330935  0  3.341898  0
N  N61  1  0.51064880  0.76829025  0.99810254  1  0  -0.388382  0  3.082196  0  0  -0.343122  0  3.350665  0  0  -0.361168  0  3.363488  0  0  -0.317791  -0.330956  0  3.341948  0
N  N62  1  0.92468927  0.61191029  0.72687908  1  0  0.6886  0  4.160913  0  0  0.718635  0  4.45753  0  0  0.747122  0  4.464198  0  0  0.092223  0.699385  0  4.452408  0
N  N63  1  0.07531637  0.38808922  0.27311324  1  0  0.688572  0  4.161139  0  0  0.718694  0  4.457624  0  0  0.747184  0  4.464284  0  0  0.092172  0.699443  0  4.452507  0
O  O64  1  0.78250635  0.68201388  0.70421542  1  0  -0.502524  0  1.850255  0  0  -0.479826  0  2.115806  0  0  -0.498165  0  2.104963  0  0  -0.218424  -0.466612  0  2.12284  0
O  O65  1  0.21749566  0.31798215  0.29578469  1  0  -0.502561  0  1.850398  0  0  -0.479903  0  2.115925  0  0  -0.498243  0  2.10508  0  0  -0.218445  -0.466687  0  2.122955  0
O  O66  1  0.00277769  0.48160164  0.67837382  1  0  -0.472601  0  1.734227  0  0  -0.465128  0  1.951383  0  0  -0.47887  0  1.945213  0  0  -0.200613  -0.455183  0  1.955333  0
O  O67  1  0.99723010  0.51840251  0.32160984  1  0  -0.472627  0  1.734252  0  0  -0.46516  0  1.951343  0  0  -0.478894  0  1.945164  0  0  -0.200578  -0.455225  0  1.955311  0
O  O68  1  0.98445850  0.67811774  0.79770509  1  0  -0.483206  0  1.763978  0  0  -0.470466  0  1.985222  0  0  -0.486161  0  1.980011  0  0  -0.199262  -0.459143  0  1.988684  0
O  O69  1  0.01554747  0.32188060  0.20228828  1  0  -0.483117  0  1.764052  0  0  -0.470426  0  1.985272  0  0  -0.486143  0  1.980086  0  0  -0.199215  -0.459093  0  1.988717  0
