# generated using pymatgen
data_MgH13C17N2O5
_symmetry_space_group_name_H-M   'P 1'
_cell_length_a   12.51468214
_cell_length_b   12.51395309
_cell_length_c   13.60742585
_cell_angle_alpha   114.37640553
_cell_angle_beta   116.38434455
_cell_angle_gamma   93.89886538
_symmetry_Int_Tables_number   1
_chemical_formula_structural   MgH13C17N2O5
_chemical_formula_sum   'Mg4 H52 C68 N8 O20'
_cell_volume   1654.27207947
_cell_formula_units_Z   4
loop_
 _symmetry_equiv_pos_site_id
 _symmetry_equiv_pos_as_xyz
  1  'x, y, z'
loop_
 _atom_site_type_symbol
 _atom_site_label
 _atom_site_symmetry_multiplicity
 _atom_site_fract_x
 _atom_site_fract_y
 _atom_site_fract_z
 _atom_site_occupancy
 _atom_site_pbe_bader_charge
 _atom_site_pbe_bader_spin_density
 _atom_site_pbe_cm5_charge
 _atom_site_pbe_ddec_charge
 _atom_site_pbe_ddec_spin_density
 _atom_site_pbe_ddec_sum_bond_order
 _atom_site_pbe_magmom
Mg  Mg0  1  0.05913523  0.80922961  0.24992331  1  1.695994  0  0.831281  1.390472  0  1.435441  0
Mg  Mg1  1  0.94086350  0.19077013  0.75007674  1  1.69598  0  0.831275  1.39046  0  1.43547  0
Mg  Mg2  1  0.99999936  0.50000009  0.00000044  1  1.6963  0  0.79904  1.35878  0  1.405839  0
Mg  Mg3  1  0.00000051  0.99999975  0.50000024  1  1.697961  0  0.799532  1.359111  0  1.406184  0
H  H4  1  0.84571960  0.45763115  0.13624425  1  0.179115  0  0.139668  0.133809  0  0.997959  0
H  H5  1  0.82134726  0.70964392  0.36386523  1  0.164892  0  0.139395  0.133819  0  0.998478  0
H  H6  1  0.15427840  0.54236964  0.86375508  1  0.179086  0  0.139659  0.133801  0  0.997965  0
H  H7  1  0.17865413  0.29035605  0.63613655  1  0.164879  0  0.139413  0.133844  0  0.998436  0
H  H8  1  0.14461443  0.98464827  0.10740196  1  0.12944  0  0.108393  0.111811  0  1.0124  0
H  H9  1  0.37721241  0.03722312  0.39258544  1  0.088024  0  0.108245  0.110913  0  1.012985  0
H  H10  1  0.85538549  0.01535203  0.89259837  1  0.129447  0  0.108387  0.111784  0  1.012407  0
H  H11  1  0.62278705  0.96277735  0.60741535  1  0.088036  0  0.108236  0.110896  0  1.013  0
H  H12  1  0.77298164  0.71225832  0.01661029  1  0.184386  0  0.145591  0.144338  0  0.983083  0
H  H13  1  0.19553777  0.75641835  0.48330273  1  0.182566  0  0.145621  0.144173  0  0.983282  0
H  H14  1  0.22701763  0.28774159  0.98338847  1  0.184397  0  0.145573  0.144354  0  0.98308  0
H  H15  1  0.80446252  0.24358142  0.51669796  1  0.182561  0  0.145601  0.144169  0  0.983301  0
H  H16  1  0.14750025  0.10451823  0.99948305  1  0.081566  0  0.101517  0.099569  0  1.023954  0
H  H17  1  0.60498358  0.14798280  0.50046123  1  0.067782  0  0.101382  0.099817  0  1.023969  0
H  H18  1  0.85249967  0.89548207  0.00051727  1  0.081584  0  0.101514  0.099586  0  1.023939  0
H  H19  1  0.39501561  0.85201676  0.49953836  1  0.067768  0  0.101389  0.099816  0  1.024042  0
H  H20  1  0.62599443  0.39029576  0.08619164  1  0.135829  0  0.116917  0.134743  0  1.015206  0
H  H21  1  0.80408056  0.53991125  0.41383953  1  0.131322  0  0.116525  0.13325  0  1.017515  0
H  H22  1  0.37400394  0.60970450  0.91380806  1  0.135959  0  0.116929  0.13477  0  1.015186  0
H  H23  1  0.19592009  0.46008799  0.58616152  1  0.131326  0  0.11654  0.133276  0  1.0175  0
H  H24  1  0.02439433  0.64655030  0.76685293  1  0.084251  0  0.096525  0.09491  0  1.030348  0
H  H25  1  0.37960093  0.25785063  0.73303620  1  0.074577  0  0.096387  0.09482  0  1.029561  0
H  H26  1  0.97560403  0.35344996  0.23314677  1  0.084247  0  0.096534  0.094947  0  1.030327  0
H  H27  1  0.62039890  0.74214931  0.26696496  1  0.074562  0  0.096405  0.094856  0  1.029529  0
H  H28  1  0.54934994  0.65660611  0.95556988  1  0.14508  0  0.114225  0.130154  0  1.033426  0
H  H29  1  0.20101732  0.59393083  0.54445324  1  0.142742  0  0.114245  0.130597  0  1.032755  0
H  H30  1  0.45064823  0.34339360  0.04442778  1  0.145078  0  0.114192  0.13012  0  1.033475  0
H  H31  1  0.79898268  0.40606802  0.45554624  1  0.142756  0  0.114229  0.130587  0  1.032738  0
H  H32  1  0.03270719  0.76726667  0.66052387  1  0.057465  0  0.090796  0.081254  0  1.08932  0
H  H33  1  0.60665360  0.37228344  0.83935207  1  0.129057  0  0.09047  0.080762  0  1.089168  0
H  H34  1  0.96729310  0.23273310  0.33947681  1  0.057458  0  0.090803  0.081255  0  1.089278  0
H  H35  1  0.39334751  0.62771741  0.16064853  1  0.129079  0  0.090474  0.08078  0  1.089167  0
H  H36  1  0.60074195  0.94712950  0.26335570  1  0.08205  0  0.101686  0.100881  0  1.017681  0
H  H37  1  0.18359129  0.33760582  0.23662886  1  0.096396  0  0.101562  0.100653  0  1.018306  0
H  H38  1  0.39926024  0.05286990  0.73664228  1  0.08204  0  0.10169  0.100892  0  1.017652  0
H  H39  1  0.81640974  0.66239647  0.76337258  1  0.096252  0  0.101553  0.100643  0  1.018313  0
H  H40  1  0.65731763  0.99328581  0.12232264  1  0.117003  0  0.11985  0.139112  0  0.954754  0
H  H41  1  0.37103760  0.53502855  0.37764053  1  0.09602  0  0.119922  0.138871  0  0.953987  0
H  H42  1  0.34268366  0.00671575  0.87767629  1  0.11703  0  0.119858  0.139092  0  0.954775  0
H  H43  1  0.62896498  0.46497198  0.62236153  1  0.096023  0  0.119913  0.138838  0  0.953985  0
H  H44  1  0.73602603  0.11336135  0.27868705  1  0.120981  0  0.114553  0.12823  0  0.999269  0
H  H45  1  0.33453871  0.45729140  0.22120975  1  0.13541  0  0.1145  0.127833  0  0.998854  0
H  H46  1  0.26397406  0.88663965  0.72131161  1  0.120926  0  0.114556  0.128244  0  0.999257  0
H  H47  1  0.66546223  0.54271054  0.77879252  1  0.135396  0  0.11451  0.127826  0  0.998811  0
H  H48  1  0.39399729  0.04867280  0.13643698  1  0.07583  0  0.089403  0.127159  0  1.048125  0
H  H49  1  0.41184336  0.25752184  0.36344953  1  0.075273  0  0.089035  0.126012  0  1.047965  0
H  H50  1  0.60600390  0.95132661  0.86356277  1  0.075821  0  0.089399  0.12717  0  1.04813  0
H  H51  1  0.58815664  0.74247702  0.63654995  1  0.075287  0  0.089025  0.125988  0  1.047994  0
H  H52  1  0.38407936  0.94555088  0.20067125  1  0.075276  0  0.099705  0.1482  0  1.010865  0
H  H53  1  0.24447980  0.18345988  0.29928122  1  0.085143  0  0.099775  0.147531  0  1.010987  0
H  H54  1  0.61592274  0.05444817  0.79932756  1  0.075275  0  0.099701  0.148214  0  1.010881  0
H  H55  1  0.75552185  0.81653936  0.70071806  1  0.085107  0  0.099765  0.147526  0  1.010984  0
C  C56  1  0.08171353  0.01284569  0.75465996  1  1.610334  0  0.225697  0.62461  0  4.191074  0
C  C57  1  0.75819694  0.32686979  0.74531002  1  1.599978  0  0.225711  0.624912  0  4.189602  0
C  C58  1  0.91828712  0.98715355  0.24534109  1  1.610702  0  0.225692  0.624619  0  4.191017  0
C  C59  1  0.24180143  0.67313048  0.25468967  1  1.599921  0  0.225702  0.6249  0  4.189554  0
C  C60  1  0.07170447  0.73955575  0.00770059  1  1.589602  0  0.221767  0.614932  0  4.199182  0
C  C61  1  0.23177262  0.06399393  0.49210576  1  1.610575  0  0.223779  0.618188  0  4.194853  0
C  C62  1  0.92829701  0.26044457  0.99230037  1  1.589553  0  0.221742  0.614872  0  4.199234  0
C  C63  1  0.76822657  0.93600563  0.50789383  1  1.610614  0  0.223767  0.61821  0  4.194836  0
C  C64  1  0.08495467  0.80900932  0.94406155  1  -0.062645  0  -0.017048  -0.038173  0  3.952299  0
C  C65  1  0.36481219  0.14107251  0.55579068  1  -0.10783  0  -0.017687  -0.039526  0  3.953852  0
C  C66  1  0.91504635  0.19099118  0.05593987  1  -0.062585  0  -0.017062  -0.0382  0  3.952319  0
C  C67  1  0.63518764  0.85892743  0.44421048  1  -0.107807  0  -0.01767  -0.039495  0  3.953867  0
C  C68  1  0.56544506  0.51851024  0.01709913  1  -0.007751  0  0.010514  0.085914  0  3.981456  0
C  C69  1  0.00139162  0.54840752  0.48293470  1  -0.005771  0  0.01046  0.086095  0  3.980487  0
C  C70  1  0.43455266  0.48148965  0.98289900  1  0.028283  0  0.010523  0.085853  0  3.981407  0
C  C71  1  0.99860855  0.45159024  0.51706311  1  -0.03497  0  0.010406  0.086116  0  3.980476  0
C  C72  1  0.77437711  0.49833367  0.09939119  1  0.378824  0  0.054817  -0.021917  0  3.839228  0
C  C73  1  0.89889231  0.67514441  0.40069886  1  0.397119  0  0.055165  -0.021599  0  3.835327  0
C  C74  1  0.22562171  0.50166643  0.90060804  1  0.378817  0  0.054823  -0.021886  0  3.83923  0
C  C75  1  0.10110843  0.32485517  0.59930136  1  0.397123  0  0.055148  -0.021602  0  3.835357  0
C  C76  1  0.65210005  0.46308761  0.06929846  1  -0.045715  0  -0.068787  -0.144734  0  3.927728  0
C  C77  1  0.89377989  0.58289984  0.43074448  1  0.023008  0  -0.068363  -0.143125  0  3.927311  0
C  C78  1  0.34789841  0.53691301  0.93070040  1  -0.045876  0  -0.06879  -0.144759  0  3.927709  0
C  C79  1  0.10622003  0.41709867  0.56925583  1  0.022979  0  -0.068354  -0.143177  0  3.927314  0
C  C80  1  0.09146281  0.94256088  0.82335946  1  0.004458  0  -0.018257  -0.043275  0  3.964114  0
C  C81  1  0.61915299  0.26816404  0.67656171  1  -0.055214  0  -0.018065  -0.044172  0  3.966141  0
C  C82  1  0.90853895  0.05744036  0.17664270  1  0.004098  0  -0.018216  -0.04326  0  3.964155  0
C  C83  1  0.38084619  0.73183552  0.32343789  1  -0.055232  0  -0.01808  -0.044201  0  3.966212  0
C  C84  1  0.12401577  0.00445451  0.94991753  1  -0.110084  0  -0.083071  -0.092434  0  3.97621  0
C  C85  1  0.55446911  0.17418443  0.54999081  1  -0.000185  0  -0.082586  -0.092112  0  3.974654  0
C  C86  1  0.87598452  0.99554526  0.05008315  1  -0.11036  0  -0.083074  -0.092485  0  3.97624  0
C  C87  1  0.44552926  0.82581584  0.45000889  1  -0.000169  0  -0.082599  -0.092113  0  3.974601  0
C  C88  1  0.05867806  0.81366805  0.75882586  1  -0.024439  0  -0.093607  -0.099802  0  3.991468  0
C  C89  1  0.55471885  0.30002392  0.74100957  1  -0.11888  0  -0.093522  -0.099307  0  3.994964  0
C  C90  1  0.94132341  0.18633227  0.24117510  1  -0.02446  0  -0.093636  -0.099817  0  3.991464  0
C  C91  1  0.44528025  0.69997529  0.25899085  1  -0.118894  0  -0.093538  -0.099344  0  3.995026  0
C  C92  1  0.05451254  0.74709773  0.81812774  1  -0.077615  0  -0.090332  -0.102416  0  3.990058  0
C  C93  1  0.42880452  0.23668135  0.68169920  1  -0.003344  0  -0.089843  -0.101972  0  3.992331  0
C  C94  1  0.94548849  0.25290277  0.18187369  1  -0.077618  0  -0.090302  -0.102398  0  3.990029  0
C  C95  1  0.57119577  0.76331842  0.31830149  1  -0.003294  0  -0.089867  -0.102014  0  3.992232  0
C  C96  1  0.12167465  0.93815774  0.00983061  1  -0.010324  0  -0.079754  -0.087103  0  3.971143  0
C  C97  1  0.42826505  0.11197651  0.49010182  1  -0.027259  0  -0.080087  -0.086292  0  3.969493  0
C  C98  1  0.87832646  0.06184311  0.99016998  1  -0.010029  0  -0.079753  -0.087043  0  3.971122  0
C  C99  1  0.57173569  0.88802487  0.50989841  1  -0.027326  0  -0.080089  -0.086284  0  3.969456  0
C  C100  1  0.73213488  0.64162802  0.02745514  1  0.340628  0  0.060761  -0.002312  0  3.814382  0
C  C101  1  0.11407196  0.70477261  0.47251294  1  0.380983  0  0.060311  -0.002579  0  3.815416  0
C  C102  1  0.26786329  0.35837169  0.97254252  1  0.34063  0  0.060818  -0.002261  0  3.814475  0
C  C103  1  0.88592869  0.29522663  0.52748811  1  0.380939  0  0.060268  -0.002669  0  3.815418  0
C  C104  1  0.60932967  0.60916592  0.99653540  1  0.083269  0  -0.068547  -0.143009  0  3.921019  0
C  C105  1  0.11259383  0.61291983  0.50350937  1  -0.005245  0  -0.068116  -0.143389  0  3.920751  0
C  C106  1  0.39066814  0.39083253  0.00346188  1  0.083329  0  -0.068566  -0.143018  0  3.9211  0
C  C107  1  0.88740626  0.38707758  0.49648927  1  -0.004976  0  -0.068079  -0.143371  0  3.92076  0
C  C108  1  0.55749214  0.99897333  0.21699207  1  -0.008531  0  -0.09467  -0.012053  0  3.991786  0
C  C109  1  0.28174612  0.34056036  0.28295290  1  -0.096943  0  -0.094442  -0.01331  0  3.991146  0
C  C110  1  0.44250914  0.00102643  0.78300685  1  -0.008528  0  -0.094717  -0.012138  0  3.991747  0
C  C111  1  0.71825535  0.65943996  0.71704805  1  -0.097038  0  -0.094437  -0.013321  0  3.99115  0
C  C112  1  0.64192083  0.06305491  0.19301033  1  0.038187  0  -0.127072  -0.207533  0  4.022458  0
C  C113  1  0.36992776  0.44884993  0.30688617  1  0.047889  0  -0.126754  -0.2058  0  4.021355  0
C  C114  1  0.35808036  0.93694629  0.80698943  1  0.038257  0  -0.127081  -0.207502  0  4.022406  0
C  C115  1  0.63007371  0.55115039  0.69311479  1  0.047873  0  -0.126724  -0.205673  0  4.021212  0
C  C116  1  0.43989279  0.99845813  0.18360489  1  -0.161867  0  -0.183138  -0.32227  0  3.887738  0
C  C117  1  0.31446296  0.25629150  0.31630020  1  -0.096458  0  -0.1832  -0.319824  0  3.884784  0
C  C118  1  0.56010886  0.00154110  0.81639439  1  -0.161896  0  -0.183105  -0.322261  0  3.887718  0
C  C119  1  0.68553787  0.74370844  0.68369919  1  -0.096206  0  -0.183188  -0.319812  0  3.884805  0
C  C120  1  0.59619287  0.14740023  0.14835948  1  0.867004  0  0.198584  0.332378  0  3.949671  0
C  C121  1  0.49886763  0.44765032  0.35141809  1  0.861199  0  0.197927  0.331305  0  3.950249  0
C  C122  1  0.40380714  0.85260042  0.85164002  1  0.866979  0  0.198608  0.332408  0  3.949868  0
C  C123  1  0.50113410  0.55234926  0.64858036  1  0.86086  0  0.197932  0.331323  0  3.950092  0
N  N124  1  0.81343558  0.58788161  0.08005996  1  -0.66903  0  -0.105272  0.347721  0  3.939158  0
N  N125  1  0.00774864  0.73350984  0.41996856  1  -0.651518  0  -0.106328  0.34605  0  3.940682  0
N  N126  1  0.18656324  0.41211848  0.91993927  1  -0.669044  0  -0.105234  0.347733  0  3.939214  0
N  N127  1  0.99225274  0.26649013  0.58003322  1  -0.651433  0  -0.106313  0.346125  0  3.940684  0
N  N128  1  0.55991694  0.21488367  0.11221415  1  -1.212126  0  -0.316352  -0.420091  0  2.816795  0
N  N129  1  0.60254069  0.44766903  0.38760943  1  -1.210117  0  -0.316074  -0.419568  0  2.815663  0
N  N130  1  0.44008254  0.78511860  0.88778665  1  -1.212077  0  -0.316363  -0.420114  0  2.817014  0
N  N131  1  0.39745850  0.55233233  0.61239017  1  -1.209745  0  -0.316089  -0.419627  0  2.815528  0
O  O132  1  0.93180620  0.62192642  0.11198814  1  -0.732618  0  -0.255197  -0.599483  0  2.138564  0
O  O133  1  0.00986099  0.81994958  0.38802648  1  -0.733893  0  -0.254259  -0.598363  0  2.141005  0
O  O134  1  0.06819291  0.37807458  0.88801229  1  -0.732639  0  -0.25522  -0.599492  0  2.138552  0
O  O135  1  0.99014040  0.18005039  0.61197530  1  -0.733923  0  -0.25425  -0.598397  0  2.141079  0
O  O136  1  0.10379264  0.80346871  0.12234046  1  -1.242128  0  -0.353989  -0.643875  0  2.282648  0
O  O137  1  0.18111549  0.98143685  0.37747751  1  -1.240671  0  -0.354811  -0.645605  0  2.283059  0
O  O138  1  0.89620729  0.19653159  0.87765986  1  -1.242089  0  -0.353999  -0.64386  0  2.282666  0
O  O139  1  0.81888517  0.01856418  0.62252356  1  -1.240691  0  -0.354815  -0.645622  0  2.283032  0
O  O140  1  0.06664661  0.95711956  0.64530713  1  -1.237628  0  -0.345872  -0.635476  0  2.264028  0
O  O141  1  0.81188503  0.42108466  0.85472749  1  -1.238154  0  -0.346626  -0.63624  0  2.262325  0
O  O142  1  0.93335441  0.04288094  0.35469429  1  -1.23766  0  -0.345878  -0.635469  0  2.263945  0
O  O143  1  0.18811333  0.57891381  0.14527219  1  -1.238121  0  -0.34663  -0.636264  0  2.262289  0
O  O144  1  0.08623504  0.12508469  0.81116240  1  -1.252243  0  -0.367692  -0.680518  0  2.323749  0
O  O145  1  0.81387108  0.27477379  0.68880297  1  -1.24506  0  -0.367358  -0.679734  0  2.324255  0
O  O146  1  0.91376470  0.87491490  0.18883959  1  -1.25222  0  -0.36768  -0.680508  0  2.323762  0
O  O147  1  0.18612737  0.72522503  0.31119589  1  -1.245035  0  -0.367338  -0.67969  0  2.324286  0
O  O148  1  0.02725986  0.62218689  0.94152781  1  -1.239072  0  -0.357317  -0.657507  0  2.25966  0
O  O149  1  0.18056047  0.08562559  0.55825583  1  -1.236849  0  -0.35785  -0.658223  0  2.25785  0
O  O150  1  0.97274125  0.37781396  0.05847279  1  -1.239088  0  -0.3573  -0.657489  0  2.259713  0
O  O151  1  0.81943899  0.91437488  0.44174497  1  -1.236867  0  -0.357811  -0.658224  0  2.257889  0
