# generated using pymatgen
data_CoH10C14(N3O2)2
_symmetry_space_group_name_H-M   'P 1'
_cell_length_a   9.10598348
_cell_length_b   9.33842802
_cell_length_c   9.33842272
_cell_angle_alpha   81.14710219
_cell_angle_beta   75.76002755
_cell_angle_gamma   75.76018323
_symmetry_Int_Tables_number   1
_chemical_formula_structural   CoH10C14(N3O2)2
_chemical_formula_sum   'Co2 H20 C28 N12 O8'
_cell_volume   742.35418274
_cell_formula_units_Z   2
loop_
 _symmetry_equiv_pos_site_id
 _symmetry_equiv_pos_as_xyz
  1  'x, y, z'
loop_
 _atom_site_type_symbol
 _atom_site_label
 _atom_site_symmetry_multiplicity
 _atom_site_fract_x
 _atom_site_fract_y
 _atom_site_fract_z
 _atom_site_occupancy
 _atom_site_pbe_cm5_charge
 _atom_site_pbe_ddec_charge
 _atom_site_pbe_ddec_spin_density
 _atom_site_pbe_ddec_sum_bond_order
 _atom_site_pbe_magmom
Co  Co0  1  0.73722848  0.95807621  0.70390184  1  0.641889  0.634781  1.028671  2.934764  0.965
Co  Co1  1  0.23722821  0.70390081  0.95808319  1  0.641863  0.634785  1.02868  2.934799  0.965
H  H2  1  0.37128456  0.02912543  0.62323054  1  0.108733  0.12226  -0.000124  1.019188  0.0
H  H3  1  0.87129294  0.62323225  0.02912506  1  0.108742  0.12235  -0.000124  1.019082  0.0
H  H4  1  0.60269756  0.47489015  0.78725613  1  0.321951  0.27595  7.2e-05  1.006957  0.0
H  H5  1  0.10269139  0.78726447  0.47490807  1  0.321849  0.275758  7.2e-05  1.007274  0.0
H  H6  1  0.87805246  0.88223205  0.18491436  1  0.321821  0.2765  0.000131  1.004873  0.0
H  H7  1  0.37805300  0.18491017  0.88223049  1  0.321806  0.276475  0.000131  1.00486  0.0
H  H8  1  0.08432035  0.30619992  0.23869764  1  0.097057  0.095206  -5e-05  1.028636  0.0
H  H9  1  0.58432787  0.23871340  0.30620512  1  0.097051  0.09513  -4.9e-05  1.028698  0.0
H  H10  1  0.58621244  0.93431048  0.08492014  1  0.106411  0.129223  -0.000155  1.041013  0.0
H  H11  1  0.08621386  0.08492350  0.93429123  1  0.106386  0.129233  -0.000155  1.040995  0.0
H  H12  1  0.97854813  0.09874653  0.39885182  1  0.109553  0.11369  -0.000146  1.045371  0.0
H  H13  1  0.47852859  0.39886193  0.09875821  1  0.109526  0.11366  -0.000146  1.045497  0.0
H  H14  1  0.79211046  0.62698730  0.53583471  1  0.107208  0.127891  -9.8e-05  1.025417  0.0
H  H15  1  0.29209928  0.53582264  0.62700498  1  0.107195  0.127843  -9.8e-05  1.025369  0.0
H  H16  1  0.19697113  0.04046768  0.45492470  1  0.098534  0.097813  -1e-05  1.043208  0.0
H  H17  1  0.69697601  0.45492967  0.04045422  1  0.098582  0.097855  -1e-05  1.043181  0.0
H  H18  1  0.29889158  0.99518330  0.19048230  1  0.100977  0.102324  -8.2e-05  1.018992  0.0
H  H19  1  0.79889406  0.19048917  0.99516151  1  0.100956  0.102245  -8.2e-05  1.019067  0.0
H  H20  1  0.98779455  0.56508564  0.30087386  1  0.099165  0.095019  -5.9e-05  1.033732  0.0
H  H21  1  0.48779691  0.30088227  0.56509414  1  0.099209  0.095046  -5.9e-05  1.033695  0.0
C  C22  1  0.41803909  0.00503971  0.50873041  1  -0.086768  -0.139603  0.000401  3.965442  0.001
C  C23  1  0.91804616  0.50873251  0.00502563  1  -0.086764  -0.139704  0.000401  3.965285  0.001
C  C24  1  0.43726272  0.89836626  0.86745380  1  0.215924  0.454633  -0.004668  4.176574  -0.002
C  C25  1  0.93726674  0.86744308  0.89836776  1  0.215874  0.454504  -0.004673  4.176303  -0.002
C  C26  1  0.55147647  0.75266445  0.82534742  1  0.213031  0.462922  -0.004366  4.167256  -0.002
C  C27  1  0.05147831  0.82535163  0.75266970  1  0.21305  0.462873  -0.004371  4.166856  -0.002
C  C28  1  0.99650261  0.32887126  0.33994051  1  -0.092348  -0.076889  -0.002299  4.00479  -0.001
C  C29  1  0.49650583  0.33994515  0.32888144  1  -0.09236  -0.076808  -0.002299  4.00442  -0.001
C  C30  1  0.53803683  0.95077086  0.20139620  1  -0.095783  -0.162808  -0.00148  3.954829  -0.001
C  C31  1  0.03803801  0.20140036  0.95075283  1  -0.095787  -0.162913  -0.00148  3.954795  -0.001
C  C32  1  0.82930271  0.24719933  0.55887291  1  0.095482  0.112659  -0.002412  4.02311  -0.002
C  C33  1  0.32928688  0.55887147  0.24721375  1  0.09545  0.112623  -0.002411  4.022948  -0.002
C  C34  1  0.94072254  0.21217594  0.42857872  1  -0.08917  -0.150197  0.000515  3.977836  0.001
C  C35  1  0.44071013  0.42858894  0.21218274  1  -0.089089  -0.1501  0.000515  3.977733  0.001
C  C36  1  0.83277925  0.51400806  0.50468906  1  -0.090855  -0.153907  -0.001778  3.951403  -0.001
C  C37  1  0.33276216  0.50468597  0.51402348  1  -0.090832  -0.153753  -0.001778  3.9513  -0.001
C  C38  1  0.77768461  0.39554560  0.59536589  1  0.109693  0.136842  0.000216  4.02336  0.001
C  C39  1  0.27766659  0.59536010  0.39557016  1  0.10958  0.136722  0.000216  4.023024  0.001
C  C40  1  0.63567892  0.94082004  0.29920204  1  0.108409  0.129273  -2e-06  4.033867  0.0
C  C41  1  0.13568058  0.29920422  0.94080659  1  0.108407  0.129246  -2e-06  4.034011  0.0
C  C42  1  0.32179252  0.01252639  0.41260450  1  -0.090787  -0.077355  -0.001907  3.996935  -0.001
C  C43  1  0.82179698  0.41260857  0.01250720  1  -0.09076  -0.077317  -0.001907  3.996706  -0.001
C  C44  1  0.38009064  0.98718509  0.26136048  1  -0.089466  -0.06814  0.000382  3.991111  0.001
C  C45  1  0.88009423  0.26136714  0.98716223  1  -0.089428  -0.067937  0.000382  3.990909  0.001
C  C46  1  0.94250650  0.47727630  0.37649938  1  -0.090637  -0.073209  0.000564  4.011237  0.001
C  C47  1  0.44250318  0.37650142  0.47728522  1  -0.090632  -0.0733  0.000564  4.011224  0.001
C  C48  1  0.57851191  0.96842039  0.45000077  1  0.096868  0.106327  -0.002666  4.031663  -0.002
C  C49  1  0.07851867  0.45000230  0.96840698  1  0.096808  0.106295  -0.002666  4.031698  -0.002
N  N50  1  0.83458400  0.91811594  0.40617434  1  -0.070534  -0.013245  -0.009459  3.192938  -0.007
N  N51  1  0.33458790  0.40616948  0.91811748  1  -0.070368  -0.013017  -0.009459  3.1929  -0.007
N  N52  1  0.65462584  0.24875861  0.77029489  1  -0.077146  -0.022076  -0.012266  3.183288  -0.009
N  N53  1  0.15461542  0.77029840  0.24877555  1  -0.077132  -0.022139  -0.012265  3.182838  -0.009
N  N54  1  0.70712338  0.95380762  0.50946286  1  -0.231532  -0.187564  -0.006241  3.630478  -0.004
N  N55  1  0.20713060  0.50945837  0.95380567  1  -0.231633  -0.187764  -0.006244  3.630569  -0.004
N  N56  1  0.67105498  0.38785489  0.72573557  1  -0.249218  -0.150662  -0.004704  3.682264  -0.003
N  N57  1  0.17104005  0.72573688  0.38787036  1  -0.249125  -0.15048  -0.004703  3.682092  -0.003
N  N58  1  0.74912114  0.16204769  0.67107936  1  -0.233205  -0.193493  -0.005419  3.640373  -0.003
N  N59  1  0.24910940  0.67108083  0.16206500  1  -0.233214  -0.193455  -0.005423  3.639898  -0.003
N  N60  1  0.79328385  0.91063432  0.28056276  1  -0.24836  -0.143622  -0.003407  3.652029  -0.002
N  N61  1  0.29328918  0.28056079  0.91062863  1  -0.248443  -0.143692  -0.003407  3.652092  -0.002
O  O62  1  0.49962624  0.63547684  0.86325584  1  -0.271292  -0.480467  0.021596  2.346735  0.036
O  O63  1  0.99962565  0.86326129  0.63547873  1  -0.271309  -0.480451  0.0216  2.346455  0.036
O  O64  1  0.48872470  0.01601162  0.82961580  1  -0.275776  -0.487508  0.023156  2.380791  0.039
O  O65  1  0.98872530  0.82959963  0.01601930  1  -0.275729  -0.487378  0.023154  2.380585  0.039
O  O66  1  0.29897204  0.89348479  0.93660527  1  -0.282841  -0.444654  -0.004975  2.444973  -0.004
O  O67  1  0.79897204  0.93659599  0.89348792  1  -0.28282  -0.444589  -0.004973  2.444654  -0.004
O  O68  1  0.68963366  0.75912863  0.75600339  1  -0.286945  -0.447895  -0.006929  2.391949  -0.006
O  O69  1  0.18964283  0.75601049  0.75912958  1  -0.286952  -0.447868  -0.00693  2.391764  -0.006
