# generated using pymatgen
data_YH16C8Cl3O2
_symmetry_space_group_name_H-M   'P 1'
_cell_length_a   8.10207024
_cell_length_b   8.40428586
_cell_length_c   9.74830296
_cell_angle_alpha   81.14893088
_cell_angle_beta   69.29592921
_cell_angle_gamma   82.07658518
_symmetry_Int_Tables_number   1
_chemical_formula_structural   YH16C8Cl3O2
_chemical_formula_sum   'Y2 H32 C16 Cl6 O4'
_cell_volume   611.01488873
_cell_formula_units_Z   2
loop_
 _symmetry_equiv_pos_site_id
 _symmetry_equiv_pos_as_xyz
  1  'x, y, z'
loop_
 _atom_site_type_symbol
 _atom_site_label
 _atom_site_symmetry_multiplicity
 _atom_site_fract_x
 _atom_site_fract_y
 _atom_site_fract_z
 _atom_site_occupancy
 _atom_site_hle17_bader_spin_density
 _atom_site_hle17_ddec_charge
 _atom_site_hle17_ddec_spin_density
 _atom_site_hle17_ddec_sum_bond_order
 _atom_site_hle17_magmom
 _atom_site_hse06_10hf_bader_spin_density
 _atom_site_hse06_10hf_ddec_charge
 _atom_site_hse06_10hf_ddec_spin_density
 _atom_site_hse06_10hf_ddec_sum_bond_order
 _atom_site_hse06_10hf_magmom
 _atom_site_hse06_bader_spin_density
 _atom_site_hse06_ddec_charge
 _atom_site_hse06_ddec_spin_density
 _atom_site_hse06_ddec_sum_bond_order
 _atom_site_hse06_magmom
 _atom_site_pbe_bader_spin_density
 _atom_site_pbe_cm5_charge
 _atom_site_pbe_ddec_charge
 _atom_site_pbe_ddec_spin_density
 _atom_site_pbe_ddec_sum_bond_order
 _atom_site_pbe_magmom
Y  Y0  1  0.99921248  0.76061812  0.92715434  1  0  1.708114  0  2.180886  0  0  1.547455  0  2.639508  0  0  1.611062  0  2.593  0  0  0.892236  1.501726  0  2.671699  0
Y  Y1  1  0.00078517  0.23937862  0.07284368  1  0  1.708084  0  2.1808  0  0  1.54742  0  2.639454  0  0  1.611033  0  2.592944  0  0  0.892199  1.50169  0  2.671645  0
H  H2  1  0.66402365  0.76234969  0.77755037  1  0  0.054796  0  0.94408  0  0  0.065931  0  1.016929  0  0  0.066747  0  1.015961  0  0  0.096333  0.065091  0  1.018146  0
H  H3  1  0.33597328  0.23763889  0.22243952  1  0  0.054777  0  0.944176  0  0  0.065885  0  1.017018  0  0  0.066719  0  1.016028  0  0  0.096309  0.065019  0  1.018259  0
H  H4  1  0.70874087  0.97020118  0.74946412  1  0  0.065005  0  0.944878  0  0  0.07944  0  1.009791  0  0  0.080043  0  1.008897  0  0  0.099563  0.078884  0  1.01056  0
H  H5  1  0.29125602  0.02978713  0.25053505  1  0  0.065089  0  0.944697  0  0  0.079372  0  1.009781  0  0  0.079974  0  1.008888  0  0  0.099524  0.078816  0  1.010547  0
H  H6  1  0.80561627  0.96859459  0.47898383  1  0  0.078046  0  0.953339  0  0  0.093378  0  1.017611  0  0  0.094722  0  1.017405  0  0  0.091933  0.092399  0  1.01783  0
H  H7  1  0.19439782  0.03141264  0.52100621  1  0  0.078075  0  0.953643  0  0  0.093437  0  1.017843  0  0  0.09474  0  1.017687  0  0  0.091917  0.092458  0  1.018062  0
H  H8  1  0.63122335  0.83908437  0.54072007  1  0  0.090375  0  0.957798  0  0  0.110634  0  1.014017  0  0  0.111368  0  1.014928  0  0  0.092909  0.109926  0  1.013691  0
H  H9  1  0.36876799  0.16090937  0.45926471  1  0  0.090492  0  0.957856  0  0  0.110666  0  1.01414  0  0  0.111399  0  1.015045  0  0  0.092932  0.109963  0  1.013807  0
H  H10  1  0.84074275  0.59800716  0.53940598  1  0  0.075603  0  0.940522  0  0  0.096367  0  0.997133  0  0  0.096666  0  0.998472  0  0  0.093354  0.095948  0  0.996516  0
H  H11  1  0.15926470  0.40198070  0.46059634  1  0  0.07563  0  0.940403  0  0  0.096406  0  0.997016  0  0  0.096703  0  0.998355  0  0  0.093386  0.095985  0  0.996401  0
H  H12  1  0.96171876  0.71756685  0.37641851  1  0  0.089685  0  0.964855  0  0  0.104076  0  1.031498  0  0  0.105286  0  1.031507  0  0  0.08832  0.103144  0  1.031527  0
H  H13  1  0.03830116  0.28243328  0.62356139  1  0  0.089621  0  0.965015  0  0  0.103978  0  1.031704  0  0  0.105187  0  1.031709  0  0  0.088246  0.103051  0  1.03172  0
H  H14  1  0.10026095  0.61617330  0.60100606  1  0  0.057102  0  0.964816  0  0  0.067367  0  1.038024  0  0  0.068183  0  1.036953  0  0  0.095953  0.066601  0  1.038856  0
H  H15  1  0.89973692  0.38381970  0.39899641  1  0  0.057115  0  0.964892  0  0  0.067405  0  1.038051  0  0  0.068224  0  1.036977  0  0  0.09597  0.066638  0  1.038886  0
H  H16  1  0.13451205  0.81195585  0.50030206  1  0  0.051116  0  0.948805  0  0  0.065642  0  1.014287  0  0  0.066009  0  1.013832  0  0  0.097644  0.065276  0  1.014586  0
H  H17  1  0.86549764  0.18803802  0.49969792  1  0  0.051148  0  0.948795  0  0  0.065634  0  1.014317  0  0  0.065999  0  1.013865  0  0  0.097653  0.065269  0  1.014617  0
H  H18  1  0.77378240  0.83125992  0.24387220  1  0  0.057123  0  0.970617  0  0  0.068907  0  1.043633  0  0  0.068783  0  1.044039  0  0  0.102461  0.069035  0  1.04317  0
H  H19  1  0.22623575  0.16870744  0.75612006  1  0  0.057138  0  0.97061  0  0  0.06892  0  1.043618  0  0  0.068799  0  1.044009  0  0  0.102451  0.069043  0  1.043149  0
H  H20  1  0.57822164  0.93733899  0.21975213  1  0  0.056887  0  0.937539  0  0  0.071496  0  1.001379  0  0  0.072237  0  1.00067  0  0  0.096832  0.070907  0  1.001961  0
H  H21  1  0.42180850  0.06266367  0.78025224  1  0  0.056886  0  0.937601  0  0  0.071519  0  1.001412  0  0  0.072263  0  1.000694  0  0  0.096828  0.070922  0  1.002004  0
H  H22  1  0.45517331  0.73819142  0.43895789  1  0  0.082737  0  0.961092  0  0  0.098851  0  1.02565  0  0  0.099909  0  1.025775  0  0  0.08924  0.097835  0  1.025944  0
H  H23  1  0.54482106  0.26183278  0.56105034  1  0  0.082827  0  0.961214  0  0  0.098978  0  1.025708  0  0  0.100032  0  1.025839  0  0  0.089299  0.097956  0  1.026008  0
H  H24  1  0.62419782  0.58653817  0.35969413  1  0  0.08308  0  0.935238  0  0  0.100513  0  0.994874  0  0  0.101646  0  0.995165  0  0  0.091821  0.09961  0  0.994786  0
H  H25  1  0.37577862  0.41345877  0.64032129  1  0  0.083129  0  0.935252  0  0  0.100591  0  0.994856  0  0  0.101721  0  0.99515  0  0  0.091846  0.099694  0  0.994762  0
H  H26  1  0.39903261  0.51902359  0.27885943  1  0  0.081751  0  0.951293  0  0  0.098638  0  1.01287  0  0  0.099753  0  1.013073  0  0  0.08858  0.097807  0  1.012803  0
H  H27  1  0.60095164  0.48099517  0.72114106  1  0  0.08184  0  0.95115  0  0  0.098683  0  1.012781  0  0  0.099795  0  1.012986  0  0  0.088579  0.097852  0  1.012721  0
H  H28  1  0.30519666  0.72233805  0.26575730  1  0  0.072906  0  0.96569  0  0  0.08752  0  1.0326  0  0  0.088452  0  1.033066  0  0  0.081573  0.086723  0  1.03239  0
H  H29  1  0.69480848  0.27770297  0.73423877  1  0  0.072861  0  0.965713  0  0  0.087483  0  1.032583  0  0  0.088407  0  1.033062  0  0  0.081588  0.086708  0  1.03235  0
H  H30  1  0.47980336  0.75208498  0.01835097  1  0  0.058584  0  0.937465  0  0  0.06784  0  1.007759  0  0  0.069038  0  1.00612  0  0  0.09499  0.0668  0  1.009267  0
H  H31  1  0.52019435  0.24792979  0.98164708  1  0  0.058586  0  0.937447  0  0  0.067832  0  1.007743  0  0  0.069034  0  1.006109  0  0  0.094979  0.066792  0  1.009251  0
H  H32  1  0.60544332  0.56078500  0.03600788  1  0  0.059612  0  0.966059  0  0  0.069762  0  1.037098  0  0  0.070361  0  1.036687  0  0  0.096803  0.069214  0  1.037568  0
H  H33  1  0.39454455  0.43921907  0.96399729  1  0  0.059651  0  0.966221  0  0  0.069791  0  1.037241  0  0  0.070395  0  1.036834  0  0  0.096817  0.069245  0  1.03771  0
C  C34  1  0.75019039  0.85364635  0.70460782  1  0  0.099078  0  3.555118  0  0  0.037303  0  3.826317  0  0  0.045739  0  3.830839  0  0  -0.072909  0.031579  0  3.823593  0
C  C35  1  0.24980689  0.14633572  0.29539911  1  0  0.099044  0  3.555484  0  0  0.037481  0  3.826577  0  0  0.04592  0  3.831094  0  0  -0.072835  0.031783  0  3.823864  0
C  C36  1  0.76060042  0.85501495  0.54608364  1  0  -0.146041  0  3.665639  0  0  -0.186158  0  3.921365  0  0  -0.188358  0  3.933987  0  0  -0.170597  -0.184485  0  3.912701  0
C  C37  1  0.23940145  0.14497822  0.45390842  1  0  -0.146381  0  3.666587  0  0  -0.186425  0  3.922209  0  0  -0.188598  0  3.934829  0  0  -0.170659  -0.184756  0  3.913547  0
C  C38  1  0.90007737  0.71338552  0.49659923  1  0  -0.145691  0  3.65963  0  0  -0.185632  0  3.916764  0  0  -0.187786  0  3.929726  0  0  -0.169438  -0.183877  0  3.907738  0
C  C39  1  0.09992733  0.28660522  0.50339023  1  0  -0.145621  0  3.65985  0  0  -0.185567  0  3.917016  0  0  -0.187707  0  3.929952  0  0  -0.169451  -0.18381  0  3.907994  0
C  C40  1  0.03378922  0.73078812  0.56890742  1  0  0.102898  0  3.55924  0  0  0.040745  0  3.828161  0  0  0.049221  0  3.832801  0  0  -0.072065  0.035148  0  3.824696  0
C  C41  1  0.96620946  0.26921194  0.43109917  1  0  0.102852  0  3.559405  0  0  0.040742  0  3.828385  0  0  0.049227  0  3.833029  0  0  -0.072095  0.035142  0  3.824928  0
C  C42  1  0.65048953  0.81715258  0.22625887  1  0  0.093005  0  3.58358  0  0  0.033772  0  3.850043  0  0  0.041531  0  3.856255  0  0  -0.07023  0.028592  0  3.845487  0
C  C43  1  0.34951083  0.18284280  0.77374159  1  0  0.092953  0  3.58369  0  0  0.033742  0  3.85013  0  0  0.041514  0  3.856321  0  0  -0.070242  0.02857  0  3.845556  0
C  C44  1  0.53833473  0.69168118  0.33476805  1  0  -0.147594  0  3.672891  0  0  -0.185686  0  3.926667  0  0  -0.187717  0  3.939364  0  0  -0.169617  -0.184045  0  3.918011  0
C  C45  1  0.46165429  0.30832525  0.66523755  1  0  -0.147752  0  3.673  0  0  -0.185946  0  3.926865  0  0  -0.187974  0  3.939546  0  0  -0.169652  -0.184306  0  3.918218  0
C  C46  1  0.42998935  0.64520374  0.24799713  1  0  -0.142913  0  3.64712  0  0  -0.183287  0  3.903651  0  0  -0.18539  0  3.916169  0  0  -0.171638  -0.181648  0  3.894937  0
C  C47  1  0.56999736  0.35481722  0.75200753  1  0  -0.142956  0  3.647008  0  0  -0.183284  0  3.903602  0  0  -0.185377  0  3.916118  0  0  -0.171689  -0.18167  0  3.894892  0
C  C48  1  0.54854411  0.67288032  0.08584220  1  0  0.105599  0  3.51482  0  0  0.049537  0  3.776987  0  0  0.057859  0  3.781459  0  0  -0.067093  0.043841  0  3.774117  0
C  C49  1  0.45145227  0.32713436  0.91416036  1  0  0.105483  0  3.514954  0  0  0.04947  0  3.777094  0  0  0.057768  0  3.781595  0  0  -0.067105  0.043776  0  3.774231  0
Cl  Cl50  1  0.88775164  0.08139853  0.89627790  1  0  -0.613997  0  1.017605  0  0  -0.567014  0  1.286581  0  0  -0.585378  0  1.269402  0  0  -0.268564  -0.553732  0  1.298201  0
Cl  Cl51  1  0.11224779  0.91859072  0.10372762  1  0  -0.614017  0  1.017586  0  0  -0.567009  0  1.286551  0  0  -0.585366  0  1.269358  0  0  -0.268558  -0.55372  0  1.298157  0
Cl  Cl52  1  0.93319460  0.47018942  0.86770735  1  0  -0.600493  0  1.030013  0  0  -0.551702  0  1.302492  0  0  -0.570332  0  1.286027  0  0  -0.264367  -0.537783  0  1.313916  0
Cl  Cl53  1  0.06680169  0.52980708  0.13230032  1  0  -0.600519  0  1.029997  0  0  -0.551754  0  1.302499  0  0  -0.570379  0  1.286027  0  0  -0.264359  -0.537834  0  1.313919  0
Cl  Cl54  1  0.31796758  0.74750984  0.75003179  1  0  -0.615403  0  0.831749  0  0  -0.57222  0  1.080147  0  0  -0.59098  0  1.064048  0  0  -0.319066  -0.558516  0  1.091341  0
Cl  Cl55  1  0.68203053  0.25249870  0.24997300  1  0  -0.615399  0  0.831742  0  0  -0.572213  0  1.080123  0  0  -0.590973  0  1.064029  0  0  -0.319055  -0.558507  0  1.091311  0
O  O56  1  0.93179155  0.80688134  0.70364378  1  0  -0.403084  0  2.294588  0  0  -0.307297  0  2.537135  0  0  -0.329811  0  2.54096  0  0  -0.286465  -0.291875  0  2.534309  0
O  O57  1  0.06821039  0.19310865  0.29637426  1  0  -0.402899  0  2.294651  0  0  -0.307229  0  2.537149  0  0  -0.329788  0  2.541022  0  0  -0.28636  -0.291807  0  2.534316  0
O  O58  1  0.69927265  0.75377233  0.08425721  1  0  -0.407879  0  2.291062  0  0  -0.316122  0  2.538157  0  0  -0.338809  0  2.541501  0  0  -0.288496  -0.300074  0  2.535381  0
O  O59  1  0.30073277  0.24622668  0.91573625  1  0  -0.407745  0  2.290997  0  0  -0.316061  0  2.538118  0  0  -0.338745  0  2.541468  0  0  -0.288464  -0.300013  0  2.535331  0
