# generated using pymatgen
data_CuH6C10(NO)4
_symmetry_space_group_name_H-M   'P 1'
_cell_length_a   7.90124181
_cell_length_b   24.84237054
_cell_length_c   24.83368848
_cell_angle_alpha   118.88659117
_cell_angle_beta   96.08211280
_cell_angle_gamma   96.08355125
_symmetry_Int_Tables_number   1
_chemical_formula_structural   CuH6C10(NO)4
_chemical_formula_sum   'Cu12 H72 C120 N48 O48'
_cell_volume   4174.25773836
_cell_formula_units_Z   12
loop_
 _symmetry_equiv_pos_site_id
 _symmetry_equiv_pos_as_xyz
  1  'x, y, z'
loop_
 _atom_site_type_symbol
 _atom_site_label
 _atom_site_symmetry_multiplicity
 _atom_site_fract_x
 _atom_site_fract_y
 _atom_site_fract_z
 _atom_site_occupancy
 _atom_site_pbe_bader_charge
 _atom_site_pbe_bader_spin_density
 _atom_site_pbe_cm5_charge
 _atom_site_pbe_ddec_charge
 _atom_site_pbe_ddec_spin_density
 _atom_site_pbe_ddec_sum_bond_order
 _atom_site_pbe_magmom
Cu  Cu0  1  0.75345572  0.75316162  0.00572475  1  1.056948  0.5484  0.745079  0.757888  0.712179  2.204499  0.549
Cu  Cu1  1  0.50623988  0.75804515  0.25809013  1  1.055522  0.548859  0.74398  0.757878  0.712428  2.201563  0.549
Cu  Cu2  1  0.00012772  0.25232407  0.24679627  1  1.056417  0.548304  0.745272  0.758012  0.712986  2.204557  0.549
Cu  Cu3  1  0.74839959  0.49969991  0.24197958  1  1.057046  0.548847  0.744382  0.757983  0.713282  2.202384  0.549
Cu  Cu4  1  0.74850377  0.99444171  0.74764942  1  1.058684  0.548506  0.745086  0.758338  0.712976  2.204459  0.549
Cu  Cu5  1  0.24835623  0.74190842  0.50003182  1  1.056546  0.548828  0.744519  0.758664  0.713222  2.201954  0.549
Cu  Cu6  1  0.24655518  0.24683368  0.99426839  1  1.057101  0.548397  0.745017  0.757948  0.712192  2.204353  0.549
Cu  Cu7  1  0.49375002  0.24195903  0.74190825  1  1.055571  0.548866  0.744059  0.75797  0.712445  2.201638  0.549
Cu  Cu8  1  0.99987669  0.74767077  0.75320490  1  1.056226  0.548312  0.745253  0.758089  0.712998  2.204539  0.549
Cu  Cu9  1  0.25160649  0.50030334  0.75802611  1  1.057235  0.548851  0.744442  0.758059  0.713288  2.202475  0.549
Cu  Cu10  1  0.25149269  0.00555780  0.25234609  1  1.058676  0.548507  0.745016  0.758166  0.712979  2.204555  0.549
Cu  Cu11  1  0.75164544  0.25809109  0.49997233  1  1.056404  0.548824  0.744484  0.758585  0.713217  2.202095  0.549
H  H12  1  0.07362634  0.76497996  0.08110978  1  0.169213  0.002171  0.123857  0.096634  0.000973  1.035551  0.002
H  H13  1  0.55849353  0.71426483  0.08579426  1  0.175869  0.000572  0.133917  0.097545  0.000234  1.002331  0.0
H  H14  1  0.93546744  0.70003237  0.20580895  1  0.146133  0.000849  0.120642  0.099562  0.00057  1.006073  0.001
H  H15  1  0.93150942  0.73524982  0.42603328  1  0.148179  0.002198  0.124043  0.096769  0.000967  1.035355  0.002
H  H16  1  0.44918338  0.78971158  0.42738228  1  0.174032  0.000595  0.133135  0.096213  0.000256  1.006369  0.0
H  H17  1  0.07875260  0.81581141  0.31463877  1  0.151545  0.000899  0.122107  0.101027  0.000604  0.994673  0.001
H  H18  1  0.23448088  0.80612858  0.99882370  1  0.149222  0.000874  0.121595  0.100781  0.000583  1.000783  0.001
H  H19  1  0.97648799  0.92567567  0.13307996  1  0.185591  0.000572  0.133436  0.097293  0.000236  1.003308  0.0
H  H20  1  0.49631978  0.93052353  0.18866184  1  0.145647  0.002209  0.124146  0.098  0.000974  1.033856  0.002
H  H21  1  0.00484025  0.57307844  0.82327395  1  0.170133  0.002164  0.124039  0.098136  0.000973  1.034411  0.002
H  H22  1  0.52686322  0.57938121  0.87744389  1  0.175582  0.000542  0.134151  0.098558  0.000211  0.999337  0.0
H  H23  1  0.27160420  0.70004862  0.01190170  1  0.150435  0.000888  0.121495  0.100214  0.000596  1.000019  0.001
H  H24  1  0.30885667  0.31577998  0.23498326  1  0.132118  0.002225  0.123954  0.097693  0.000973  1.033638  0.002
H  H25  1  0.84434682  0.37114034  0.28563936  1  0.176273  0.000574  0.133848  0.097393  0.000235  1.002814  0.0
H  H26  1  0.23560195  0.50538522  0.29997904  1  0.122766  0.000848  0.120753  0.099405  0.000566  1.006805  0.001
H  H27  1  0.19597935  0.69077348  0.26484094  1  0.161004  0.002171  0.123826  0.096144  0.000966  1.035512  0.002
H  H28  1  0.65921307  0.63755035  0.21043907  1  0.165067  0.000594  0.133349  0.09586  0.000254  1.006664  0.0
H  H29  1  0.26250494  0.49885458  0.18439955  1  0.119257  0.00091  0.122164  0.101063  0.000605  0.995232  0.001
H  H30  1  0.42793798  0.19242899  0.19353066  1  0.1477  0.000866  0.121402  0.100401  0.000582  1.001296  0.001
H  H31  1  0.05103331  0.20742290  0.07401350  1  0.173567  0.000574  0.133775  0.097374  0.000238  1.002962  0.0
H  H32  1  0.56620342  0.25842411  0.06960731  1  0.167213  0.002182  0.123987  0.097015  0.000978  1.034283  0.002
H  H33  1  0.43217901  0.25040898  0.42710746  1  0.151611  0.002183  0.124064  0.097788  0.000971  1.035067  0.002
H  H34  1  0.94779562  0.29816998  0.42061955  1  0.181647  0.000534  0.134334  0.099536  0.00021  0.999612  0.0
H  H35  1  0.57171118  0.31148952  0.29966479  1  0.14903  0.000885  0.121462  0.099984  0.000597  1.000821  0.001
H  H36  1  0.99338754  0.91920306  0.68401170  1  0.174731  0.002166  0.124029  0.097583  0.000972  1.03442  0.002
H  H37  1  0.47336256  0.91435100  0.62873469  1  0.178085  0.000571  0.133754  0.097279  0.000234  1.002419  0.0
H  H38  1  0.73013840  0.79427035  0.49447416  1  0.154742  0.000849  0.120654  0.099436  0.00057  1.006545  0.001
H  H39  1  0.50548785  0.57354823  0.30917854  1  0.152105  0.002188  0.124018  0.096272  0.000963  1.036572  0.002
H  H40  1  0.02199028  0.57255294  0.36248414  1  0.1944  0.00059  0.133366  0.09644  0.000255  1.006237  0.0
H  H41  1  0.76406921  0.68554104  0.50109272  1  0.15264  0.000904  0.122288  0.101417  0.000605  0.994951  0.001
H  H42  1  0.23651992  0.00105900  0.80735460  1  0.129198  0.000875  0.12157  0.100876  0.000581  1.000461  0.001
H  H43  1  0.84432646  0.86679555  0.79253681  1  0.178936  0.00057  0.133729  0.097582  0.000235  1.004169  0.0
H  H44  1  0.30868847  0.81125476  0.74185507  1  0.133825  0.002221  0.124256  0.097267  0.000973  1.035176  0.002
H  H45  1  0.18203358  0.17675760  0.74961771  1  0.160982  0.002172  0.12399  0.097746  0.000971  1.034305  0.002
H  H46  1  0.65001492  0.12256777  0.70192166  1  0.169386  0.000539  0.134218  0.098997  0.00021  0.999754  0.0
H  H47  1  0.26060219  0.98831135  0.68855737  1  0.151381  0.000886  0.121449  0.099583  0.000597  1.00046  0.001
H  H48  1  0.92637650  0.23501955  0.91888675  1  0.169378  0.002171  0.123849  0.096616  0.000973  1.035472  0.002
H  H49  1  0.44150821  0.28573514  0.91419803  1  0.175844  0.000572  0.133936  0.097592  0.000234  1.002228  0.0
H  H50  1  0.06452154  0.29996994  0.79418930  1  0.146643  0.000849  0.120643  0.099579  0.00057  1.006053  0.001
H  H51  1  0.06848101  0.26475530  0.57397040  1  0.148181  0.002199  0.124056  0.096866  0.000967  1.035276  0.002
H  H52  1  0.55081003  0.21029681  0.57262791  1  0.174089  0.000595  0.133112  0.096287  0.000256  1.006457  0.0
H  H53  1  0.92125665  0.18420072  0.68537132  1  0.151705  0.000899  0.122184  0.101061  0.000604  0.994701  0.001
H  H54  1  0.76553275  0.19386438  0.00117484  1  0.149532  0.000874  0.121553  0.100841  0.000582  1.000748  0.001
H  H55  1  0.02351172  0.07431496  0.86691499  1  0.185206  0.000572  0.133427  0.097286  0.000236  1.003186  0.0
H  H56  1  0.50368343  0.06947411  0.81133622  1  0.145669  0.002209  0.124168  0.098019  0.000974  1.033764  0.002
H  H57  1  0.99517463  0.42692995  0.17672444  1  0.170087  0.002163  0.123994  0.098129  0.000973  1.034293  0.002
H  H58  1  0.47315653  0.42062951  0.12254774  1  0.175617  0.000541  0.134168  0.098566  0.000211  0.999344  0.0
H  H59  1  0.72841240  0.29995557  0.98809553  1  0.150277  0.000888  0.121505  0.100199  0.000596  1.000041  0.001
H  H60  1  0.69116371  0.68422374  0.76502795  1  0.131736  0.002227  0.123991  0.097634  0.000973  1.03386  0.002
H  H61  1  0.15567453  0.62886010  0.71437513  1  0.176209  0.000574  0.13389  0.097561  0.000235  1.002624  0.0
H  H62  1  0.76440217  0.49461897  0.70003550  1  0.122377  0.000849  0.120736  0.099282  0.000566  1.006927  0.001
H  H63  1  0.80400013  0.30923023  0.73515687  1  0.161363  0.002171  0.123823  0.096131  0.000967  1.035489  0.002
H  H64  1  0.34076004  0.36245617  0.78954982  1  0.164981  0.000593  0.133347  0.095935  0.000254  1.00658  0.0
H  H65  1  0.73748235  0.50114960  0.81559431  1  0.118913  0.00091  0.122197  0.101154  0.000605  0.995113  0.001
H  H66  1  0.57204947  0.80756257  0.80646435  1  0.147568  0.000866  0.121378  0.100371  0.000582  1.0013  0.001
H  H67  1  0.94896955  0.79256399  0.92597491  1  0.173632  0.000574  0.133715  0.097294  0.000238  1.002997  0.0
H  H68  1  0.43380225  0.74155810  0.93038255  1  0.166867  0.002182  0.124057  0.097212  0.000978  1.034132  0.002
H  H69  1  0.56782016  0.74959053  0.57289982  1  0.151841  0.002183  0.124113  0.097921  0.000971  1.034969  0.002
H  H70  1  0.05220354  0.70183467  0.57938821  1  0.181731  0.000535  0.134317  0.099529  0.00021  0.999611  0.0
H  H71  1  0.42828628  0.68851420  0.70034528  1  0.14877  0.000885  0.121412  0.099978  0.000597  1.000673  0.001
H  H72  1  0.00661231  0.08079551  0.31598589  1  0.174683  0.002168  0.124001  0.097493  0.000973  1.034453  0.002
H  H73  1  0.52663311  0.08564430  0.37126158  1  0.178046  0.00057  0.133726  0.09721  0.000233  1.002452  0.0
H  H74  1  0.26986654  0.20572822  0.50552359  1  0.154849  0.000849  0.12064  0.099453  0.00057  1.006558  0.001
H  H75  1  0.49450509  0.42644894  0.69082983  1  0.151983  0.002189  0.124067  0.096484  0.000963  1.036525  0.002
H  H76  1  0.97800601  0.42744329  0.63752348  1  0.194452  0.00059  0.133357  0.096355  0.000254  1.006439  0.0
H  H77  1  0.23592813  0.31445473  0.49891511  1  0.152522  0.000904  0.122245  0.10138  0.000605  0.994711  0.001
H  H78  1  0.76346736  0.99893489  0.19263711  1  0.129343  0.000875  0.121517  0.100798  0.000581  1.000427  0.001
H  H79  1  0.15567036  0.13319695  0.20745815  1  0.178958  0.00057  0.133722  0.097739  0.000235  1.004112  0.0
H  H80  1  0.69130974  0.18874054  0.25814048  1  0.13373  0.002222  0.124288  0.09726  0.000973  1.035185  0.002
H  H81  1  0.81795888  0.82324659  0.25038235  1  0.161027  0.002171  0.123991  0.09772  0.000971  1.034247  0.002
H  H82  1  0.34998322  0.87744015  0.29807879  1  0.169628  0.000538  0.134236  0.098959  0.00021  0.999818  0.0
H  H83  1  0.73939964  0.01169376  0.31144224  1  0.151169  0.000886  0.121459  0.099726  0.000597  1.000319  0.001
C  C84  1  0.22575507  0.74745408  0.17143923  1  1.598204  -0.000647  0.203572  0.577856  -0.000919  4.235611  -0.003
C  C85  1  0.03421462  0.73647587  0.14879273  1  -0.022858  0.016353  -0.004216  -0.09723  0.011403  3.91919  0.013
C  C86  1  0.97984923  0.74870666  0.10141760  1  0.531532  8.3e-05  0.073074  0.125172  -0.000671  3.872976  0.0
C  C87  1  0.69490564  0.71893653  0.10298386  1  1.058541  -0.001691  0.189988  0.243729  -0.001732  3.921086  0.0
C  C88  1  0.90467731  0.71288326  0.17006972  1  0.503973  -0.003718  0.077029  0.126368  -0.004336  3.872227  -0.003
C  C89  1  0.78432788  0.76349237  0.34340147  1  1.612334  -0.000567  0.204666  0.579998  -0.00073  4.233588  -0.003
C  C90  1  0.97560488  0.77264252  0.36552738  1  0.051931  0.016454  -0.004107  -0.098763  0.01157  3.918975  0.013
C  C91  1  0.02716494  0.75469372  0.40878576  1  0.477065  -2.3e-05  0.071892  0.124848  -0.000978  3.873907  0.0
C  C92  1  0.31345141  0.78623550  0.41039899  1  1.070158  -0.001841  0.188944  0.242288  -0.001856  3.922529  0.0
C  C93  1  0.10730044  0.79924448  0.34754173  1  0.477466  -0.003754  0.077247  0.127015  -0.004391  3.876344  -0.003
C  C94  1  0.55938921  0.84093080  0.08082964  1  1.60773  -0.000623  0.204229  0.578409  -0.000855  4.235218  -0.003
C  C95  1  0.38998542  0.86330725  0.09228086  1  0.036415  0.016304  -0.003941  -0.097273  0.011495  3.918234  0.013
C  C96  1  0.23924434  0.84193021  0.04737912  1  0.511072  -0.00374  0.076468  0.126296  -0.00435  3.87209  -0.003
C  C97  1  0.09590482  0.90864675  0.12056533  1  1.054208  -0.001688  0.18896  0.242184  -0.001751  3.918464  0.0
C  C98  1  0.38247279  0.91036721  0.15198936  1  0.491586  0.000193  0.072619  0.124176  -0.00075  3.873313  0.0
C  C99  1  0.94504771  0.66450380  0.93082055  1  1.617165  -0.000662  0.204171  0.577092  -0.000848  4.237905  -0.003
C  C100  1  0.11377255  0.64169730  0.91903848  1  0.033125  0.016476  -0.003373  -0.095762  0.011572  3.917206  0.013
C  C101  1  0.11975073  0.59387272  0.85954013  1  0.480144  0.000315  0.07214  0.123466  -0.000609  3.872088  0.0
C  C102  1  0.40745964  0.59630170  0.89023251  1  1.039423  -0.00182  0.189026  0.243275  -0.001865  3.917634  0.0
C  C103  1  0.26568230  0.66364500  0.96351161  1  0.48256  -0.003738  0.076292  0.125881  -0.00436  3.87384  -0.003
C  C104  1  0.47853751  0.42367226  0.25258141  1  1.611126  -0.000688  0.204144  0.577638  -0.000935  4.233927  -0.003
C  C105  1  0.29797712  0.41197260  0.26356425  1  0.013072  0.016316  -0.00427  -0.097178  0.011402  3.919496  0.013
C  C106  1  0.23139443  0.35236745  0.25128737  1  0.537519  0.000158  0.072386  0.123924  -0.000647  3.872414  0.0
C  C107  1  0.97611415  0.38368270  0.28100574  1  1.054739  -0.001704  0.189571  0.24406  -0.001736  3.919561  0.0
C  C108  1  0.19198629  0.45681459  0.28713142  1  0.510554  -0.003732  0.076707  0.126494  -0.004338  3.873072  -0.003
C  C109  1  0.02057045  0.57985179  0.23670522  1  1.590918  -0.000533  0.205537  0.580757  -0.000719  4.234765  -0.003
C  C110  1  0.20261531  0.59289160  0.22754477  1  0.042476  0.016548  -0.004197  -0.098571  0.011591  3.917599  0.013
C  C111  1  0.27216706  0.65406523  0.24543878  1  0.502325  -3.4e-05  0.071922  0.124815  -0.000958  3.873133  0.0
C  C112  1  0.52694055  0.62408994  0.21392032  1  1.078488  -0.001859  0.188576  0.24246  -0.00185  3.921813  0.0
C  C113  1  0.30768651  0.54830323  0.20095863  1  0.498271  -0.003763  0.077071  0.12706  -0.004386  3.875319  -0.003
C  C114  1  0.71841765  0.23992456  0.15905323  1  1.599457  -0.000626  0.203673  0.577404  -0.000851  4.237628  -0.003
C  C115  1  0.52668344  0.22906743  0.13666603  1  0.002887  0.016402  -0.003882  -0.096985  0.011528  3.917361  0.013
C  C116  1  0.39715073  0.20536169  0.15784318  1  0.521073  -0.003727  0.076731  0.126252  -0.004352  3.872767  -0.003
C  C117  1  0.18740031  0.21195624  0.09112462  1  1.065676  -0.00174  0.188922  0.243422  -0.00174  3.919045  0.0
C  C118  1  0.47234962  0.24183574  0.08966221  1  0.479053  0.000158  0.072917  0.125621  -0.000747  3.873162  0.0
C  C119  1  0.28069897  0.26618152  0.33550685  1  1.591322  -0.000586  0.20382  0.577662  -0.000835  4.23818  -0.003
C  C120  1  0.47230122  0.27727424  0.35826512  1  0.020339  0.0164  -0.003427  -0.095619  0.011579  3.915789  0.013
C  C121  1  0.52623629  0.26579932  0.40623381  1  0.470299  0.000311  0.072046  0.123877  -0.000606  3.871209  0.0
C  C122  1  0.81146390  0.29400216  0.40370093  1  1.063001  -0.001815  0.188705  0.242173  -0.001839  3.917545  0.0
C  C123  1  0.60218225  0.29966511  0.33618918  1  0.523042  -0.003734  0.076298  0.126107  -0.004354  3.873724  -0.003
C  C124  1  0.05487266  0.82868628  0.57611468  1  1.629293  -0.000738  0.204045  0.578199  -0.000927  4.233507  -0.003
C  C125  1  0.88610490  0.85140677  0.58785939  1  0.03086  0.01622  -0.00424  -0.09658  0.011419  3.918126  0.013
C  C126  1  0.87924641  0.89884203  0.64744650  1  0.459952  0.000322  0.072928  0.123913  -0.000664  3.872426  0.0
C  C127  1  0.59258154  0.89718094  0.61619342  1  1.067949  -0.001698  0.189965  0.243814  -0.001725  3.920199  0.0
C  C128  1  0.73516487  0.83006246  0.54304516  1  0.505327  -0.003723  0.077453  0.127276  -0.004341  3.871163  -0.003
C  C129  1  0.44091587  0.65656478  0.41999468  1  1.635278  -0.000682  0.204636  0.579486  -0.000732  4.233388  -0.003
C  C130  1  0.61003397  0.63438781  0.40705303  1  -0.033665  0.016571  -0.004258  -0.09875  0.011585  3.917458  0.013
C  C131  1  0.61836876  0.59095154  0.34591315  1  0.495239  -2.7e-05  0.071691  0.125276  -0.000998  3.872888  0.0
C  C132  1  0.90315620  0.58950480  0.37593107  1  1.043211  -0.001811  0.188862  0.242231  -0.001861  3.922814  0.0
C  C133  1  0.75975085  0.65251403  0.45166583  1  0.524216  -0.003777  0.076947  0.126842  -0.004402  3.875827  -0.003
C  C134  1  0.47961175  0.91916063  0.76023448  1  1.59989  -0.000616  0.203837  0.577487  -0.000846  4.234925  -0.003
C  C135  1  0.29868260  0.90764373  0.77105865  1  -0.085289  0.016541  -0.003696  -0.09651  0.011498  3.917965  0.013
C  C136  1  0.19278502  0.95250861  0.79457187  1  0.569769  -0.003751  0.076383  0.125789  -0.00435  3.872781  -0.003
C  C137  1  0.97624131  0.87933137  0.78804372  1  1.074878  -0.001787  0.18908  0.242559  -0.00175  3.92007  0.0
C  C138  1  0.23146655  0.84792170  0.75835601  1  0.582312  -2.8e-05  0.072583  0.124661  -0.000737  3.874335  0.0
C  C139  1  0.01490851  0.06934448  0.73382122  1  1.611434  -0.000649  0.204116  0.578776  -0.000848  4.233695  -0.003
C  C140  1  0.19541799  0.08109929  0.72280140  1  -0.012741  0.016517  -0.003612  -0.096861  0.011571  3.917682  0.013
C  C141  1  0.26075996  0.14051698  0.73427254  1  0.494364  0.000265  0.072329  0.124259  -0.00062  3.869717  0.0
C  C142  1  0.51786581  0.10982861  0.70610300  1  1.069071  -0.001822  0.189274  0.242617  -0.001859  3.917769  0.0
C  C143  1  0.30298427  0.03665418  0.70040986  1  0.516521  -0.003744  0.076587  0.12689  -0.004366  3.874532  -0.003
C  C144  1  0.77424113  0.25255244  0.82856330  1  1.597565  -0.000645  0.203656  0.577695  -0.000919  4.235328  -0.003
C  C145  1  0.96579312  0.26352831  0.85120742  1  -0.022717  0.016356  -0.004235  -0.097111  0.011404  3.918958  0.013
C  C146  1  0.02015107  0.25129285  0.89857884  1  0.531692  8.2e-05  0.073073  0.125227  -0.000671  3.87291  0.0
C  C147  1  0.30509230  0.28106344  0.89700992  1  1.058079  -0.001693  0.190052  0.243794  -0.001734  3.920985  0.0
C  C148  1  0.09532077  0.28711952  0.82992623  1  0.503582  -0.003718  0.077101  0.126323  -0.004336  3.872349  -0.003
C  C149  1  0.21567193  0.23651135  0.65659458  1  1.612463  -0.000566  0.204565  0.579904  -0.000728  4.233703  -0.003
C  C150  1  0.02439639  0.22736400  0.63447451  1  0.051582  0.016455  -0.004182  -0.09887  0.011571  3.919343  0.013
C  C151  1  0.97282976  0.24531234  0.59121690  1  0.477422  -2.5e-05  0.071836  0.124749  -0.00098  3.874379  0.0
C  C152  1  0.68654406  0.21377195  0.58960960  1  1.069625  -0.001838  0.188907  0.241885  -0.001856  3.922705  0.0
C  C153  1  0.89270912  0.20076578  0.65246546  1  0.477417  -0.003755  0.077141  0.126801  -0.004392  3.876231  -0.003
C  C154  1  0.44062615  0.15906824  0.91916948  1  1.607421  -0.000624  0.204154  0.578336  -0.000855  4.235488  -0.003
C  C155  1  0.61002371  0.13668945  0.90771895  1  0.036321  0.016303  -0.004008  -0.097316  0.011494  3.918411  0.013
C  C156  1  0.76076487  0.15806415  0.95261755  1  0.510979  -0.00374  0.076578  0.126391  -0.00435  3.87216  -0.003
C  C157  1  0.90410161  0.09134715  0.87943142  1  1.05417  -0.001687  0.189021  0.242285  -0.001749  3.918367  0.0
C  C158  1  0.61753330  0.08962856  0.84800788  1  0.491938  0.000191  0.072736  0.124279  -0.000752  3.873196  0.0
C  C159  1  0.05496332  0.33549944  0.06917523  1  1.617295  -0.000667  0.204142  0.576981  -0.000846  4.238438  -0.003
C  C160  1  0.88624508  0.35830641  0.08095775  1  0.0013  0.016479  -0.003365  -0.095509  0.011569  3.917029  0.013
C  C161  1  0.88025995  0.40613240  0.14045574  1  0.480113  0.000315  0.072152  0.123397  -0.000609  3.871879  0.0
C  C162  1  0.59255728  0.40370576  0.10976348  1  1.038894  -0.00182  0.188989  0.243248  -0.001865  3.917652  0.0
C  C163  1  0.73433557  0.33635918  0.03648525  1  0.514619  -0.003745  0.07624  0.125781  -0.004358  3.873838  -0.003
C  C164  1  0.52147327  0.57633519  0.74743090  1  1.611594  -0.000688  0.204108  0.577455  -0.000935  4.233958  -0.003
C  C165  1  0.70203412  0.58803064  0.73644684  1  0.013669  0.016317  -0.004083  -0.097081  0.011403  3.919812  0.013
C  C166  1  0.76862144  0.64763487  0.74872382  1  0.537652  0.000156  0.07241  0.124141  -0.000649  3.872791  0.0
C  C167  1  0.02390081  0.61631774  0.71900613  1  1.054222  -0.001705  0.189469  0.24375  -0.001737  3.919655  0.0
C  C168  1  0.80802092  0.54318819  0.71288092  1  0.510236  -0.003733  0.076668  0.126542  -0.004339  3.873203  -0.003
C  C169  1  0.97941274  0.42014912  0.76329256  1  1.591071  -0.000534  0.2055  0.5806  -0.00072  4.234969  -0.003
C  C170  1  0.79736845  0.40711305  0.77245323  1  0.042487  0.01655  -0.00413  -0.098525  0.011591  3.917752  0.013
C  C171  1  0.72781140  0.34593895  0.75456003  1  0.502517  -3.7e-05  0.071885  0.124846  -0.000961  3.873158  0.0
C  C172  1  0.47303415  0.37591705  0.78607489  1  1.078782  -0.001858  0.18864  0.242365  -0.001848  3.921976  0.0
C  C173  1  0.69230337  0.45170096  0.79903813  1  0.498211  -0.003763  0.076944  0.126796  -0.004386  3.875352  -0.003
C  C174  1  0.28158038  0.76006513  0.84094565  1  1.599482  -0.000626  0.203691  0.577674  -0.000851  4.237285  -0.003
C  C175  1  0.47330761  0.77092366  0.86333008  1  0.002675  0.016401  -0.003853  -0.09717  0.011528  3.917558  0.013
C  C176  1  0.60284380  0.79463128  0.84215354  1  0.52177  -0.003728  0.076733  0.126336  -0.004352  3.872749  -0.003
C  C177  1  0.81260065  0.78803439  0.90886836  1  1.066346  -0.001741  0.188855  0.243434  -0.001742  3.919052  0.0
C  C178  1  0.52765446  0.75815348  0.91033099  1  0.479277  0.000159  0.072722  0.125287  -0.000747  3.87304  0.0
C  C179  1  0.71930058  0.73381378  0.66449398  1  1.59168  -0.000585  0.20358  0.577347  -0.000834  4.238428  -0.003
C  C180  1  0.52770251  0.72272433  0.64173743  1  0.020732  0.0164  -0.003351  -0.095467  0.011579  3.91582  0.013
C  C181  1  0.47376388  0.73419972  0.59377046  1  0.469678  0.000311  0.071873  0.123621  -0.000606  3.871108  0.0
C  C182  1  0.18853687  0.70600062  0.59630557  1  1.063215  -0.001816  0.188701  0.242237  -0.00184  3.917615  0.0
C  C183  1  0.39781678  0.70033674  0.66381682  1  0.523277  -0.003735  0.076409  0.126109  -0.004355  3.873548  -0.003
C  C184  1  0.94512331  0.17130949  0.42388667  1  1.62928  -0.000738  0.204127  0.578415  -0.000927  4.233256  -0.003
C  C185  1  0.11389915  0.14858993  0.41214106  1  0.03069  0.016225  -0.004251  -0.096617  0.011422  3.918168  0.013
C  C186  1  0.12075331  0.10115374  0.35254973  1  0.460221  0.000319  0.073007  0.124023  -0.000667  3.872685  0.0
C  C187  1  0.40742261  0.10281857  0.38380637  1  1.06733  -0.001692  0.190059  0.243933  -0.001722  3.920146  0.0
C  C188  1  0.26483173  0.16993471  0.45695164  1  0.504802  -0.003724  0.07734  0.127032  -0.004341  3.871305  -0.003
C  C189  1  0.55908053  0.34343426  0.58001309  1  1.637515  -0.00069  0.20465  0.579454  -0.000732  4.233512  -0.003
C  C190  1  0.38996855  0.36561077  0.59295391  1  -0.033504  0.01657  -0.004249  -0.098587  0.011585  3.917468  0.013
C  C191  1  0.38162567  0.40904609  0.65409429  1  0.494598  -2.7e-05  0.071625  0.124993  -0.000999  3.872883  0.0
C  C192  1  0.09683244  0.41049144  0.62407550  1  1.043087  -0.00181  0.189003  0.242509  -0.001859  3.922914  0.0
C  C193  1  0.24025275  0.34748407  0.54834374  1  0.524433  -0.003778  0.076935  0.126823  -0.004402  3.875691  -0.003
C  C194  1  0.52037761  0.08083233  0.23975643  1  1.599014  -0.000615  0.203908  0.577684  -0.000847  4.234611  -0.003
C  C195  1  0.70131199  0.09235204  0.22893459  1  -0.085283  0.01654  -0.003816  -0.096765  0.011498  3.918012  0.013
C  C196  1  0.80720530  0.04748622  0.20542159  1  0.569953  -0.003751  0.076464  0.12592  -0.00435  3.872659  -0.003
C  C197  1  0.02375214  0.12066206  0.21195077  1  1.076771  -0.001787  0.188897  0.241973  -0.00175  3.920347  0.0
C  C198  1  0.76853084  0.15207453  0.24163956  1  0.582773  -3e-05  0.072612  0.12468  -0.000737  3.874445  0.0
C  C199  1  0.98508074  0.93065596  0.26617130  1  1.610469  -0.000644  0.20417  0.57875  -0.000848  4.234322  -0.003
C  C200  1  0.80457872  0.91890583  0.27719603  1  -0.011448  0.016512  -0.003735  -0.096938  0.011571  3.917893  0.013
C  C201  1  0.73923529  0.85948767  0.26572825  1  0.494383  0.000265  0.072353  0.124297  -0.000621  3.869688  0.0
C  C202  1  0.48213109  0.89017931  0.29389982  1  1.069257  -0.00182  0.189407  0.242762  -0.001858  3.917741  0.0
C  C203  1  0.69701779  0.96335140  0.29958999  1  0.516195  -0.003745  0.0766  0.126646  -0.004366  3.874372  -0.003
N  N204  1  0.81165861  0.73980466  0.07829469  1  -1.210633  0.086006  -0.342138  -0.257445  0.057996  3.583357  0.075
N  N205  1  0.73579113  0.70454220  0.14740229  1  -1.202277  0.012907  -0.30694  -0.29208  0.008222  3.294607  0.01
N  N206  1  0.19453990  0.76175927  0.43159448  1  -1.212259  0.086095  -0.340825  -0.257216  0.058077  3.579332  0.075
N  N207  1  0.27549563  0.80558221  0.36967569  1  -1.196966  0.013191  -0.309331  -0.293809  0.00842  3.28751  0.011
N  N208  1  0.23718937  0.93328465  0.16622111  1  -1.209701  0.085866  -0.341407  -0.257733  0.057993  3.579343  0.075
N  N209  1  0.09269976  0.86439243  0.06171623  1  -1.213364  0.013001  -0.308054  -0.293235  0.008281  3.289334  0.01
N  N210  1  0.26510994  0.57111510  0.84499153  1  -1.213002  0.086262  -0.340472  -0.257343  0.058278  3.579894  0.076
N  N211  1  0.41188215  0.64103601  0.94897836  1  -1.178693  0.013026  -0.307617  -0.29251  0.008312  3.290428  0.01
N  N212  1  0.07206387  0.33814932  0.26014665  1  -1.196379  0.085882  -0.341469  -0.257949  0.057937  3.583663  0.075
N  N213  1  0.03138040  0.44247679  0.29542160  1  -1.206368  0.012876  -0.306723  -0.291929  0.008206  3.294957  0.01
N  N214  1  0.43251100  0.66977356  0.23835979  1  -1.224234  0.086077  -0.339797  -0.25651  0.058125  3.576732  0.075
N  N215  1  0.46958003  0.56405364  0.19460329  1  -1.195345  0.013219  -0.309569  -0.294013  0.008423  3.286566  0.011
N  N216  1  0.30424320  0.23310435  0.06663786  1  -1.220243  0.08606  -0.3411  -0.258258  0.058006  3.581419  0.075
N  N217  1  0.22818722  0.19722442  0.13529120  1  -1.188013  0.013025  -0.308642  -0.294242  0.0083  3.290684  0.01
N  N218  1  0.69435545  0.27409320  0.42903077  1  -1.204554  0.08628  -0.34061  -0.25823  0.058244  3.579333  0.076
N  N219  1  0.77103097  0.30780472  0.35882153  1  -1.200511  0.013026  -0.307534  -0.292336  0.008311  3.290391  0.01
N  N220  1  0.73415066  0.92194083  0.66169959  1  -1.232509  0.086082  -0.342191  -0.258078  0.058102  3.583065  0.075
N  N221  1  0.58892569  0.85270743  0.55740328  1  -1.206917  0.01293  -0.307298  -0.292498  0.008238  3.294153  0.01
N  N222  1  0.76300544  0.56813451  0.33024812  1  -1.215016  0.086043  -0.340385  -0.256877  0.058069  3.579078  0.075
N  N223  1  0.90586347  0.63038499  0.43595140  1  -1.190593  0.013215  -0.309293  -0.294106  0.008421  3.28751  0.011
N  N224  1  0.07191743  0.83368159  0.76700148  1  -1.233547  0.08585  -0.341905  -0.258129  0.057878  3.580296  0.075
N  N225  1  0.03187093  0.93816239  0.80267525  1  -1.20174  0.012976  -0.308102  -0.293316  0.008271  3.291986  0.01
N  N226  1  0.42062720  0.15503101  0.72599138  1  -1.206097  0.086479  -0.340626  -0.257492  0.058357  3.579062  0.076
N  N227  1  0.46369997  0.05115044  0.69229775  1  -1.203596  0.01309  -0.307871  -0.292727  0.008349  3.289444  0.01
N  N228  1  0.18834419  0.26019485  0.92169943  1  -1.210605  0.086011  -0.342132  -0.257593  0.057998  3.583385  0.075
N  N229  1  0.26419862  0.29545918  0.85259271  1  -1.202409  0.012907  -0.307055  -0.292129  0.008222  3.294852  0.01
N  N230  1  0.80546038  0.23824772  0.56841042  1  -1.211724  0.086092  -0.340719  -0.256955  0.058076  3.579375  0.075
N  N231  1  0.72450078  0.19442711  0.63033384  1  -1.196973  0.013187  -0.30927  -0.293439  0.008417  3.287325  0.011
N  N232  1  0.76280838  0.06670971  0.83377478  1  -1.209552  0.085862  -0.341496  -0.257804  0.057988  3.579349  0.075
N  N233  1  0.90730931  0.13559913  0.93827826  1  -1.213515  0.012999  -0.308133  -0.293412  0.00828  3.289431  0.01
N  N234  1  0.73489787  0.42889188  0.15500596  1  -1.212577  0.086254  -0.340448  -0.257397  0.058271  3.579886  0.076
N  N235  1  0.58813640  0.35896958  0.05101719  1  -1.178581  0.013028  -0.307512  -0.292355  0.008313  3.290256  0.01
N  N236  1  0.92795107  0.66185113  0.73986401  1  -1.196013  0.08589  -0.341597  -0.258067  0.057943  3.583848  0.075
N  N237  1  0.96862667  0.55752319  0.70458898  1  -1.205761  0.012877  -0.306716  -0.291872  0.008206  3.295037  0.01
N  N238  1  0.56747021  0.33023109  0.76163691  1  -1.224482  0.086086  -0.339919  -0.25671  0.058131  3.57693  0.075
N  N239  1  0.53039663  0.43594961  0.80539098  1  -1.195648  0.013217  -0.309492  -0.293758  0.008422  3.286614  0.011
N  N240  1  0.69576899  0.76688581  0.93335606  1  -1.220616  0.086054  -0.340933  -0.257926  0.058001  3.58106  0.075
N  N241  1  0.77180782  0.80276714  0.86470043  1  -1.188542  0.013022  -0.308615  -0.294295  0.008299  3.290787  0.01
N  N242  1  0.30564496  0.72590630  0.57097413  1  -1.205216  0.086285  -0.34056  -0.258215  0.058248  3.579247  0.076
N  N243  1  0.22896474  0.69219806  0.64118641  1  -1.200291  0.013025  -0.3076  -0.292453  0.00831  3.290625  0.01
N  N244  1  0.26583864  0.07805962  0.33829696  1  -1.231536  0.086087  -0.342204  -0.258021  0.058107  3.583043  0.075
N  N245  1  0.41107584  0.14728694  0.44258952  1  -1.206841  0.012928  -0.30726  -0.292386  0.008237  3.294343  0.01
N  N246  1  0.23699106  0.43186220  0.66975852  1  -1.214828  0.086044  -0.340475  -0.257038  0.058069  3.579104  0.075
N  N247  1  0.09412994  0.36961312  0.56405784  1  -1.190183  0.013215  -0.30928  -0.294196  0.008421  3.287579  0.011
N  N248  1  0.92807731  0.16631184  0.23299386  1  -1.234446  0.085855  -0.341814  -0.257751  0.05788  3.580462  0.075
N  N249  1  0.96812044  0.06183198  0.19731922  1  -1.203159  0.012976  -0.308025  -0.29309  0.008272  3.291969  0.01
N  N250  1  0.57936877  0.84497504  0.27401131  1  -1.206651  0.08648  -0.340597  -0.257446  0.058357  3.579029  0.076
N  N251  1  0.53629828  0.94885514  0.30770237  1  -1.202822  0.013089  -0.308  -0.292727  0.008349  3.289418  0.01
O  O252  1  0.26491735  0.75566014  0.22720799  1  -1.10711  0.11137  -0.322315  -0.550636  0.071737  2.417656  0.101
O  O253  1  0.32824380  0.74799521  0.13683299  1  -1.167394  0.002008  -0.318256  -0.547854  0.000375  2.122343  0.002
O  O254  1  0.74687580  0.76166797  0.29043207  1  -1.113559  0.109255  -0.323087  -0.552369  0.070506  2.424715  0.099
O  O255  1  0.68078367  0.75828405  0.37578289  1  -1.168962  0.001773  -0.317541  -0.546547  0.000219  2.126403  0.002
O  O256  1  0.54348751  0.78521949  0.03330553  1  -1.115961  0.110522  -0.322353  -0.550816  0.071211  2.419236  0.1
O  O257  1  0.69595903  0.87567810  0.11623793  1  -1.17286  0.001939  -0.317872  -0.54687  0.000339  2.122591  0.002
O  O258  1  0.96256736  0.72060066  0.97790504  1  -1.116564  0.111007  -0.323167  -0.551551  0.071658  2.419656  0.101
O  O259  1  0.80765942  0.62983275  0.89607945  1  -1.168971  0.001878  -0.319301  -0.54744  0.000285  2.120628  0.002
O  O260  1  0.50934728  0.47118301  0.24430813  1  -1.113411  0.111442  -0.322107  -0.550194  0.071725  2.41606  0.101
O  O261  1  0.58061988  0.38858344  0.25207250  1  -1.169076  0.002009  -0.318754  -0.54801  0.000374  2.121015  0.002
O  O262  1  0.98524258  0.52865893  0.23843563  1  -1.107876  0.109462  -0.323624  -0.553121  0.07054  2.425419  0.099
O  O263  1  0.92198700  0.61737140  0.24196714  1  -1.159856  0.001778  -0.317816  -0.546625  0.00022  2.126003  0.002
O  O264  1  0.75817362  0.24805395  0.21476302  1  -1.111489  0.110864  -0.322358  -0.550732  0.071355  2.418706  0.101
O  O265  1  0.82027396  0.24055216  0.12429481  1  -1.164088  0.001968  -0.317836  -0.546631  0.000351  2.123994  0.002
O  O266  1  0.24181374  0.25690319  0.27930351  1  -1.108967  0.111027  -0.322986  -0.551309  0.071511  2.41812  0.101
O  O267  1  0.17821682  0.26632609  0.37033879  1  -1.163064  0.001891  -0.318714  -0.547732  0.000298  2.122236  0.002
O  O268  1  0.03799898  0.77287590  0.52862836  1  -1.120682  0.111538  -0.321919  -0.550835  0.071993  2.417281  0.101
O  O269  1  0.19211841  0.86324892  0.61113575  1  -1.169885  0.002006  -0.318995  -0.548361  0.00037  2.120462  0.002
O  O270  1  0.45651313  0.70951817  0.47114436  1  -1.118398  0.109427  -0.323239  -0.552234  0.070546  2.423919  0.099
O  O271  1  0.30497169  0.62423754  0.38240759  1  -1.171132  0.001778  -0.31748  -0.546634  0.00023  2.125359  0.002
O  O272  1  0.51109473  0.96669007  0.75204840  1  -1.110589  0.110583  -0.322764  -0.551182  0.071339  2.418673  0.1
O  O273  1  0.58093807  0.88383532  0.75966841  1  -1.165909  0.001934  -0.317405  -0.546061  0.000331  2.122192  0.002
O  O274  1  0.98537687  0.02233203  0.74294247  1  -1.109905  0.110858  -0.322712  -0.551388  0.071492  2.41797  0.101
O  O275  1  0.91221252  0.10403132  0.73376759  1  -1.167667  0.00187  -0.319424  -0.548368  0.000282  2.118251  0.002
O  O276  1  0.73507331  0.24435058  0.77279599  1  -1.106508  0.111358  -0.322442  -0.550658  0.071729  2.417555  0.101
O  O277  1  0.67175800  0.25201224  0.86317299  1  -1.167205  0.002008  -0.318245  -0.547767  0.000375  2.122333  0.002
O  O278  1  0.25313127  0.23833247  0.70956102  1  -1.113368  0.109249  -0.323049  -0.552311  0.070504  2.42479  0.099
O  O279  1  0.31920662  0.24172107  0.62421072  1  -1.169254  0.001773  -0.317453  -0.546448  0.000219  2.126566  0.002
O  O280  1  0.45652598  0.21478095  0.96669139  1  -1.115981  0.110528  -0.322358  -0.550814  0.071213  2.419193  0.1
O  O281  1  0.30405475  0.12432281  0.88376366  1  -1.172601  0.001938  -0.317866  -0.54691  0.000338  2.122764  0.002
O  O282  1  0.03744429  0.27940119  0.02209371  1  -1.11681  0.111001  -0.323171  -0.551509  0.07165  2.419714  0.101
O  O283  1  0.19235569  0.37016863  0.10391032  1  -1.169035  0.001877  -0.319241  -0.547428  0.000284  2.12091  0.002
O  O284  1  0.49064829  0.52881463  0.75568887  1  -1.113632  0.111443  -0.322194  -0.550275  0.071726  2.416124  0.101
O  O285  1  0.41940914  0.61143476  0.74795527  1  -1.169386  0.002008  -0.318667  -0.547808  0.000374  2.120987  0.002
O  O286  1  0.01476079  0.47134899  0.76157586  1  -1.107886  0.109456  -0.323553  -0.55297  0.070538  2.425259  0.099
O  O287  1  0.07798375  0.38262016  0.75801605  1  -1.159919  0.001777  -0.317816  -0.54654  0.00022  2.125987  0.002
O  O288  1  0.24182933  0.75195070  0.78524284  1  -1.111569  0.110862  -0.322384  -0.55082  0.071354  2.418619  0.101
O  O289  1  0.17972692  0.75942024  0.87569820  1  -1.164004  0.00197  -0.317797  -0.546699  0.000352  2.123807  0.002
O  O290  1  0.75819075  0.74308417  0.72069404  1  -1.109344  0.11102  -0.32285  -0.55116  0.071508  2.418047  0.101
O  O291  1  0.82177662  0.73367996  0.62966503  1  -1.16296  0.001891  -0.318587  -0.547527  0.000298  2.122299  0.002
O  O292  1  0.96199805  0.22711940  0.47137480  1  -1.120621  0.111543  -0.321926  -0.550933  0.071998  2.417156  0.101
O  O293  1  0.80787375  0.13674685  0.38886588  1  -1.16996  0.002006  -0.318999  -0.54839  0.00037  2.120403  0.002
O  O294  1  0.54348402  0.29048508  0.52885903  1  -1.120751  0.109448  -0.323212  -0.552257  0.070554  2.423938  0.099
O  O295  1  0.69502348  0.37575636  0.61760289  1  -1.170973  0.001779  -0.317529  -0.5466  0.00023  2.125468  0.002
O  O296  1  0.48889812  0.03330476  0.24794474  1  -1.110213  0.110569  -0.32278  -0.551162  0.071331  2.418535  0.1
O  O297  1  0.41904752  0.11615531  0.24031762  1  -1.16567  0.001933  -0.317425  -0.546145  0.00033  2.121979  0.002
O  O298  1  0.01461747  0.97766841  0.25705062  1  -1.110358  0.110859  -0.322717  -0.551308  0.071491  2.418045  0.101
O  O299  1  0.08777161  0.89596913  0.26622315  1  -1.167459  0.00187  -0.319444  -0.548361  0.000282  2.118618  0.002
