# generated using pymatgen
data_ZnH14C18BrN7O4
_symmetry_space_group_name_H-M   'P 1'
_cell_length_a   11.07535590
_cell_length_b   16.13311056
_cell_length_c   17.26898879
_cell_angle_alpha   95.87404798
_cell_angle_beta   90.67879275
_cell_angle_gamma   92.40889435
_symmetry_Int_Tables_number   1
_chemical_formula_structural   ZnH14C18BrN7O4
_chemical_formula_sum   'Zn2 H28 C36 Br2 N14 O8'
_cell_volume   3066.30292963
_cell_formula_units_Z   2
loop_
 _symmetry_equiv_pos_site_id
 _symmetry_equiv_pos_as_xyz
  1  'x, y, z'
loop_
 _atom_site_type_symbol
 _atom_site_label
 _atom_site_symmetry_multiplicity
 _atom_site_fract_x
 _atom_site_fract_y
 _atom_site_fract_z
 _atom_site_occupancy
 _atom_site_pbe_bader_charge
 _atom_site_pbe_bader_spin_density
 _atom_site_pbe_cm5_charge
 _atom_site_pbe_ddec_charge
 _atom_site_pbe_ddec_spin_density
 _atom_site_pbe_ddec_sum_bond_order
 _atom_site_pbe_magmom
Zn  Zn0  1  0.49703534  0.41043085  0.49987565  1  1.292985  0  0.679317  0.858324  0  2.334024  0
Zn  Zn1  1  0.50467192  0.59505967  0.50602823  1  1.296048  0  0.677869  0.842369  0  2.377835  0
H  H2  1  0.38921906  0.71734405  0.42622071  1  0.110688  0  0.122182  0.103137  0  0.983958  0
H  H3  1  0.37833370  0.87337988  0.42989762  1  0.102334  0  0.110195  0.124808  0  1.012809  0
H  H4  1  0.30708124  0.11258597  0.42455145  1  0.070012  0  0.10749  0.130758  0  1.007389  0
H  H5  1  0.63656093  0.12080808  0.56066111  1  0.091812  0  0.09802  0.118111  0  1.043963  0
H  H6  1  0.52314013  0.61848110  0.26757488  1  0.085493  0  0.099022  0.108803  0  1.008064  0
H  H7  1  0.52520198  0.61737089  0.12185384  1  0.090775  0  0.098184  0.104226  0  1.026323  0
H  H8  1  0.52581030  0.66134995  0.90524276  1  0.059424  0  0.098824  0.113283  0  1.018941  0
H  H9  1  0.48696059  0.39443765  0.89121923  1  0.066193  0  0.091896  0.103357  0  1.050832  0
H  H10  1  0.76330726  0.55531216  0.38349791  1  0.048086  0  0.10264  0.114515  0  1.021511  0
H  H11  1  0.86282898  0.59648014  0.26589774  1  0.072024  0  0.105494  0.103891  0  0.989469  0
H  H12  1  0.21268041  0.55715717  0.36434752  1  0.037848  0  0.102993  0.112777  0  1.006416  0
H  H13  1  0.08806277  0.59619090  0.25577174  1  0.056765  0  0.103935  0.101316  0  0.990108  0
H  H14  1  0.69662803  0.66975559  0.58891877  1  0.500939  0  0.305009  0.327402  0  0.975051  0
H  H15  1  0.70524929  0.75723570  0.65554697  1  0.460117  0  0.314157  0.307459  0  0.939174  0
H  H16  1  0.68939613  0.96591270  0.60758211  1  0.480973  0  0.306457  0.295086  0  0.965942  0
H  H17  1  0.76746691  0.87811948  0.62001461  1  0.449045  0  0.312064  0.300753  0  0.943528  0
H  H18  1  0.29302181  0.33963635  0.44216558  1  0.548058  0  0.300437  0.324642  0  0.994014  0
H  H19  1  0.23213480  0.24413108  0.40088381  1  0.445848  0  0.322468  0.319374  0  0.916066  0
H  H20  1  0.68243548  0.34391552  0.56051295  1  0.509921  0  0.291277  0.30494  0  1.025262  0
H  H21  1  0.72846619  0.25449870  0.59528755  1  0.440265  0  0.31214  0.310307  0  0.926061  0
H  H22  1  0.50736071  0.33445760  0.30709975  1  0.466993  0  0.292713  0.307926  0  0.994606  0
H  H23  1  0.54105008  0.28466194  0.21670860  1  0.423788  0  0.300321  0.28779  0  0.961486  0
H  H24  1  0.48507545  0.33781113  0.03390806  1  0.439744  0  0.295432  0.282457  0  0.986502  0
H  H25  1  0.44120106  0.28719834  0.11175196  1  0.430169  0  0.299096  0.285995  0  0.958257  0
H  H26  1  0.49291157  0.67029565  0.69819301  1  0.484173  0  0.292127  0.304805  0  1.004765  0
H  H27  1  0.50179190  0.72519494  0.79057146  1  0.450903  0  0.303127  0.296775  0  0.945824  0
H  H28  1  0.48811805  0.36381702  0.68206497  1  0.533744  0  0.289874  0.305752  0  1.013133  0
H  H29  1  0.48138570  0.31849414  0.76963976  1  0.428961  0  0.302712  0.297696  0  0.940819  0
C  C30  1  0.51153615  0.49017280  0.35197488  1  1.483046  0  0.210182  0.597682  0  4.154437  0
C  C31  1  0.26479545  0.51231052  0.49724667  1  1.573143  0  0.218116  0.613503  0  4.183277  0
C  C32  1  0.49408697  0.51597853  0.65524963  1  1.447617  0  0.205395  0.604065  0  4.152845  0
C  C33  1  0.73980863  0.50161771  0.51317157  1  1.637507  0  0.222854  0.6147  0  4.195521  0
C  C34  1  0.44862539  0.75993770  0.46377626  1  0.36631  0  0.024498  0.075428  0  4.006966  0
C  C35  1  0.44229354  0.84494523  0.46623469  1  0.078816  0  -0.102128  -0.221593  0  4.033258  0
C  C36  1  0.52273446  0.89594583  0.51662670  1  0.399944  0  0.084864  0.093378  0  4.064736  0
C  C37  1  0.60574107  0.85844476  0.56299520  1  0.510593  0  0.114432  0.124362  0  4.014991  0
C  C38  1  0.60509512  0.76914416  0.55744622  1  1.029653  0  0.232552  0.360696  0  4.039155  0
C  C39  1  0.38198324  0.14804359  0.45526606  1  -0.013224  0  -0.11275  -0.352548  0  3.927184  0
C  C40  1  0.47054032  0.10672383  0.49214023  1  0.336984  0  0.084564  0.234906  0  4.141635  0
C  C41  1  0.56595299  0.15219549  0.53239591  1  0.068112  0  -0.136128  -0.38635  0  3.975956  0
C  C42  1  0.56969625  0.23926235  0.53470952  1  0.8748  0  0.21872  0.477922  0  4.087378  0
C  C43  1  0.38988364  0.23587388  0.46015545  1  0.993637  0  0.226497  0.476658  0  4.096163  0
C  C44  1  0.51103901  0.48495171  0.26578816  1  0.036623  0  -0.037781  -0.158009  0  3.972014  0
C  C45  1  0.51826818  0.56016195  0.22961133  1  -0.043076  0  -0.10645  -0.106629  0  4.071481  0
C  C46  1  0.51975856  0.55994546  0.14991289  1  -0.032129  0  -0.109417  -0.177765  0  4.054631  0
C  C47  1  0.51111633  0.48300340  0.10231253  1  0.400088  0  0.075424  0.080328  0  4.057134  0
C  C48  1  0.50383048  0.40716677  0.13651844  1  0.440467  0  0.099289  0.144598  0  4.005931  0
C  C49  1  0.50580343  0.40749343  0.21918010  1  0.43457  0  0.097191  0.200773  0  4.032335  0
C  C50  1  0.51458972  0.60191965  0.86919627  1  -0.066117  0  -0.121922  -0.315592  0  3.958208  0
C  C51  1  0.50702816  0.52856203  0.90568314  1  0.441428  0  0.077942  0.214302  0  4.134932  0
C  C52  1  0.49343172  0.45098985  0.86178033  1  -0.078489  0  -0.137654  -0.341363  0  3.991587  0
C  C53  1  0.48796424  0.44566636  0.78029125  1  0.483106  0  0.102617  0.335927  0  4.081847  0
C  C54  1  0.49682944  0.52038663  0.74096643  1  0.039416  0  -0.048351  -0.289173  0  3.849958  0
C  C55  1  0.50906610  0.59918879  0.78770894  1  0.448433  0  0.102277  0.33001  0  4.075683  0
C  C56  1  0.87547078  0.50577574  0.51111765  1  0.037782  0  -0.020316  -0.112755  0  3.964546  0
C  C57  1  0.93091742  0.53119070  0.44281897  1  -0.051805  0  -0.002355  0.067035  0  3.96569  0
C  C58  1  0.94462274  0.48459751  0.57253714  1  -0.077525  0  -0.027166  0.026389  0  3.981898  0
C  C59  1  0.86147472  0.55480554  0.37953830  1  0.017181  0  -0.089445  -0.125078  0  3.954875  0
C  C60  1  0.91737128  0.57824480  0.31381981  1  -0.025393  0  -0.093395  -0.083262  0  4.037925  0
C  C61  1  0.12910927  0.50981132  0.50215461  1  0.066352  0  -0.017093  -0.109194  0  3.937936  0
C  C62  1  0.07267955  0.48636417  0.56824807  1  -0.081899  0  -0.02505  0.027995  0  3.97626  0
C  C63  1  0.05997291  0.53272377  0.43803662  1  0.068271  0  -0.004813  0.064237  0  3.971481  0
C  C64  1  0.11455104  0.55626642  0.36897815  1  0.000314  0  -0.090643  -0.130638  0  3.97227  0
C  C65  1  0.04468534  0.57841365  0.30834955  1  -0.079373  0  -0.09195  -0.086059  0  4.048311  0
Br  Br66  1  0.16693923  0.45862992  0.65372494  1  -0.020255  0  0.034386  -0.028293  0  1.515583  0
Br  Br67  1  0.86452364  0.45550929  0.66362180  1  -0.04461  0  0.033598  -0.037439  0  1.477928  0
N  N68  1  0.52743661  0.72247255  0.50917925  1  -1.243367  0  -0.336224  -0.310702  0  3.484771  0
N  N69  1  0.53349203  0.98294425  0.52275143  1  -0.590844  0  -0.150349  -0.120979  0  3.332227  0
N  N70  1  0.45451828  0.01849811  0.48543373  1  -0.461437  0  -0.148486  -0.133507  0  3.213852  0
N  N71  1  0.48328341  0.28102032  0.49867887  1  -1.235667  0  -0.342619  -0.428465  0  3.298278  0
N  N72  1  0.50447572  0.47370694  0.02103105  1  -0.568017  0  -0.15956  -0.128818  0  3.354905  0
N  N73  1  0.51530281  0.54051315  0.98802630  1  -0.532169  0  -0.157349  -0.143776  0  3.24808  0
N  N74  1  0.68979210  0.73298954  0.59955481  1  -1.255447  0  -0.584417  -0.627393  0  3.304241  0
N  N75  1  0.68612342  0.90373339  0.61346922  1  -1.255026  0  -0.583874  -0.578994  0  3.345457  0
N  N76  1  0.30458182  0.27771828  0.42505291  1  -1.28946  0  -0.577565  -0.625435  0  3.297182  0
N  N77  1  0.65885096  0.28589504  0.57595715  1  -1.266573  0  -0.589488  -0.640483  0  3.324448  0
N  N78  1  0.49749295  0.33079814  0.24796079  1  -1.222631  0  -0.601075  -0.61039  0  3.334916  0
N  N79  1  0.49806616  0.33091574  0.09139322  1  -1.193738  0  -0.597571  -0.599574  0  3.33657  0
N  N80  1  0.52042072  0.67358125  0.75505788  1  -1.263483  0  -0.606004  -0.630127  0  3.32885  0
N  N81  1  0.46947717  0.36840505  0.73987309  1  -1.30229  0  -0.602694  -0.620669  0  3.341811  0
O  O82  1  0.50308075  0.42173707  0.38409395  1  -1.173682  0  -0.313632  -0.545898  0  2.384565  0
O  O83  1  0.52075047  0.56249701  0.39007089  1  -1.174488  0  -0.321025  -0.558365  0  2.34974  0
O  O84  1  0.31772123  0.58323731  0.49707269  1  -1.150331  0  -0.301848  -0.52209  0  2.303674  0
O  O85  1  0.31481022  0.44232224  0.49280779  1  -1.187436  0  -0.309205  -0.569152  0  2.401254  0
O  O86  1  0.48487936  0.58339282  0.62224092  1  -1.173428  0  -0.319338  -0.555499  0  2.386024  0
O  O87  1  0.50187988  0.44441924  0.61549324  1  -1.185424  0  -0.320227  -0.563306  0  2.424845  0
O  O88  1  0.68763472  0.43007393  0.49908762  1  -1.170174  0  -0.30498  -0.542399  0  2.35413  0
O  O89  1  0.68812491  0.57028895  0.52490354  1  -1.179315  0  -0.300529  -0.545964  0  2.377257  0
