# generated using pymatgen
data_CoH6(C3N2)2
_symmetry_space_group_name_H-M   'P 1'
_cell_length_a   8.85671386
_cell_length_b   9.89055777
_cell_length_c   14.45031423
_cell_angle_alpha   82.11224855
_cell_angle_beta   72.16013364
_cell_angle_gamma   63.41514065
_symmetry_Int_Tables_number   1
_chemical_formula_structural   CoH6(C3N2)2
_chemical_formula_sum   'Co4 H24 C24 N16'
_cell_volume   1077.55490901
_cell_formula_units_Z   4
loop_
 _symmetry_equiv_pos_site_id
 _symmetry_equiv_pos_as_xyz
  1  'x, y, z'
loop_
 _atom_site_type_symbol
 _atom_site_label
 _atom_site_symmetry_multiplicity
 _atom_site_fract_x
 _atom_site_fract_y
 _atom_site_fract_z
 _atom_site_occupancy
 _atom_site_hle17_ddec_charge
 _atom_site_hle17_ddec_spin_density
 _atom_site_hle17_ddec_sum_bond_order
 _atom_site_hle17_magmom
 _atom_site_hse06_10hf_ddec_charge
 _atom_site_hse06_10hf_ddec_spin_density
 _atom_site_hse06_10hf_ddec_sum_bond_order
 _atom_site_hse06_10hf_magmom
 _atom_site_hse06_ddec_charge
 _atom_site_hse06_ddec_spin_density
 _atom_site_hse06_ddec_sum_bond_order
 _atom_site_hse06_magmom
 _atom_site_pbe_cm5_charge
 _atom_site_pbe_ddec_charge
 _atom_site_pbe_ddec_spin_density
 _atom_site_pbe_ddec_sum_bond_order
 _atom_site_pbe_magmom
Co  Co0  1  0.60497085  0.41999571  0.87216845  1  0.791326  -2.796373  2.257429  -2.503  0.715142  -2.797361  2.713222  -2.545  0.797387  -2.850013  2.64342  -2.64  0.710771  0.65008  -2.747389  2.767684  -2.459
Co  Co1  1  0.89731532  0.57983872  0.12773809  1  0.790184  -2.787354  2.255302  -2.495  0.714208  -2.789342  2.711394  -2.539  0.797029  -2.845832  2.641666  -2.637  0.709529  0.648276  -2.730132  2.765635  -2.445
Co  Co2  1  0.22705240  0.92001796  0.62795088  1  0.790774  -2.79137  2.257564  -2.496  0.715107  -2.7932  2.713587  -2.54  0.797641  -2.848876  2.644042  -2.637  0.710344  0.649652  -2.73623  2.767477  -2.448
Co  Co3  1  0.77504857  0.07981879  0.37218503  1  0.789266  2.819754  2.255263  2.489  0.713675  2.769358  2.711721  2.533  0.796943  2.839522  2.641979  2.634  0.708383  0.647033  2.693794  2.765774  2.433
H  H4  1  0.19913034  0.54262746  0.93885646  1  0.07257  0.000313  0.973871  0.0  0.078241  -0.000219  1.044988  -0.001  0.079626  -0.00013  1.043253  0.0  0.122179  0.07735  -0.000308  1.046171  -0.001
H  H5  1  0.68063176  0.45727945  0.06107573  1  0.070399  0.000325  0.974701  0.0  0.076535  -0.000201  1.045571  -0.001  0.07784  -0.000122  1.043908  0.0  0.121566  0.075679  -0.000278  1.046716  -0.001
H  H6  1  0.88794824  0.04254284  0.56118608  1  0.07125  6e-05  0.974047  0.0  0.077247  5.6e-05  1.045056  0.0  0.078543  6.1e-05  1.043373  0.0  0.121936  0.076411  5.2e-05  1.046235  0.0
H  H7  1  0.49141988  0.95737863  0.43887298  1  0.071484  -6.1e-05  0.974318  0.0  0.077573  -6.9e-05  1.045194  0.0  0.078884  -6.5e-05  1.043481  0.0  0.121812  0.076718  -7.4e-05  1.046391  0.0
H  H8  1  0.56712187  0.27197000  0.09281124  1  0.093031  -0.000431  0.968666  -0.001  0.102826  -0.000688  1.029267  -0.001  0.104479  -0.000488  1.028912  -0.001  0.111872  0.101759  -0.0009  1.029573  -0.001
H  H9  1  0.93182879  0.72805284  0.90714966  1  0.093027  -0.000364  0.969365  -0.001  0.102651  -0.000585  1.030118  -0.001  0.104329  -0.000402  1.029785  -0.001  0.112027  0.101578  -0.000781  1.030404  -0.001
H  H10  1  0.40997255  0.77255962  0.40708756  1  0.092715  0.000173  0.968442  0.0  0.102408  8.6e-05  1.029187  0.0  0.10412  6.8e-05  1.028735  0.0  0.111832  0.101279  0.000103  1.029593  0.0
H  H11  1  0.58956731  0.22739102  0.59288971  1  0.092751  -9.8e-05  0.96802  0.0  0.102662  -2e-06  1.028543  0.0  0.104287  5e-06  1.028207  0.0  0.111954  0.10157  -1.1e-05  1.028872  0.0
H  H12  1  0.23019560  0.35812555  0.21699546  1  0.088826  -0.000303  0.962004  -0.001  0.099876  -0.00065  1.01949  -0.001  0.101769  -0.000458  1.018874  -0.001  0.110591  0.098658  -0.000854  1.01989  -0.001
H  H13  1  0.80520211  0.64188366  0.78296636  1  0.088804  -0.000264  0.96233  -0.001  0.100003  -0.00059  1.019618  -0.001  0.101869  -0.000409  1.019027  -0.001  0.110696  0.098801  -0.000783  1.020012  -0.001
H  H14  1  0.19689767  0.85811167  0.28303717  1  0.089739  -0.000201  0.9615  0.0  0.100615  -0.000147  1.01913  0.0  0.102503  -0.00011  1.018515  0.0  0.110977  0.099374  -0.000185  1.019558  0.0
H  H15  1  0.33803966  0.14187608  0.71700336  1  0.089927  0.000241  0.962027  0.0  0.10095  0.000196  1.019417  0.0  0.102841  0.000154  1.018799  0.0  0.111041  0.09971  0.000238  1.019857  0.0
H  H16  1  0.47050928  0.75600214  0.77319692  1  0.073313  0.000194  0.9432  0.0  0.082617  -0.000252  1.005455  -0.001  0.084374  -0.000155  1.00273  0.0  0.12574  0.081312  -0.000353  1.007614  -0.001
H  H17  1  0.99951681  0.24403421  0.22670474  1  0.073319  8.4e-05  0.942388  0.0  0.082943  0.000181  1.00436  0.0  0.084691  0.000139  1.001611  0.0  0.125767  0.081689  0.000225  1.006503  0.0
H  H18  1  0.99367373  0.25613678  0.72683832  1  0.072836  0.000201  0.943719  0.0  0.082033  -0.00024  1.006118  -0.001  0.08378  -0.000146  1.003409  0.0  0.125647  0.080757  -0.000337  1.008253  -0.001
H  H19  1  0.97631117  0.74395939  0.27326674  1  0.072577  -0.000137  0.942137  0.0  0.082164  -0.000301  1.00421  0.0  0.083904  -0.000227  1.001475  0.0  0.125594  0.080905  -0.00038  1.006358  0.0
H  H20  1  0.41723619  0.36451511  0.73935505  1  0.092596  -0.000476  0.96906  -0.001  0.103745  -0.000741  1.028811  -0.001  0.105186  -0.000538  1.028835  -0.001  0.111688  0.102819  -0.00095  1.028808  -0.001
H  H21  1  0.52124467  0.63576966  0.26094500  1  0.092654  0.000128  0.970126  0.0  0.104403  -3.9e-05  1.029035  0.0  0.105793  -3.3e-05  1.029119  0.0  0.112003  0.103491  -4.3e-05  1.029024  0.0
H  H22  1  0.90672540  0.86455744  0.76063509  1  0.092867  -0.000465  0.969726  -0.001  0.104591  -0.000718  1.028633  -0.001  0.105968  -0.000519  1.028723  -0.001  0.112288  0.103706  -0.000923  1.028591  -0.001
H  H23  1  0.53228318  0.13574205  0.23903453  1  0.09245  -9.3e-05  0.970383  0.0  0.103844  9.8e-05  1.02974  0.0  0.105232  8.3e-05  1.029799  0.0  0.111769  0.102942  0.000112  1.029722  0.0
H  H24  1  0.24996944  0.59188419  0.62029410  1  0.095929  -0.000295  0.955847  -0.001  0.106591  -0.000584  1.011882  -0.001  0.108622  -0.000406  1.011385  -0.001  0.113039  0.105238  -0.000767  1.012238  -0.001
H  H25  1  0.46205101  0.40794273  0.37949381  1  0.096626  -0.000213  0.955615  0.0  0.107056  -7.3e-05  1.011757  0.0  0.109074  -5.9e-05  1.011274  0.0  0.113313  0.105671  -9.1e-05  1.012165  0.0
H  H26  1  0.62038038  0.09186805  0.87966101  1  0.095789  -0.000273  0.954819  -0.001  0.106534  -0.000565  1.010947  -0.001  0.108567  -0.000389  1.01046  -0.001  0.113334  0.105211  -0.000746  1.01126  -0.001
H  H27  1  0.59155886  0.90793275  0.12047384  1  0.096205  0.000217  0.954965  0.0  0.106898  6.1e-05  1.010907  0.0  0.10899  5.6e-05  1.010339  0.0  0.113341  0.105492  6.7e-05  1.011334  0.0
C  C28  1  0.25298360  0.48179021  0.99820250  1  0.18656  -0.002405  3.747483  -0.004  0.143723  -0.01064  4.014452  -0.014  0.158537  -0.008462  4.033443  -0.011  0.113169  0.133097  -0.012453  4.000553  -0.016
C  C29  1  0.73303134  0.51810115  0.00173688  1  0.191141  -0.002361  3.743664  -0.004  0.147938  -0.010591  4.010377  -0.014  0.162852  -0.00842  4.029322  -0.011  0.115207  0.137221  -0.012409  3.996558  -0.016
C  C30  1  0.00112890  0.98193875  0.50180357  1  0.190856  -0.001136  3.743046  -0.002  0.147324  -0.000679  4.010013  -0.001  0.162394  -0.000559  4.028969  -0.001  0.114549  0.136464  -0.000817  3.996048  -0.001
C  C31  1  0.48463362  0.01798997  0.49825233  1  0.187704  0.001117  3.743059  0.002  0.144146  0.000574  4.010134  0.001  0.159253  0.000517  4.029056  0.001  0.113338  0.133227  0.000607  3.996248  0.001
C  C32  1  0.44064773  0.34251957  0.07931896  1  -0.033369  -0.003009  3.794622  -0.004  -0.06021  -0.004529  4.055558  -0.006  -0.058201  -0.002855  4.079532  -0.004  -0.021695  -0.061678  -0.006497  4.038648  -0.008
C  C33  1  0.86236308  0.65751940  0.92065414  1  -0.03423  -0.003098  3.797412  -0.004  -0.06098  -0.00449  4.058443  -0.006  -0.059038  -0.002809  4.082439  -0.004  -0.022534  -0.062387  -0.006489  4.041492  -0.008
C  C34  1  0.27000511  0.84302229  0.42055913  1  -0.033019  0.009978  3.793617  0.013  -0.059535  0.003231  4.054521  0.004  -0.057458  0.002608  4.078403  0.003  -0.02275  -0.061215  0.003925  4.037756  0.005
C  C35  1  0.53345740  0.15695125  0.57944705  1  -0.033695  -0.009873  3.794527  -0.013  -0.060515  -0.003276  4.055327  -0.004  -0.058432  -0.002608  4.079359  -0.003  -0.022663  -0.062128  -0.004062  4.038417  -0.005
C  C36  1  0.27334687  0.38442332  0.14083362  1  -0.037337  -0.006702  3.801437  -0.009  -0.063345  -0.00681  4.060899  -0.009  -0.062227  -0.004786  4.085582  -0.006  -0.023548  -0.064067  -0.009216  4.043312  -0.011
C  C37  1  0.79841852  0.61562868  0.85914099  1  -0.038664  -0.006599  3.801451  -0.009  -0.064769  -0.006746  4.060761  -0.009  -0.063689  -0.004744  4.085489  -0.006  -0.024242  -0.065424  -0.009117  4.043082  -0.011
C  C38  1  0.16408893  0.88440480  0.35917894  1  -0.040019  -0.010319  3.801768  -0.013  -0.065738  -0.003565  4.061195  -0.004  -0.06458  -0.002806  4.085902  -0.003  -0.024263  -0.066567  -0.004521  4.043618  -0.005
C  C39  1  0.40755611  0.11557265  0.64086333  1  -0.040462  0.010426  3.803662  0.013  -0.066123  0.003541  4.062848  0.004  -0.065015  0.002823  4.087604  0.003  -0.024361  -0.066896  0.004396  4.04519  0.005
C  C40  1  0.43326973  0.68019919  0.74762227  1  0.187179  0.000829  3.75447  0.0  0.144632  -0.00847  4.02289  -0.011  0.159989  -0.006641  4.041194  -0.009  0.115647  0.133409  -0.009941  4.009827  -0.013
C  C41  1  0.86097237  0.31978220  0.25228592  1  0.188157  0.000667  3.748315  0.0  0.144951  0.000429  4.017022  0.0  0.160457  0.000284  4.035383  0.0  0.115405  0.133541  0.000558  4.003816  0.0
C  C42  1  0.93093178  0.18028814  0.75242954  1  0.187837  0.000787  3.750579  0.0  0.145507  -0.008454  4.019116  -0.011  0.160862  -0.006627  4.037401  -0.009  0.115211  0.134283  -0.009944  4.006059  -0.013
C  C43  1  0.86328165  0.81970671  0.24772474  1  0.188748  -0.000646  3.748425  0.0  0.145569  -0.000511  4.017238  0.0  0.161087  -0.000311  4.035613  0.0  0.115753  0.134178  -0.000726  4.003974  0.0
C  C44  1  0.40319239  0.47971336  0.72871992  1  -0.036142  -0.002106  3.79694  -0.003  -0.06318  -0.00394  4.05799  -0.005  -0.06168  -0.002384  4.08202  -0.003  -0.022461  -0.064361  -0.005721  4.04129  -0.007
C  C45  1  0.61162465  0.52052515  0.27156379  1  -0.037075  0.006179  3.796758  0.008  -0.064281  0.000782  4.057415  0.001  -0.062644  0.000434  4.081436  0.001  -0.023091  -0.065703  0.001209  4.040768  0.001
C  C46  1  0.88204770  0.97977123  0.77130690  1  -0.037025  -0.002087  3.798608  -0.002  -0.064344  -0.003943  4.059696  -0.005  -0.062816  -0.002388  4.083792  -0.003  -0.022421  -0.065538  -0.005719  4.042952  -0.007
C  C47  1  0.63323469  0.02047520  0.22842404  1  -0.038727  -0.006051  3.797328  -0.008  -0.065741  -0.000718  4.058452  -0.001  -0.06411  -0.000355  4.082559  -0.001  -0.02378  -0.067146  -0.001197  4.041728  -0.002
C  C48  1  0.31954528  0.59261768  0.67016956  1  -0.031462  -0.005241  3.794482  -0.007  -0.057433  -0.00608  4.053279  -0.008  -0.055377  -0.004421  4.076383  -0.006  -0.020539  -0.059001  -0.007984  4.037241  -0.011
C  C49  1  0.58220837  0.40739136  0.32973003  1  -0.031587  -0.005776  3.794156  -0.007  -0.057203  -0.000395  4.053208  0.0  -0.055107  -0.000168  4.076355  0.0  -0.020452  -0.058877  -0.000721  4.037161  -0.001
C  C50  1  0.73986933  0.09261122  0.82985560  1  -0.029665  -0.005226  3.79125  -0.007  -0.055939  -0.006073  4.050516  -0.008  -0.053928  -0.004417  4.073675  -0.006  -0.019981  -0.057446  -0.007974  4.034375  -0.011
C  C51  1  0.66196468  0.90739095  0.17023624  1  -0.030866  0.005859  3.789352  0.007  -0.056604  0.000384  4.048023  0.0  -0.05461  0.000185  4.071172  0.0  -0.020419  -0.058192  0.000653  4.031938  0.0
N  N52  1  0.42668408  0.40521667  0.98901453  1  -0.382307  -0.051551  3.374532  -0.078  -0.328766  -0.0376  3.682724  -0.047  -0.360908  -0.028832  3.700046  -0.034  -0.38544  -0.30426  -0.045731  3.67007  -0.058
N  N53  1  0.82094181  0.59472182  0.01095177  1  -0.382762  -0.051066  3.372435  -0.077  -0.329213  -0.037171  3.680851  -0.046  -0.361431  -0.028563  3.698095  -0.034  -0.385798  -0.304589  -0.045021  3.668271  -0.057
N  N54  1  0.16576053  0.90584922  0.51087283  1  -0.383512  -0.046259  3.370905  -0.069  -0.330219  -0.032599  3.67953  -0.04  -0.362751  -0.025553  3.697138  -0.029  -0.385014  -0.305034  -0.038778  3.666148  -0.048
N  N55  1  0.58231797  0.09408037  0.48913414  1  -0.380653  0.046375  3.367828  0.068  -0.32724  0.031933  3.676396  0.039  -0.359883  0.025191  3.693978  0.029  -0.383874  -0.3019  0.037628  3.663083  0.047
N  N56  1  0.15466055  0.47276040  0.08878710  1  -0.388268  -0.04915  3.385378  -0.072  -0.335751  -0.03608  3.698496  -0.042  -0.368152  -0.027467  3.715861  -0.03  -0.387764  -0.310989  -0.044029  3.685646  -0.053
N  N57  1  0.71615197  0.52717935  0.91117320  1  -0.387188  -0.049324  3.383057  -0.072  -0.334864  -0.036172  3.696285  -0.042  -0.367197  -0.027502  3.713573  -0.03  -0.386837  -0.310179  -0.044212  3.683509  -0.053
N  N58  1  0.99326152  0.97246013  0.41132607  1  -0.387443  0.046648  3.383735  0.068  -0.335297  0.032372  3.697296  0.038  -0.368103  0.025419  3.714981  0.028  -0.386727  -0.309852  0.038354  3.683791  0.046
N  N59  1  0.37690098  0.02747154  0.58874022  1  -0.385752  -0.046167  3.382787  -0.068  -0.333823  -0.032641  3.69635  -0.038  -0.366542  -0.025489  3.713995  -0.028  -0.386405  -0.308507  -0.038927  3.682879  -0.046
N  N60  1  0.47523745  0.53587824  0.77752616  1  -0.387692  -0.052654  3.393054  -0.079  -0.335401  -0.039017  3.706294  -0.048  -0.367645  -0.030243  3.723941  -0.035  -0.386188  -0.310927  -0.047069  3.693613  -0.059
N  N61  1  0.78870163  0.46435390  0.22276685  1  -0.386758  -0.0444  3.388967  -0.065  -0.334906  -0.031521  3.703091  -0.036  -0.367625  -0.024848  3.721042  -0.027  -0.385429  -0.309635  -0.03718  3.68974  -0.044
N  N62  1  0.00284208  0.03596888  0.72252164  1  -0.38769  -0.052489  3.392915  -0.078  -0.335825  -0.038921  3.706861  -0.048  -0.368067  -0.030202  3.724386  -0.035  -0.386799  -0.311338  -0.046891  3.694221  -0.059
N  N63  1  0.76153386  0.96428266  0.27722387  1  -0.385449  0.04479  3.38933  0.065  -0.333584  0.031222  3.703352  0.036  -0.366373  0.024757  3.721328  0.027  -0.384732  -0.308207  0.036548  3.689937  0.043
N  N64  1  0.33919054  0.71956284  0.68245296  1  -0.385239  -0.050471  3.389855  -0.072  -0.33354  -0.037822  3.705239  -0.043  -0.365821  -0.029078  3.722138  -0.031  -0.387538  -0.30903  -0.045716  3.693128  -0.054
N  N65  1  0.74101080  0.28023691  0.31722004  1  -0.386041  0.04605  3.382991  0.064  -0.334439  0.032816  3.698995  0.036  -0.367196  0.025904  3.716222  0.026  -0.386803  -0.309123  0.038504  3.686242  0.044
N  N66  1  0.77172437  0.21958871  0.81758550  1  -0.386352  -0.050782  3.3858  -0.073  -0.33458  -0.038073  3.701146  -0.044  -0.36683  -0.029229  3.718092  -0.031  -0.388012  -0.310105  -0.046125  3.688986  -0.054
N  N67  1  0.80824162  0.78023011  0.18276778  1  -0.384971  -0.045677  3.38064  -0.065  -0.333542  -0.033226  3.696645  -0.037  -0.366268  -0.026072  3.713962  -0.027  -0.386748  -0.308279  -0.039271  3.683754  -0.045
