# generated using pymatgen
data_YH8C6NO7
_symmetry_space_group_name_H-M   'P 1'
_cell_length_a   6.59311108
_cell_length_b   6.77913195
_cell_length_c   19.50989705
_cell_angle_alpha   93.03726417
_cell_angle_beta   90.00016415
_cell_angle_gamma   89.99998684
_symmetry_Int_Tables_number   1
_chemical_formula_structural   YH8C6NO7
_chemical_formula_sum   'Y4 H32 C24 N4 O28'
_cell_volume   870.78104898
_cell_formula_units_Z   4
loop_
 _symmetry_equiv_pos_site_id
 _symmetry_equiv_pos_as_xyz
  1  'x, y, z'
loop_
 _atom_site_type_symbol
 _atom_site_label
 _atom_site_symmetry_multiplicity
 _atom_site_fract_x
 _atom_site_fract_y
 _atom_site_fract_z
 _atom_site_occupancy
 _atom_site_hle17_bader_spin_density
 _atom_site_hle17_ddec_charge
 _atom_site_hle17_ddec_spin_density
 _atom_site_hle17_ddec_sum_bond_order
 _atom_site_hle17_magmom
 _atom_site_hse06_10hf_bader_spin_density
 _atom_site_hse06_10hf_ddec_charge
 _atom_site_hse06_10hf_ddec_spin_density
 _atom_site_hse06_10hf_ddec_sum_bond_order
 _atom_site_hse06_10hf_magmom
 _atom_site_hse06_bader_spin_density
 _atom_site_hse06_ddec_charge
 _atom_site_hse06_ddec_spin_density
 _atom_site_hse06_ddec_sum_bond_order
 _atom_site_hse06_magmom
 _atom_site_pbe_bader_spin_density
 _atom_site_pbe_cm5_charge
 _atom_site_pbe_ddec_charge
 _atom_site_pbe_ddec_spin_density
 _atom_site_pbe_ddec_sum_bond_order
 _atom_site_pbe_magmom
Y  Y0  1  0.25921821  0.76851914  0.89788753  1  0  1.990327  0  1.923563  0  0  1.781637  0  2.422033  0  0  1.855267  0  2.35595  0  0  1.290974  1.728351  0  2.466719  0
Y  Y1  1  0.75921309  0.73147954  0.60210929  1  0  1.990299  0  1.923464  0  0  1.781533  0  2.422045  0  0  1.855171  0  2.355953  0  0  1.290965  1.72813  0  2.466927  0
Y  Y2  1  0.74078422  0.23147947  0.10211187  1  0  1.990324  0  1.923566  0  0  1.781588  0  2.4221  0  0  1.855224  0  2.356018  0  0  1.290961  1.728329  0  2.466724  0
Y  Y3  1  0.24078479  0.26852054  0.39789115  1  0  1.990274  0  1.923514  0  0  1.781528  0  2.422069  0  0  1.855163  0  2.355978  0  0  1.290973  1.728123  0  2.466967  0
H  H4  1  0.18321577  0.27533389  0.79463552  1  0  0.107334  0  0.922975  0  0  0.121988  0  0.983076  0  0  0.12441  0  0.980446  0  0  0.120044  0.120193  0  0.985161  0
H  H5  1  0.68321911  0.22466397  0.70536211  1  0  0.107346  0  0.923052  0  0  0.122042  0  0.983094  0  0  0.124465  0  0.980463  0  0  0.120065  0.120237  0  0.985191  0
H  H6  1  0.81678363  0.72466325  0.20536334  1  0  0.107352  0  0.923019  0  0  0.122036  0  0.983093  0  0  0.124458  0  0.980462  0  0  0.120056  0.120233  0  0.985175  0
H  H7  1  0.31677726  0.77533907  0.29463891  1  0  0.107364  0  0.923052  0  0  0.122086  0  0.983043  0  0  0.124511  0  0.98041  0  0  0.120102  0.12027  0  0.985149  0
H  H8  1  0.98497406  0.19078894  0.84505460  1  0  0.12104  0  0.934032  0  0  0.132556  0  0.992777  0  0  0.136261  0  0.989612  0  0  0.117305  0.129898  0  0.99515  0
H  H9  1  0.48497864  0.30921184  0.65494388  1  0  0.121074  0  0.933992  0  0  0.132557  0  0.992796  0  0  0.136262  0  0.989631  0  0  0.117298  0.129897  0  0.995165  0
H  H10  1  0.01502686  0.80920967  0.15494531  1  0  0.121035  0  0.934052  0  0  0.132564  0  0.992796  0  0  0.136268  0  0.98963  0  0  0.117304  0.1299  0  0.995168  0
H  H11  1  0.51501773  0.69078972  0.34505659  1  0  0.121024  0  0.934041  0  0  0.132538  0  0.992795  0  0  0.136242  0  0.989629  0  0  0.117297  0.129878  0  0.995167  0
H  H12  1  0.82364615  0.49788002  0.75081919  1  0  0.102559  0  0.961624  0  0  0.11202  0  1.028594  0  0  0.115013  0  1.026518  0  0  0.113191  0.109856  0  1.030253  0
H  H13  1  0.32364704  0.00212225  0.74917968  1  0  0.102566  0  0.961607  0  0  0.112015  0  1.02859  0  0  0.11501  0  1.026514  0  0  0.113214  0.109853  0  1.030259  0
H  H14  1  0.17635477  0.50211858  0.24918175  1  0  0.102553  0  0.961557  0  0  0.112022  0  1.028529  0  0  0.115015  0  1.026455  0  0  0.113204  0.109865  0  1.030195  0
H  H15  1  0.67634933  0.99787635  0.25082125  1  0  0.102564  0  0.961606  0  0  0.112055  0  1.028546  0  0  0.115055  0  1.026461  0  0  0.113213  0.109893  0  1.030217  0
H  H16  1  0.08915369  0.49290054  0.73641124  1  0  0.115326  0  0.912363  0  0  0.132092  0  0.965664  0  0  0.134565  0  0.963976  0  0  0.125681  0.130301  0  0.967036  0
H  H17  1  0.58915453  0.00709141  0.76358669  1  0  0.11527  0  0.912329  0  0  0.132038  0  0.965644  0  0  0.134516  0  0.96395  0  0  0.125668  0.130243  0  0.967026  0
H  H18  1  0.91084723  0.50709954  0.26358869  1  0  0.115316  0  0.912347  0  0  0.132091  0  0.965646  0  0  0.134565  0  0.963956  0  0  0.125677  0.130304  0  0.967023  0
H  H19  1  0.41084335  0.99290867  0.23641376  1  0  0.115322  0  0.912349  0  0  0.132091  0  0.965649  0  0  0.134568  0  0.963956  0  0  0.125709  0.130304  0  0.967031  0
H  H20  1  0.83639354  0.41922320  0.92590768  1  0  0.135107  0  0.931201  0  0  0.147837  0  0.988932  0  0  0.15097  0  0.987011  0  0  0.129323  0.145552  0  0.990451  0
H  H21  1  0.33638989  0.08078202  0.57409126  1  0  0.135047  0  0.93126  0  0  0.147782  0  0.988993  0  0  0.150916  0  0.987073  0  0  0.129292  0.1455  0  0.99051  0
H  H22  1  0.16360890  0.58077689  0.07409277  1  0  0.135088  0  0.931211  0  0  0.147831  0  0.988936  0  0  0.150964  0  0.987014  0  0  0.129325  0.145551  0  0.99046  0
H  H23  1  0.66360647  0.91921953  0.42590922  1  0  0.13506  0  0.931249  0  0  0.147794  0  0.988988  0  0  0.150928  0  0.987068  0  0  0.129296  0.145515  0  0.990505  0
H  H24  1  0.68982660  0.46567869  0.85249197  1  0  0.107438  0  0.925859  0  0  0.117804  0  0.98814  0  0  0.121009  0  0.985719  0  0  0.1131  0.115465  0  0.990025  0
H  H25  1  0.18982359  0.03432359  0.64750677  1  0  0.1075  0  0.925862  0  0  0.11788  0  0.988114  0  0  0.121086  0  0.985693  0  0  0.113119  0.115541  0  0.990008  0
H  H26  1  0.31017583  0.53431992  0.14750845  1  0  0.107426  0  0.925876  0  0  0.11781  0  0.988145  0  0  0.121014  0  0.985723  0  0  0.113101  0.11548  0  0.990032  0
H  H27  1  0.81017429  0.96567649  0.35249368  1  0  0.107506  0  0.925851  0  0  0.117886  0  0.988107  0  0  0.121092  0  0.985686  0  0  0.11312  0.115551  0  0.989998  0
H  H28  1  0.20829321  0.95508203  0.03339170  1  0  0.431282  0  0.86118  0  0  0.39636  0  0.937045  0  0  0.408456  0  0.919339  0  0  0.305869  0.387687  0  0.949714  0
H  H29  1  0.70829272  0.54491145  0.46660669  1  0  0.431249  0  0.86119  0  0  0.396381  0  0.936978  0  0  0.408467  0  0.919288  0  0  0.305888  0.387722  0  0.949635  0
H  H30  1  0.79170620  0.04491658  0.96660769  1  0  0.43127  0  0.861191  0  0  0.396355  0  0.937051  0  0  0.408448  0  0.919351  0  0  0.305869  0.387686  0  0.949714  0
H  H31  1  0.29170668  0.45509011  0.53339328  1  0  0.431249  0  0.861191  0  0  0.396377  0  0.936986  0  0  0.408464  0  0.919294  0  0  0.305882  0.387722  0  0.949636  0
H  H32  1  0.42196627  0.85019684  0.03848995  1  0  0.438733  0  0.840924  0  0  0.403311  0  0.921299  0  0  0.415324  0  0.903527  0  0  0.310067  0.394643  0  0.934124  0
H  H33  1  0.92196572  0.64979958  0.46150819  1  0  0.438748  0  0.840848  0  0  0.40332  0  0.921279  0  0  0.415333  0  0.903508  0  0  0.310079  0.39465  0  0.934109  0
H  H34  1  0.57803465  0.14980177  0.96150945  1  0  0.438737  0  0.840894  0  0  0.403305  0  0.921305  0  0  0.415322  0  0.903529  0  0  0.310071  0.394635  0  0.934138  0
H  H35  1  0.07803368  0.35020051  0.53849175  1  0  0.438743  0  0.840846  0  0  0.403316  0  0.921283  0  0  0.415328  0  0.903513  0  0  0.310077  0.394647  0  0.934112  0
C  C36  1  0.25429950  0.29002287  0.89987553  1  0  0.730874  0  3.799655  0  0  0.677582  0  4.106388  0  0  0.71272  0  4.096929  0  0  0.237218  0.653485  0  4.112334  0
C  C37  1  0.75430195  0.20997646  0.60012168  1  0  0.730752  0  3.799977  0  0  0.677526  0  4.106626  0  0  0.712656  0  4.097176  0  0  0.237185  0.653433  0  4.112553  0
C  C38  1  0.74570445  0.70997427  0.10012333  1  0  0.73079  0  3.799855  0  0  0.677581  0  4.106474  0  0  0.712713  0  4.097019  0  0  0.237209  0.653475  0  4.112427  0
C  C39  1  0.24569896  0.79002805  0.39987937  1  0  0.730875  0  3.799855  0  0  0.67766  0  4.106467  0  0  0.712792  0  4.097012  0  0  0.237231  0.653575  0  4.11239  0
C  C40  1  0.09966816  0.30741170  0.84263284  1  0  -0.189858  0  3.660065  0  0  -0.248379  0  3.921924  0  0  -0.249357  0  3.926303  0  0  -0.068078  -0.247684  0  3.918884  0
C  C41  1  0.59966958  0.19258615  0.65736573  1  0  -0.18977  0  3.660196  0  0  -0.248369  0  3.922064  0  0  -0.249351  0  3.92645  0  0  -0.068067  -0.247666  0  3.919014  0
C  C42  1  0.90033276  0.69258691  0.15736656  1  0  -0.189857  0  3.660221  0  0  -0.248477  0  3.922094  0  0  -0.249455  0  3.926474  0  0  -0.068119  -0.247757  0  3.91902  0
C  C43  1  0.40032830  0.80741393  0.34263523  1  0  -0.189812  0  3.660277  0  0  -0.24841  0  3.922077  0  0  -0.249388  0  3.926452  0  0  -0.068073  -0.247703  0  3.919036  0
C  C44  1  0.96976086  0.55691622  0.77005368  1  0  -0.197587  0  3.661668  0  0  -0.25239  0  3.915108  0  0  -0.254528  0  3.921949  0  0  -0.069357  -0.251023  0  3.910575  0
C  C45  1  0.46975845  0.94307950  0.72994329  1  0  -0.19733  0  3.661662  0  0  -0.252137  0  3.915143  0  0  -0.25428  0  3.921983  0  0  -0.069284  -0.250801  0  3.910668  0
C  C46  1  0.03024006  0.44307943  0.22994668  1  0  -0.197464  0  3.661466  0  0  -0.25232  0  3.914913  0  0  -0.25446  0  3.921752  0  0  -0.06934  -0.250994  0  3.91044  0
C  C47  1  0.53023943  0.05692059  0.27005665  1  0  -0.197362  0  3.661732  0  0  -0.252205  0  3.915201  0  0  -0.254349  0  3.922042  0  0  -0.069303  -0.250885  0  3.910743  0
C  C48  1  0.97723526  0.77825098  0.76088454  1  0  0.722539  0  3.821297  0  0  0.671484  0  4.124192  0  0  0.706604  0  4.114538  0  0  0.22635  0.647449  0  4.130314  0
C  C49  1  0.47725118  0.72174333  0.73909960  1  0  0.722699  0  3.820972  0  0  0.671461  0  4.124145  0  0  0.706584  0  4.114485  0  0  0.226346  0.647437  0  4.130265  0
C  C50  1  0.02276414  0.22174762  0.23911588  1  0  0.722555  0  3.82137  0  0  0.671533  0  4.124215  0  0  0.706654  0  4.114559  0  0  0.226361  0.647503  0  4.130348  0
C  C51  1  0.52274822  0.27825379  0.26090080  1  0  0.722589  0  3.821114  0  0  0.67137  0  4.124266  0  0  0.706492  0  4.114609  0  0  0.226301  0.647346  0  4.130396  0
C  C52  1  0.78010592  0.72133055  0.91537610  1  0  0.745988  0  3.790826  0  0  0.691488  0  4.091534  0  0  0.727434  0  4.081285  0  0  0.241874  0.666763  0  4.098009  0
C  C53  1  0.28010232  0.77867553  0.58462140  1  0  0.746212  0  3.790872  0  0  0.691623  0  4.091715  0  0  0.727581  0  4.081457  0  0  0.241932  0.666895  0  4.098198  0
C  C54  1  0.21989652  0.27866954  0.08462384  1  0  0.746117  0  3.790661  0  0  0.691539  0  4.091462  0  0  0.727498  0  4.081203  0  0  0.241897  0.66682  0  4.097952  0
C  C55  1  0.71989556  0.22132604  0.41537856  1  0  0.746119  0  3.790605  0  0  0.691527  0  4.091469  0  0  0.727481  0  4.081213  0  0  0.241859  0.666813  0  4.097939  0
C  C56  1  0.82222097  0.51704013  0.88285434  1  0  -0.202423  0  3.622138  0  0  -0.252298  0  3.866433  0  0  -0.255684  0  3.873509  0  0  -0.067346  -0.249913  0  3.861546  0
C  C57  1  0.32221609  0.98296446  0.61714368  1  0  -0.202419  0  3.622153  0  0  -0.25234  0  3.866478  0  0  -0.255729  0  3.873547  0  0  -0.067332  -0.249966  0  3.861604  0
C  C58  1  0.17778146  0.48295996  0.11714559  1  0  -0.202376  0  3.622105  0  0  -0.252308  0  3.86646  0  0  -0.255686  0  3.873519  0  0  -0.067369  -0.249962  0  3.861623  0
C  C59  1  0.67778179  0.01703710  0.38285680  1  0  -0.20246  0  3.622159  0  0  -0.252355  0  3.866444  0  0  -0.255746  0  3.873517  0  0  -0.067324  -0.249995  0  3.861575  0
N  N60  1  0.01030971  0.50599959  0.84121582  1  0  -0.198587  0  3.304962  0  0  -0.120116  0  3.549759  0  0  -0.135545  0  3.572368  0  0  -0.367116  -0.109132  0  3.533617  0
N  N61  1  0.51030501  0.99399911  0.65878332  1  0  -0.198771  0  3.305161  0  0  -0.120155  0  3.549828  0  0  -0.135586  0  3.572444  0  0  -0.3671  -0.109149  0  3.533686  0
N  N62  1  0.98969424  0.49400050  0.15878412  1  0  -0.198678  0  3.304839  0  0  -0.120145  0  3.549688  0  0  -0.135579  0  3.572301  0  0  -0.367093  -0.109146  0  3.53355  0
N  N63  1  0.48969287  0.00600098  0.34121661  1  0  -0.198683  0  3.305131  0  0  -0.120109  0  3.549828  0  0  -0.135542  0  3.572446  0  0  -0.367108  -0.109092  0  3.533687  0
O  O64  1  0.31073125  0.44726441  0.93254324  1  0  -0.653185  0  1.956965  0  0  -0.588061  0  2.196357  0  0  -0.61643  0  2.186522  0  0  -0.352118  -0.567994  0  2.20255  0
O  O65  1  0.81072133  0.05273048  0.56745445  1  0  -0.653197  0  1.957054  0  0  -0.588072  0  2.196433  0  0  -0.616446  0  2.186602  0  0  -0.35214  -0.567999  0  2.202629  0
O  O66  1  0.68927270  0.55273125  0.06745610  1  0  -0.653143  0  1.956987  0  0  -0.588037  0  2.196348  0  0  -0.616403  0  2.186515  0  0  -0.352111  -0.56798  0  2.202549  0
O  O67  1  0.18927807  0.94727108  0.43254654  1  0  -0.653252  0  1.957062  0  0  -0.588159  0  2.196441  0  0  -0.616532  0  2.18661  0  0  -0.35219  -0.568086  0  2.202637  0
O  O68  1  0.32697542  0.11920386  0.90970275  1  0  -0.694147  0  1.97806  0  0  -0.625578  0  2.224313  0  0  -0.654822  0  2.211972  0  0  -0.348162  -0.604955  0  2.232419  0
O  O69  1  0.82697472  0.38079103  0.59029342  1  0  -0.694096  0  1.978265  0  0  -0.625583  0  2.224564  0  0  -0.65481  0  2.212211  0  0  -0.348109  -0.604943  0  2.23266  0
O  O70  1  0.67302853  0.88079475  0.09029562  1  0  -0.694092  0  1.978108  0  0  -0.62559  0  2.224391  0  0  -0.654817  0  2.212038  0  0  -0.348144  -0.604966  0  2.232489  0
O  O71  1  0.17302317  0.61920905  0.40970703  1  0  -0.694143  0  1.97815  0  0  -0.625646  0  2.224451  0  0  -0.654876  0  2.212101  0  0  -0.348118  -0.605005  0  2.232549  0
O  O72  1  0.05602240  0.88707403  0.80850653  1  0  -0.692047  0  2.096673  0  0  -0.632014  0  2.348078  0  0  -0.661196  0  2.339532  0  0  -0.356535  -0.611657  0  2.353412  0
O  O73  1  0.55600896  0.61293647  0.69149493  1  0  -0.691938  0  2.097427  0  0  -0.63182  0  2.348911  0  0  -0.660993  0  2.340362  0  0  -0.356386  -0.61145  0  2.354242  0
O  O74  1  0.94397701  0.11292458  0.19149389  1  0  -0.69206  0  2.096655  0  0  -0.632035  0  2.348056  0  0  -0.661216  0  2.339508  0  0  -0.356552  -0.611675  0  2.35338  0
O  O75  1  0.44399196  0.38706362  0.30850398  1  0  -0.69188  0  2.097476  0  0  -0.631768  0  2.348946  0  0  -0.660942  0  2.340397  0  0  -0.356359  -0.611396  0  2.354275  0
O  O76  1  0.91210188  0.84230692  0.70505045  1  0  -0.692018  0  2.039335  0  0  -0.632379  0  2.298391  0  0  -0.662463  0  2.289623  0  0  -0.368532  -0.61134  0  2.303871  0
O  O77  1  0.41208492  0.65767843  0.79495139  1  0  -0.692407  0  2.038252  0  0  -0.632677  0  2.297365  0  0  -0.662763  0  2.288594  0  0  -0.368735  -0.611649  0  2.302836  0
O  O78  1  0.08789600  0.15769317  0.29495000  1  0  -0.692024  0  2.039413  0  0  -0.632396  0  2.298448  0  0  -0.662479  0  2.289678  0  0  -0.368529  -0.611352  0  2.303925  0
O  O79  1  0.58791448  0.34232017  0.20504903  1  0  -0.692369  0  2.038247  0  0  -0.632654  0  2.297355  0  0  -0.66274  0  2.288587  0  0  -0.368733  -0.611628  0  2.302822  0
O  O80  1  0.93048116  0.81997609  0.94093328  1  0  -0.691037  0  2.006993  0  0  -0.620475  0  2.24675  0  0  -0.65135  0  2.236637  0  0  -0.356955  -0.598592  0  2.253133  0
O  O81  1  0.43047433  0.68002997  0.55906386  1  0  -0.69117  0  2.007221  0  0  -0.620546  0  2.246986  0  0  -0.651448  0  2.23689  0  0  -0.356991  -0.598661  0  2.253395  0
O  O82  1  0.06952128  0.18002400  0.05906666  1  0  -0.691142  0  2.007066  0  0  -0.620507  0  2.246823  0  0  -0.651429  0  2.236746  0  0  -0.356978  -0.59862  0  2.253193  0
O  O83  1  0.56952355  0.31997159  0.44093560  1  0  -0.691089  0  2.007057  0  0  -0.620468  0  2.246807  0  0  -0.651358  0  2.236703  0  0  -0.356939  -0.598587  0  2.253217  0
O  O84  1  0.60110697  0.78537571  0.91850067  1  0  -0.68393  0  2.069967  0  0  -0.617824  0  2.328418  0  0  -0.647402  0  2.316785  0  0  -0.367962  -0.596843  0  2.335785  0
O  O85  1  0.10110184  0.71462890  0.58149662  1  0  -0.683977  0  2.069901  0  0  -0.617844  0  2.328433  0  0  -0.647403  0  2.316749  0  0  -0.367963  -0.59685  0  2.335814  0
O  O86  1  0.39889547  0.21462437  0.08149926  1  0  -0.684029  0  2.069929  0  0  -0.617855  0  2.328385  0  0  -0.647426  0  2.316737  0  0  -0.367977  -0.596877  0  2.335749  0
O  O87  1  0.89889907  0.28537119  0.41850280  1  0  -0.683951  0  2.069778  0  0  -0.617819  0  2.328316  0  0  -0.647377  0  2.316632  0  0  -0.367946  -0.596826  0  2.335693  0
O  O88  1  0.28432555  0.83353698  0.01856802  1  0  -0.853701  0  1.891591  0  0  -0.796615  0  2.10556  0  0  -0.819235  0  2.06998  0  0  -0.608873  -0.780442  0  2.130491  0
O  O89  1  0.78432365  0.66645946  0.48142947  1  0  -0.853704  0  1.89157  0  0  -0.796625  0  2.105582  0  0  -0.819242  0  2.070013  0  0  -0.608912  -0.780456  0  2.130483  0
O  O90  1  0.71567385  0.16646311  0.98143192  1  0  -0.853699  0  1.89156  0  0  -0.796608  0  2.105559  0  0  -0.819228  0  2.06998  0  0  -0.608874  -0.780439  0  2.130488  0
O  O91  1  0.21567575  0.33354062  0.51857046  1  0  -0.853701  0  1.891579  0  0  -0.796633  0  2.105621  0  0  -0.819251  0  2.070055  0  0  -0.608911  -0.780467  0  2.130522  0
