# generated using pymatgen
data_CaH14C18(NO2)4
_symmetry_space_group_name_H-M   'P 1'
_cell_length_a   5.51399150
_cell_length_b   12.51767099
_cell_length_c   14.99467658
_cell_angle_alpha   113.07077043
_cell_angle_beta   95.42384789
_cell_angle_gamma   97.44167530
_symmetry_Int_Tables_number   1
_chemical_formula_structural   CaH14C18(NO2)4
_chemical_formula_sum   'Ca2 H28 C36 N8 O16'
_cell_volume   932.12358505
_cell_formula_units_Z   2
loop_
 _symmetry_equiv_pos_site_id
 _symmetry_equiv_pos_as_xyz
  1  'x, y, z'
loop_
 _atom_site_type_symbol
 _atom_site_label
 _atom_site_symmetry_multiplicity
 _atom_site_fract_x
 _atom_site_fract_y
 _atom_site_fract_z
 _atom_site_occupancy
 _atom_site_hle17_bader_spin_density
 _atom_site_hle17_ddec_charge
 _atom_site_hle17_ddec_spin_density
 _atom_site_hle17_ddec_sum_bond_order
 _atom_site_hle17_magmom
 _atom_site_hse06_10hf_bader_spin_density
 _atom_site_hse06_10hf_ddec_charge
 _atom_site_hse06_10hf_ddec_spin_density
 _atom_site_hse06_10hf_ddec_sum_bond_order
 _atom_site_hse06_10hf_magmom
 _atom_site_hse06_bader_spin_density
 _atom_site_hse06_ddec_charge
 _atom_site_hse06_ddec_spin_density
 _atom_site_hse06_ddec_sum_bond_order
 _atom_site_hse06_magmom
 _atom_site_pbe_bader_spin_density
 _atom_site_pbe_cm5_charge
 _atom_site_pbe_ddec_charge
 _atom_site_pbe_ddec_spin_density
 _atom_site_pbe_ddec_sum_bond_order
 _atom_site_pbe_magmom
Ca  Ca0  1  0.63083775  0.36145111  0.48850964  1  0  1.532991  0  1.147218  0  0  1.393918  0  1.51489  0  0  1.437583  0  1.469387  0  0  0.911146  1.361391  0  1.546692  0
Ca  Ca1  1  0.36918056  0.63853848  0.51148186  1  0  1.532942  0  1.147271  0  0  1.393877  0  1.514938  0  0  1.437688  0  1.469189  0  0  0.911127  1.361343  0  1.546729  0
H  H2  1  0.32941111  0.45118235  0.26422656  1  0  0.10767  0  0.960024  0  0  0.113616  0  1.026761  0  0  0.116729  0  1.026107  0  0  0.114723  0.111334  0  1.027364  0
H  H3  1  0.67058881  0.54881165  0.73575842  1  0  0.107643  0  0.960098  0  0  0.113582  0  1.026828  0  0  0.116715  0  1.02616  0  0  0.114699  0.111297  0  1.027435  0
H  H4  1  0.16440033  0.49407163  0.12238060  1  0  0.12609  0  0.952192  0  0  0.130825  0  1.017939  0  0  0.13439  0  1.015509  0  0  0.115505  0.128292  0  1.019646  0
H  H5  1  0.83561280  0.50593826  0.87761341  1  0  0.126204  0  0.952058  0  0  0.130932  0  1.017778  0  0  0.134507  0  1.015372  0  0  0.115542  0.128414  0  1.019478  0
H  H6  1  0.87326826  0.70231412  0.14669516  1  0  0.125142  0  0.965231  0  0  0.125567  0  1.03811  0  0  0.129783  0  1.034724  0  0  0.110511  0.122501  0  1.040709  0
H  H7  1  0.12673174  0.29770449  0.85331861  1  0  0.125207  0  0.965185  0  0  0.125559  0  1.038194  0  0  0.129819  0  1.034731  0  0  0.110545  0.122559  0  1.040683  0
H  H8  1  0.04243255  0.65239565  0.28482806  1  0  0.102849  0  0.977456  0  0  0.108377  0  1.044176  0  0  0.111359  0  1.043857  0  0  0.108494  0.106261  0  1.04442  0
H  H9  1  0.95756963  0.34761416  0.71517689  1  0  0.102908  0  0.977387  0  0  0.108361  0  1.044155  0  0  0.111352  0  1.043822  0  0  0.108472  0.106248  0  1.044398  0
H  H10  1  0.75504418  0.28623911  0.21267872  1  0  0.101165  0  0.955218  0  0  0.109927  0  1.017363  0  0  0.112674  0  1.017086  0  0  0.108733  0.107926  0  1.017712  0
H  H11  1  0.24496892  0.71377066  0.78734126  1  0  0.101178  0  0.95533  0  0  0.11002  0  1.017378  0  0  0.112764  0  1.017106  0  0  0.108676  0.108018  0  1.017731  0
H  H12  1  0.77415475  0.22999196  0.03453576  1  0  0.116278  0  0.982703  0  0  0.112408  0  1.063202  0  0  0.117739  0  1.057998  0  0  0.106712  0.108631  0  1.0669  0
H  H13  1  0.22583546  0.77003459  0.96547628  1  0  0.116258  0  0.982811  0  0  0.112446  0  1.06319  0  0  0.117746  0  1.058034  0  0  0.106722  0.108625  0  1.066975  0
H  H14  1  0.42341912  0.08022456  0.06330022  1  0  0.116826  0  0.95584  0  0  0.122106  0  1.024325  0  0  0.125916  0  1.021432  0  0  0.111297  0.119376  0  1.026418  0
H  H15  1  0.57660234  0.91976858  0.93668989  1  0  0.116935  0  0.955887  0  0  0.122163  0  1.024431  0  0  0.125971  0  1.021551  0  0  0.111265  0.119426  0  1.026554  0
H  H16  1  0.41404000  0.14553948  0.24295921  1  0  0.106755  0  0.960088  0  0  0.113701  0  1.026938  0  0  0.117708  0  1.024416  0  0  0.113598  0.110835  0  1.028789  0
H  H17  1  0.58597652  0.85444038  0.75703435  1  0  0.106629  0  0.960351  0  0  0.11357  0  1.027202  0  0  0.117578  0  1.024681  0  0  0.113549  0.110705  0  1.029053  0
H  H18  1  0.33437169  0.21271292  0.63624572  1  0  0.071657  0  0.998269  0  0  0.079405  0  1.070138  0  0  0.080137  0  1.070776  0  0  0.125647  0.07883  0  1.069725  0
H  H19  1  0.66562356  0.78728808  0.36375141  1  0  0.071677  0  0.998197  0  0  0.079401  0  1.070091  0  0  0.080128  0  1.070736  0  0  0.125629  0.078822  0  1.06968  0
H  H20  1  0.97307952  0.14988073  0.50480427  1  0  0.098289  0  0.97093  0  0  0.10418  0  1.039762  0  0  0.107494  0  1.037133  0  0  0.119636  0.101783  0  1.041689  0
H  H21  1  0.02693065  0.85011141  0.49520379  1  0  0.098243  0  0.970999  0  0  0.10412  0  1.039835  0  0  0.107437  0  1.037204  0  0  0.119618  0.101707  0  1.041809  0
H  H22  1  0.30430637  0.08045922  0.72125759  1  0  0.106076  0  0.945452  0  0  0.121739  0  1.017422  0  0  0.12322  0  1.016063  0  0  0.106607  0.120586  0  1.018451  0
H  H23  1  0.69566204  0.91953820  0.27873676  1  0  0.106095  0  0.945419  0  0  0.121786  0  1.017375  0  0  0.123246  0  1.016041  0  0  0.106646  0.12063  0  1.018411  0
H  H24  1  0.59763028  0.05883846  0.76448533  1  0  0.120911  0  0.952103  0  0  0.139008  0  1.016053  0  0  0.140112  0  1.014905  0  0  0.107238  0.138172  0  1.016886  0
H  H25  1  0.40233648  0.94115452  0.23551151  1  0  0.120783  0  0.952171  0  0  0.138885  0  1.016139  0  0  0.139987  0  1.014991  0  0  0.10716  0.138047  0  1.016978  0
H  H26  1  0.40851541  0.94565181  0.65661839  1  0  0.115161  0  0.946124  0  0  0.133517  0  1.012312  0  0  0.134695  0  1.011883  0  0  0.11324  0.132515  0  1.012783  0
H  H27  1  0.59146013  0.05434032  0.34337713  1  0  0.115096  0  0.946228  0  0  0.133468  0  1.012415  0  0  0.134644  0  1.011986  0  0  0.113221  0.132466  0  1.012885  0
H  H28  1  0.88899768  0.00440048  0.60592700  1  0  0.116975  0  0.95426  0  0  0.130356  0  1.009773  0  0  0.132875  0  1.008877  0  0  0.125174  0.128497  0  1.010589  0
H  H29  1  0.11098601  0.99557927  0.39407472  1  0  0.116995  0  0.954267  0  0  0.130326  0  1.009834  0  0  0.132846  0  1.008936  0  0  0.125146  0.128463  0  1.010656  0
C  C30  1  0.79146423  0.52852210  0.37082520  1  0  0.701263  0  3.886649  0  0  0.647932  0  4.184692  0  0  0.683751  0  4.173074  0  0  0.24657  0.623411  0  4.19192  0
C  C31  1  0.20851278  0.47147886  0.62917128  1  0  0.701438  0  3.886377  0  0  0.648088  0  4.184451  0  0  0.683908  0  4.172828  0  0  0.246695  0.623566  0  4.191686  0
C  C32  1  0.69546360  0.55025360  0.28314039  1  0  -0.058191  0  3.712198  0  0  -0.037178  0  3.942468  0  0  -0.042661  0  3.963045  0  0  0.001184  -0.03352  0  3.928635  0
C  C33  1  0.30453147  0.44975181  0.71685952  1  0  -0.058087  0  3.711649  0  0  -0.037118  0  3.941954  0  0  -0.042579  0  3.962487  0  0  0.001233  -0.033448  0  3.928092  0
C  C34  1  0.44807122  0.50505613  0.23775578  1  0  -0.054727  0  3.696606  0  0  -0.077371  0  3.94721  0  0  -0.079035  0  3.966625  0  0  -0.067314  -0.076292  0  3.934243  0
C  C35  1  0.55194194  0.49494403  0.76224036  1  0  -0.054808  0  3.696586  0  0  -0.077458  0  3.947173  0  0  -0.079095  0  3.966536  0  0  -0.0673  -0.076326  0  3.934128  0
C  C36  1  0.35375567  0.53017632  0.16033691  1  0  -0.08442  0  3.704553  0  0  -0.110658  0  3.966791  0  0  -0.110434  0  3.984368  0  0  -0.073609  -0.110735  0  3.954683  0
C  C37  1  0.64626080  0.46982297  0.83965839  1  0  -0.08434  0  3.704463  0  0  -0.110742  0  3.966421  0  0  -0.110366  0  3.984187  0  0  -0.073626  -0.110647  0  3.954464  0
C  C38  1  0.50931872  0.60313823  0.13096490  1  0  0.079492  0  3.70076  0  0  0.06182  0  3.96116  0  0  0.060478  0  3.983555  0  0  0.074611  0.063265  0  3.945659  0
C  C39  1  0.49068693  0.39687602  0.86903895  1  0  0.079139  0  3.70093  0  0  0.062543  0  3.960794  0  0  0.060196  0  3.983713  0  0  0.074672  0.063096  0  3.945874  0
C  C40  1  0.75785238  0.64732055  0.17319264  1  0  -0.092729  0  3.699925  0  0  -0.120484  0  3.966852  0  0  -0.12065  0  3.983874  0  0  -0.077905  -0.120363  0  3.955283  0
C  C41  1  0.24215697  0.35267430  0.82680362  1  0  -0.092816  0  3.700008  0  0  -0.120797  0  3.966866  0  0  -0.120767  0  3.983986  0  0  -0.078025  -0.120481  0  3.955358  0
C  C42  1  0.85051400  0.61913855  0.24920692  1  0  -0.069521  0  3.722783  0  0  -0.088469  0  3.968552  0  0  -0.090626  0  3.989039  0  0  -0.077179  -0.087045  0  3.954816  0
C  C43  1  0.14949634  0.38085895  0.75078891  1  0  -0.069647  0  3.722788  0  0  -0.08856  0  3.968667  0  0  -0.090662  0  3.989057  0  0  -0.077236  -0.087094  0  3.954852  0
C  C44  1  0.05937590  0.24574997  0.34487759  1  0  0.700174  0  3.888794  0  0  0.649757  0  4.185003  0  0  0.685204  0  4.173805  0  0  0.236564  0.625579  0  4.191823  0
C  C45  1  0.94063544  0.75424043  0.65512527  1  0  0.699977  0  3.888909  0  0  0.649694  0  4.184917  0  0  0.68514  0  4.17373  0  0  0.236468  0.625503  0  4.191742  0
C  C46  1  0.08003696  0.21727060  0.23844570  1  0  -0.041694  0  3.691269  0  0  -0.024883  0  3.927501  0  0  -0.029091  0  3.946702  0  0  0.000631  -0.022122  0  3.914585  0
C  C47  1  0.91997653  0.78272070  0.76155487  1  0  -0.04159  0  3.691077  0  0  -0.024856  0  3.927359  0  0  -0.029061  0  3.946554  0  0  0.000481  -0.022091  0  3.914437  0
C  C48  1  0.90261679  0.24255514  0.17980955  1  0  -0.053305  0  3.698108  0  0  -0.073089  0  3.942313  0  0  -0.075227  0  3.963431  0  0  -0.07385  -0.071607  0  3.928033  0
C  C49  1  0.09740493  0.75745821  0.82020457  1  0  -0.053515  0  3.698418  0  0  -0.073361  0  3.942678  0  0  -0.075507  0  3.963795  0  0  -0.073803  -0.071879  0  3.928395  0
C  C50  1  0.91080976  0.21045500  0.08038282  1  0  -0.087642  0  3.697685  0  0  -0.112343  0  3.957235  0  0  -0.113108  0  3.975084  0  0  -0.077051  -0.11158  0  3.945052  0
C  C51  1  0.08918145  0.78956448  0.91962893  1  0  -0.087467  0  3.698315  0  0  -0.112217  0  3.957806  0  0  -0.113013  0  3.97571  0  0  -0.076998  -0.111467  0  3.945685  0
C  C52  1  0.09745442  0.15065201  0.03999625  1  0  0.079324  0  3.70401  0  0  0.064333  0  3.954566  0  0  0.061519  0  3.978468  0  0  0.076236  0.066063  0  3.938429  0
C  C53  1  0.90253798  0.84935600  0.96001110  1  0  0.07927  0  3.704449  0  0  0.064338  0  3.954711  0  0  0.061542  0  3.978607  0  0  0.076206  0.066052  0  3.93861  0
C  C54  1  0.27980198  0.12647466  0.09692080  1  0  -0.093159  0  3.707721  0  0  -0.121345  0  3.970015  0  0  -0.122518  0  3.990335  0  0  -0.079475  -0.120305  0  3.956155  0
C  C55  1  0.72020572  0.87351579  0.90307061  1  0  -0.093141  0  3.708189  0  0  -0.121357  0  3.970401  0  0  -0.122553  0  3.990725  0  0  -0.079456  -0.120324  0  3.956554  0
C  C56  1  0.27199748  0.16180578  0.19668894  1  0  -0.063909  0  3.702212  0  0  -0.087964  0  3.955006  0  0  -0.089735  0  3.974516  0  0  -0.074838  -0.086747  0  3.941857  0
C  C57  1  0.72803656  0.83819178  0.80330707  1  0  -0.063749  0  3.702652  0  0  -0.087742  0  3.955365  0  0  -0.089517  0  3.974877  0  0  -0.074647  -0.086526  0  3.942214  0
C  C58  1  0.49859932  0.17787461  0.61302973  1  0  0.148569  0  3.714679  0  0  0.092392  0  3.979381  0  0  0.104507  0  3.995075  0  0  0.137504  0.084615  0  3.968413  0
C  C59  1  0.50139890  0.82212461  0.38697158  1  0  0.148492  0  3.714934  0  0  0.092349  0  3.979625  0  0  0.104458  0  3.995336  0  0  0.137503  0.08457  0  3.968656  0
C  C60  1  0.79098120  0.06994134  0.59677106  1  0  -0.070547  0  3.659428  0  0  -0.111049  0  3.913425  0  0  -0.109776  0  3.932965  0  0  -0.000104  -0.1118  0  3.90027  0
C  C61  1  0.20900264  0.93004370  0.40323174  1  0  -0.070407  0  3.659395  0  0  -0.110836  0  3.913314  0  0  -0.10956  0  3.932844  0  0  -1.4e-05  -0.111605  0  3.900185  0
C  C62  1  0.82768900  0.14108746  0.54681047  1  0  -0.015365  0  3.794972  0  0  -0.046823  0  4.073846  0  0  -0.045401  0  4.093053  0  0  -0.004159  -0.047752  0  4.06088  0
C  C63  1  0.17230910  0.85889674  0.45319055  1  0  -0.015301  0  3.79484  0  0  -0.046727  0  4.073685  0  0  -0.045308  0  4.0929  0  0  -0.004075  -0.047665  0  4.060721  0
C  C64  1  0.46670899  0.04127182  0.69860477  1  0  -0.179366  0  3.615292  0  0  -0.284398  0  3.861485  0  0  -0.280786  0  3.869314  0  0  -0.128841  -0.286483  0  3.85616  0
C  C65  1  0.53326291  0.95872030  0.30139129  1  0  -0.17917  0  3.615236  0  0  -0.284266  0  3.861433  0  0  -0.280641  0  3.869285  0  0  -0.128782  -0.286355  0  3.856111  0
N  N66  1  0.40625934  0.63287988  0.05158630  1  0  0.458212  0  3.944302  0  0  0.506673  0  4.217549  0  0  0.524148  0  4.228543  0  0  0.054649  0.49346  0  4.210568  0
N  N67  1  0.59375477  0.36713262  0.94841661  1  0  0.458649  0  3.944018  0  0  0.504728  0  4.21823  0  0  0.524374  0  4.228407  0  0  0.054525  0.493272  0  4.21102  0
N  N68  1  0.10115366  0.11093408  0.93433505  1  0  0.472898  0  3.954154  0  0  0.526191  0  4.21336  0  0  0.547581  0  4.220918  0  0  0.05463  0.511915  0  4.208122  0
N  N69  1  0.89882050  0.88908362  0.06567019  1  0  0.4725  0  3.954022  0  0  0.526245  0  4.212461  0  0  0.547593  0  4.220081  0  0  0.054693  0.511944  0  4.207294  0
N  N70  1  0.64343618  0.20847531  0.55747126  1  0  -0.456654  0  3.169704  0  0  -0.400283  0  3.45521  0  0  -0.417441  0  3.470731  0  0  -0.40164  -0.388335  0  3.444276  0
N  N71  1  0.35658691  0.79152218  0.44253302  1  0  -0.456724  0  3.16985  0  0  -0.400361  0  3.455365  0  0  -0.417545  0  3.470896  0  0  -0.401741  -0.388409  0  3.444422  0
N  N72  1  0.58104309  0.09463603  0.63855719  1  0  -0.017431  0  3.593701  0  0  0.085485  0  3.805905  0  0  0.070631  0  3.834106  0  0  -0.245004  0.09526  0  3.786689  0
N  N73  1  0.41893824  0.90535697  0.36144349  1  0  -0.017493  0  3.593744  0  0  0.085428  0  3.805925  0  0  0.070576  0  3.834112  0  0  -0.245019  0.095207  0  3.786697  0
O  O74  1  0.62694169  0.50307637  0.41834550  1  0  -0.764313  0  1.98543  0  0  -0.693187  0  2.241842  0  0  -0.722181  0  2.228862  0  0  -0.393941  -0.672378  0  2.250008  0
O  O75  1  0.37303854  0.49689902  0.58164066  1  0  -0.764426  0  1.985544  0  0  -0.693262  0  2.24194  0  0  -0.722261  0  2.228967  0  0  -0.393962  -0.672443  0  2.250102  0
O  O76  1  0.02115572  0.53737557  0.39288369  1  0  -0.674272  0  1.970317  0  0  -0.620674  0  2.226231  0  0  -0.64647  0  2.21371  0  0  -0.348051  -0.602391  0  2.234311  0
O  O77  1  0.97882861  0.46261571  0.60710918  1  0  -0.674267  0  1.970313  0  0  -0.620692  0  2.226264  0  0  -0.646461  0  2.21375  0  0  -0.348091  -0.602407  0  2.234351  0
O  O78  1  0.17931338  0.60448573  0.02323572  1  0  -0.33281  0  1.804215  0  0  -0.319724  0  2.013735  0  0  -0.330396  0  2.011401  0  0  -0.112843  -0.311679  0  2.015273  0
O  O79  1  0.82070053  0.39554090  0.97677117  1  0  -0.332904  0  1.804073  0  0  -0.318592  0  2.013635  0  0  -0.330317  0  2.011203  0  0  -0.112787  -0.311515  0  2.015344  0
O  O80  1  0.55114700  0.68409738  0.01620152  1  0  -0.348483  0  1.809164  0  0  -0.334909  0  2.016181  0  0  -0.347482  0  2.016669  0  0  -0.124279  -0.32571  0  2.015919  0
O  O81  1  0.44887508  0.31590720  0.98379839  1  0  -0.348602  0  1.80917  0  0  -0.333882  0  2.016314  0  0  -0.347527  0  2.016734  0  0  -0.124219  -0.325592  0  2.016137  0
O  O82  1  0.25069159  0.25006794  0.40138160  1  0  -0.717147  0  1.944527  0  0  -0.661435  0  2.197039  0  0  -0.688051  0  2.184345  0  0  -0.381006  -0.642402  0  2.205071  0
O  O83  1  0.74932425  0.74991011  0.59862068  1  0  -0.716943  0  1.944728  0  0  -0.661247  0  2.197149  0  0  -0.687888  0  2.184451  0  0  -0.380838  -0.642207  0  2.205179  0
O  O84  1  0.84826232  0.26016880  0.36998981  1  0  -0.707899  0  1.959849  0  0  -0.649056  0  2.212831  0  0  -0.676388  0  2.200415  0  0  -0.381886  -0.629544  0  2.220707  0
O  O85  1  0.15176477  0.73981987  0.63001436  1  0  -0.707913  0  1.9595  0  0  -0.649183  0  2.212527  0  0  -0.676545  0  2.200106  0  0  -0.381957  -0.629657  0  2.220396  0
O  O86  1  0.94308856  0.13695805  0.88509729  1  0  -0.367893  0  1.788076  0  0  -0.358883  0  1.990793  0  0  -0.370919  0  1.985886  0  0  -0.134597  -0.350815  0  1.994229  0
O  O87  1  0.05688207  0.86307464  0.11491610  1  0  -0.367642  0  1.788059  0  0  -0.358752  0  1.990529  0  0  -0.370806  0  1.985676  0  0  -0.134661  -0.35071  0  1.994022  0
O  O88  1  0.26091909  0.05278873  0.89869830  1  0  -0.353347  0  1.772275  0  0  -0.339425  0  1.968957  0  0  -0.352  0  1.967448  0  0  -0.123265  -0.330969  0  1.970034  0
O  O89  1  0.73905042  0.94723609  0.10129579  1  0  -0.35325  0  1.771931  0  0  -0.339503  0  1.968359  0  0  -0.352095  0  1.966887  0  0  -0.123257  -0.331057  0  1.969477  0
