# generated using pymatgen
data_ZnH4C11(NF)4
_symmetry_space_group_name_H-M   'P 1'
_cell_length_a   13.20775653
_cell_length_b   13.18195574
_cell_length_c   14.74647653
_cell_angle_alpha   100.64756185
_cell_angle_beta   118.54341522
_cell_angle_gamma   104.88752964
_symmetry_Int_Tables_number   1
_chemical_formula_structural   ZnH4C11(NF)4
_chemical_formula_sum   'Zn4 H16 C44 N16 F16'
_cell_volume   2031.62407647
_cell_formula_units_Z   4
loop_
 _symmetry_equiv_pos_site_id
 _symmetry_equiv_pos_as_xyz
  1  'x, y, z'
loop_
 _atom_site_type_symbol
 _atom_site_label
 _atom_site_symmetry_multiplicity
 _atom_site_fract_x
 _atom_site_fract_y
 _atom_site_fract_z
 _atom_site_occupancy
 _atom_site_pbe_bader_charge
 _atom_site_pbe_bader_spin_density
 _atom_site_pbe_cm5_charge
 _atom_site_pbe_ddec_charge
 _atom_site_pbe_ddec_spin_density
 _atom_site_pbe_ddec_sum_bond_order
 _atom_site_pbe_magmom
C  C0  1  0.57095659  0.80356968  0.10203069  1  1.050935  0  0.208299  0.353011  0  4.055343  0
C  C1  1  0.52446345  0.14308759  0.14990005  1  0.06623  0  -0.050657  -0.188472  0  4.170992  0
C  C2  1  0.99389780  0.37443059  0.85012221  1  0.062549  0  -0.04848  -0.186334  0  4.168811  0
C  C3  1  0.97512765  0.78564404  0.32280909  1  0.020049  0  -0.036569  -0.040717  0  4.084286  0
C  C4  1  0.46240176  0.65302766  0.67703560  1  0.024142  0  -0.037102  -0.042313  0  4.086619  0
C  C5  1  0.10636887  0.88625453  0.52891108  1  -0.039266  0  -0.0238  -0.067458  0  3.934063  0
C  C6  1  0.35708984  0.57871587  0.47088117  1  -0.049235  0  -0.024311  -0.071174  0  3.934736  0
C  C7  1  0.70287646  0.46940873  0.89818908  1  1.072349  0  0.209075  0.351028  0  4.058616  0
C  C8  1  0.07937520  0.87941274  0.42306401  1  0.034172  0  -0.000116  0.094848  0  4.051614  0
C  C9  1  0.45590903  0.65719047  0.57665495  1  0.029186  0  -2.6e-05  0.098204  0  4.049317  0
C  C10  1  0.15260706  0.97743525  0.42191330  1  0.029285  0  -0.095799  -0.254243  0  3.95299  0
C  C11  1  0.55518143  0.73109016  0.57772824  1  0.035486  0  -0.096402  -0.257271  0  3.954193  0
C  C12  1  0.23653976  0.07436547  0.51697313  1  0.446329  0  0.104639  0.250514  0  4.031976  0
C  C13  1  0.55731745  0.71968420  0.48266840  1  0.452651  0  0.105105  0.25213  0  4.032695  0
C  C14  1  0.25546035  0.08620939  0.62162652  1  0.076953  0  -0.014334  -0.026247  0  4.045126  0
C  C15  1  0.46468047  0.63422203  0.37810425  1  0.080611  0  -0.014008  -0.025374  0  4.045022  0
C  C16  1  0.18973624  0.98435404  0.62210190  1  -0.045705  0  -0.016497  -0.02903  0  3.944491  0
C  C17  1  0.36220564  0.56863670  0.37764648  1  -0.04151  0  -0.015718  -0.027421  0  3.94193  0
C  C18  1  0.16714704  0.93269794  0.69765554  1  0.516277  0  0.025207  0.115956  0  3.865538  0
C  C19  1  0.23505208  0.47110711  0.30224868  1  0.508647  0  0.025195  0.113792  0  3.86957  0
C  C20  1  0.37932392  0.52989381  0.17603716  1  0.444016  0  0.016565  -0.015722  0  3.960713  0
C  C21  1  0.35384574  0.20263885  0.82409233  1  0.488019  0  0.017706  -0.014658  0  3.959016  0
C  C22  1  0.06911354  0.82242638  0.59095093  1  0.533258  0  0.025295  0.11713  0  3.881903  0
C  C23  1  0.47726755  0.60220189  0.28529326  1  0.014249  0  -0.03992  -0.132925  0  4.084155  0
C  C24  1  0.23139013  0.47987398  0.40905281  1  0.543049  0  0.024138  0.117276  0  3.882973  0
C  C25  1  0.84034627  0.35776386  0.90616985  1  0.468402  0  0.069033  0.121194  0  4.096506  0
C  C26  1  0.45175138  0.93341434  0.09426092  1  0.487892  0  0.069246  0.123249  0  4.096104  0
C  C27  1  0.88145133  0.37905445  0.84049476  1  0.55527  0  0.072536  0.128315  0  4.121387  0
C  C28  1  0.53866152  0.04008788  0.15958510  1  0.551766  0  0.072558  0.127819  0  4.120792  0
C  C29  1  0.31676848  0.19147554  0.71465028  1  0.056147  0  -0.041865  -0.134047  0  4.082994  0
C  C30  1  0.06235169  0.43398293  0.81365644  1  1.054854  0  0.204169  0.343379  0  4.091034  0
C  C31  1  0.62016849  0.24788681  0.18592840  1  1.047568  0  0.203969  0.342154  0  4.093394  0
C  C32  1  0.90990680  0.67787764  0.31410146  1  0.4239  0  0.012067  -0.03862  0  3.98542  0
C  C33  1  0.36376192  0.59637875  0.68599788  1  0.4318  0  0.013739  -0.037467  0  3.987677  0
C  C34  1  0.07214982  0.32310574  0.90857451  1  0.475377  0  0.019343  -0.015353  0  3.977178  0
C  C35  1  0.41505405  0.16332431  0.09188516  1  0.487061  0  0.018537  -0.017458  0  3.978696  0
C  C36  1  0.90367379  0.78613768  0.21540857  1  0.420861  0  0.013952  -0.037688  0  3.981894  0
C  C37  1  0.57001979  0.68866029  0.78432754  1  0.421198  0  0.01374  -0.036058  0  3.981849  0
C  C38  1  0.58469509  0.60579247  0.28533237  1  1.055406  0  0.20894  0.342765  0  4.06415  0
C  C39  1  0.32089134  0.29919743  0.71463906  1  1.047458  0  0.209724  0.344244  0  4.063258  0
C  C40  1  0.36524948  0.72075452  0.00555468  1  0.556661  0  0.014433  -0.018688  0  3.963743  0
C  C41  1  0.71607878  0.35948935  0.99459562  1  0.46198  0  0.014185  -0.018574  0  3.960761  0
C  C42  1  0.46476239  0.82777431  0.07629134  1  -0.000564  0  -0.051594  -0.190636  0  4.167371  0
C  C43  1  0.75267104  0.38871447  0.92399212  1  0.09213  0  -0.050533  -0.187243  0  4.163829  0
F  F44  1  0.69244813  0.87425968  0.16322781  1  -0.626606  0  -0.079989  -0.130233  0  1.391302  0
F  F45  1  0.23361157  0.36824309  0.25348449  1  -0.622722  0  -0.152893  -0.193248  0  1.261415  0
F  F46  1  0.11344680  0.98081541  0.74633328  1  -0.62878  0  -0.153256  -0.193981  0  1.258958  0
F  F47  1  0.94545957  0.79602798  0.56211533  1  -0.613094  0  -0.144602  -0.181215  0  1.299797  0
F  F48  1  0.23343967  0.38477520  0.43802499  1  -0.609769  0  -0.143868  -0.180427  0  1.301668  0
F  F49  1  0.90343439  0.31037557  0.97947112  1  -0.629342  0  -0.104255  -0.134324  0  1.340266  0
F  F50  1  0.33137585  0.92363271  0.02148069  1  -0.625148  0  -0.104491  -0.135099  0  1.34028  0
F  F51  1  0.71252013  0.53007181  0.83698469  1  -0.634636  0  -0.081112  -0.130173  0  1.391201  0
F  F52  1  0.81790585  0.42038654  0.76260218  1  -0.617158  0  -0.104289  -0.123175  0  1.367164  0
F  F53  1  0.65761360  0.05401741  0.23695866  1  -0.610824  0  -0.103192  -0.121604  0  1.368803  0
F  F54  1  0.03441969  0.50077199  0.75486680  1  -0.633166  0  -0.090749  -0.140527  0  1.337281  0
F  F55  1  0.74532138  0.27834229  0.24412364  1  -0.643165  0  -0.090714  -0.140518  0  1.338568  0
F  F56  1  0.70534398  0.65765281  0.36969383  1  -0.62934  0  -0.0759  -0.123655  0  1.42784  0
F  F57  1  0.28870428  0.33575246  0.63016743  1  -0.625045  0  -0.076152  -0.123212  0  1.426507  0
F  F58  1  0.30161549  0.16385904  0.50554942  1  -0.624616  0  -0.100759  -0.138668  0  1.347376  0
F  F59  1  0.65837553  0.79554839  0.49397946  1  -0.625742  0  -0.101231  -0.139197  0  1.348172  0
H  H60  1  0.05783913  0.26833481  0.95169039  1  0.120648  0  0.123909  0.119349  0  0.99004  0
H  H61  1  0.15982845  0.48535909  0.23600752  1  0.082449  0  0.100558  0.06135  0  0.966871  0
H  H62  1  0.24698540  0.92312013  0.76397822  1  0.081366  0  0.100351  0.060081  0  0.966161  0
H  H63  1  0.08713194  0.74569582  0.59450900  1  0.061588  0  0.09701  0.053541  0  0.97071  0
H  H64  1  0.15151647  0.49480997  0.40562413  1  0.044651  0  0.097069  0.053317  0  0.970029  0
H  H65  1  0.27838175  0.50046714  0.13721605  1  0.150854  0  0.118983  0.10798  0  1.004987  0
H  H66  1  0.36316211  0.14039407  0.86314036  1  0.101347  0  0.119149  0.107848  0  1.005125  0
H  H67  1  0.31750226  0.10607083  0.04917177  1  0.131356  0  0.124732  0.120015  0  0.990995  0
H  H68  1  0.92940991  0.64088210  0.37740574  1  0.091607  0  0.121377  0.109947  0  0.997725  0
H  H69  1  0.26379535  0.55266155  0.62282278  1  0.091129  0  0.120812  0.109174  0  0.998149  0
H  H70  1  0.91646450  0.85397628  0.18466365  1  0.122447  0  0.123294  0.113421  0  0.987128  0
H  H71  1  0.66828848  0.73208118  0.81490208  1  0.108805  0  0.122808  0.112425  0  0.986849  0
H  H72  1  0.26481545  0.69883518  0.96383740  1  0.076973  0  0.121098  0.115076  0  0.991151  0
H  H73  1  0.73556207  0.30035199  0.03619940  1  0.097629  0  0.121111  0.114789  0  0.99109  0
H  H74  1  0.14306270  0.98140217  0.34513271  1  0.08231  0  0.11271  0.137843  0  0.979477  0
H  H75  1  0.63583065  0.79791483  0.65450683  1  0.092125  0  0.112807  0.138293  0  0.979627  0
N  N76  1  0.53921684  0.69452639  0.05232387  1  -0.765865  0  -0.285685  -0.297267  0  3.562298  0
N  N77  1  0.57472346  0.32298710  0.15343879  1  -0.83071  0  -0.276472  -0.289729  0  3.510284  0
N  N78  1  0.16985560  0.42114263  0.84643549  1  -0.799038  0  -0.275901  -0.28884  0  3.511099  0
N  N79  1  0.80866881  0.61940483  0.21047565  1  -0.799393  0  -0.273854  -0.185515  0  3.556051  0
N  N80  1  0.40887112  0.59841449  0.78966388  1  -0.796647  0  -0.274987  -0.184442  0  3.557319  0
N  N81  1  0.17564618  0.35080381  0.90583777  1  -0.784667  0  -0.271705  -0.159746  0  3.539603  0
N  N82  1  0.44541516  0.26972311  0.09460856  1  -0.771908  0  -0.270816  -0.155445  0  3.536552  0
N  N83  1  0.64336264  0.48712108  0.94774539  1  -0.809073  0  -0.28586  -0.29761  0  3.560996  0
N  N84  1  0.80410542  0.68712807  0.14877826  1  -0.817513  0  -0.274054  -0.188576  0  3.54476  0
N  N85  1  0.53785998  0.65541913  0.85114100  1  -0.80486  0  -0.273746  -0.189689  0  3.545644  0
N  N86  1  0.55456088  0.54177900  0.18717103  1  -0.800252  0  -0.288445  -0.299132  0  3.586589  0
N  N87  1  0.35529201  0.36725186  0.81288306  1  -0.795828  0  -0.287328  -0.29911  0  3.584896  0
N  N88  1  0.41067478  0.64304824  0.99152119  1  -0.812843  0  -0.278335  -0.175706  0  3.603953  0
N  N89  1  0.65240750  0.41896111  0.00853529  1  -0.781494  0  -0.277855  -0.174535  0  3.598822  0
N  N90  1  0.42619165  0.49450205  0.11919073  1  -0.807648  0  -0.291156  -0.18645  0  3.652059  0
N  N91  1  0.37576053  0.30657074  0.88098907  1  -0.823023  0  -0.292359  -0.188593  0  3.650619  0
Zn  Zn92  1  0.63893864  0.63883588  0.99994012  1  1.204313  0  0.748755  0.663757  0  2.361937  0
Zn  Zn93  1  0.34518004  0.34498015  0.00009262  1  1.196303  0  0.760913  0.627378  0  2.484162  0
Zn  Zn94  1  0.32742075  0.50783128  0.85226983  1  1.206961  0  0.752591  0.669005  0  2.380454  0
Zn  Zn95  1  0.65588028  0.47499395  0.14768495  1  1.20716  0  0.752314  0.669229  0  2.376445  0
