# generated using pymatgen
data_ZnH8C12(IN2)2
_symmetry_space_group_name_H-M   'P 1'
_cell_length_a   14.64586693
_cell_length_b   18.31047413
_cell_length_c   34.30107293
_cell_angle_alpha   93.28584287
_cell_angle_beta   102.30643598
_cell_angle_gamma   113.57289907
_symmetry_Int_Tables_number   1
_chemical_formula_structural   ZnH8C12(IN2)2
_chemical_formula_sum   'Zn12 H96 C144 I24 N48'
_cell_volume   8132.23167332
_cell_formula_units_Z   12
loop_
 _symmetry_equiv_pos_site_id
 _symmetry_equiv_pos_as_xyz
  1  'x, y, z'
loop_
 _atom_site_type_symbol
 _atom_site_label
 _atom_site_symmetry_multiplicity
 _atom_site_fract_x
 _atom_site_fract_y
 _atom_site_fract_z
 _atom_site_occupancy
 _atom_site_pbe_bader_charge
 _atom_site_pbe_bader_spin_density
 _atom_site_pbe_cm5_charge
 _atom_site_pbe_ddec_charge
 _atom_site_pbe_ddec_spin_density
 _atom_site_pbe_ddec_sum_bond_order
 _atom_site_pbe_magmom
Zn  Zn0  1  0.14045276  0.17357948  0.94828073  1  0.909207  0  0.449483  0.476563  0  2.738246  0
Zn  Zn1  1  0.03902292  0.27064933  0.57435256  1  0.896684  0  0.442652  0.45735  0  2.794069  0
Zn  Zn2  1  0.44121130  0.43375750  0.76106559  1  0.89841  0  0.44079  0.450837  0  2.770063  0
Zn  Zn3  1  0.48202753  0.67366976  0.44841897  1  0.902608  0  0.448877  0.475965  0  2.737523  0
Zn  Zn4  1  0.30602383  0.77074447  0.07438501  1  0.90053  0  0.442281  0.456232  0  2.795135  0
Zn  Zn5  1  0.25349412  0.93364996  0.26103537  1  0.898626  0  0.441242  0.450201  0  2.769561  0
Zn  Zn6  1  0.51797486  0.32633386  0.55158234  1  0.902534  0  0.448842  0.475865  0  2.737615  0
Zn  Zn7  1  0.69397086  0.22925013  0.92561441  1  0.90037  0  0.442245  0.456193  0  2.795283  0
Zn  Zn8  1  0.74650608  0.06634706  0.73896376  1  0.898535  0  0.441242  0.450156  0  2.769679  0
Zn  Zn9  1  0.85955018  0.82641872  0.05171957  1  0.909201  0  0.449491  0.476634  0  2.738135  0
Zn  Zn10  1  0.96097467  0.72935189  0.42564823  1  0.896653  0  0.442658  0.457325  0  2.794034  0
Zn  Zn11  1  0.55879151  0.56624432  0.23893569  1  0.898392  0  0.440809  0.450851  0  2.770074  0
H  H12  1  0.16868104  0.20398808  0.86583699  1  0.121464  0  0.097771  0.074566  0  1.047828  0
H  H13  1  0.09331753  0.25652445  0.80696156  1  0.141751  0  0.09697  0.110091  0  1.054456  0
H  H14  1  0.90647900  0.30167325  0.87883235  1  0.148266  0  0.09691  0.110207  0  1.061659  0
H  H15  1  0.99058088  0.24945960  0.93467886  1  0.125311  0  0.110731  0.090223  0  1.008828  0
H  H16  1  0.87101151  0.30466988  0.60011504  1  0.1078  0  0.106648  0.082895  0  1.031016  0
H  H17  1  0.82871163  0.33066692  0.66447016  1  0.14214  0  0.103007  0.114795  0  1.032018  0
H  H18  1  0.12091259  0.33645018  0.72848257  1  0.145551  0  0.100299  0.111314  0  1.044302  0
H  H19  1  0.15537582  0.31616215  0.66121008  1  0.126056  0  0.107285  0.089788  0  1.014351  0
H  H20  1  0.58104570  0.43936793  0.71083683  1  0.12357  0  0.100155  0.077969  0  1.045775  0
H  H21  1  0.73728824  0.41143547  0.71266472  1  0.136472  0  0.116011  0.127698  0  1.001131  0
H  H22  1  0.73276279  0.35739842  0.83343743  1  0.170194  0  0.099316  0.113687  0  1.060391  0
H  H23  1  0.57570295  0.38461505  0.82612496  1  0.121166  0  0.118216  0.09199  0  0.986962  0
H  H24  1  0.84288997  0.15604453  0.51483911  1  0.120279  0  0.110068  0.088012  0  1.017538  0
H  H25  1  0.69808512  0.16376791  0.46235805  1  0.111321  0  0.119446  0.129959  0  0.983393  0
H  H26  1  0.84470748  0.42211493  0.49850609  1  0.129958  0  0.11636  0.130158  0  0.990564  0
H  H27  1  0.98854979  0.40461886  0.54670564  1  0.115182  0  0.114097  0.088783  0  0.994116  0
H  H28  1  0.22473712  0.07482916  0.30279761  1  0.106403  0  0.121116  0.091069  0  0.979604  0
H  H29  1  0.33539986  0.19816748  0.35536249  1  0.124836  0  0.120961  0.13323  0  0.98111  0
H  H30  1  0.59132535  0.13722468  0.35657828  1  0.132898  0  0.120255  0.130935  0  0.980773  0
H  H31  1  0.47107138  0.01707468  0.30347210  1  0.109515  0  0.112591  0.086716  0  1.004009  0
H  H32  1  0.42819592  0.54001662  0.38360680  1  0.101569  0  0.108202  0.080242  0  1.006708  0
H  H33  1  0.46342213  0.41830046  0.37131707  1  0.116742  0  0.109606  0.120693  0  1.002737  0
H  H34  1  0.64565428  0.47831925  0.49503783  1  0.108571  0  0.109928  0.122734  0  1.008007  0
H  H35  1  0.60526842  0.59968985  0.50196190  1  0.136078  0  0.108485  0.085555  0  1.010999  0
H  H36  1  0.40133213  0.70376400  0.36595899  1  0.092408  0  0.097662  0.07445  0  1.048006  0
H  H37  1  0.46999493  0.75616400  0.30696727  1  0.132677  0  0.097988  0.111068  0  1.054365  0
H  H38  1  0.77401361  0.80127432  0.37852149  1  0.156908  0  0.09607  0.109477  0  1.062338  0
H  H39  1  0.69399202  0.74942464  0.43453300  1  0.129087  0  0.111313  0.090556  0  1.008282  0
H  H40  1  0.53371267  0.80467722  0.10006697  1  0.098195  0  0.106637  0.084036  0  1.031813  0
H  H41  1  0.66654059  0.83095633  0.16437765  1  0.125379  0  0.102578  0.113288  0  1.033642  0
H  H42  1  0.44407519  0.83632074  0.22850487  1  0.127966  0  0.099167  0.109848  0  1.045834  0
H  H43  1  0.32198121  0.81606391  0.16127217  1  0.102661  0  0.107612  0.091323  0  1.013114  0
H  H44  1  0.06931509  0.93931674  0.21083919  1  0.127116  0  0.100327  0.077841  0  1.04691  0
H  H45  1  0.88693839  0.91143422  0.21261156  1  0.133309  0  0.115859  0.126686  0  1.000906  0
H  H46  1  0.95776266  0.85732950  0.33338963  1  0.17085  0  0.099192  0.11352  0  1.060515  0
H  H47  1  0.13480970  0.88457419  0.32613932  1  0.117771  0  0.117728  0.091931  0  0.987753  0
H  H48  1  0.32805476  0.65630578  0.01475429  1  0.119331  0  0.110424  0.088482  0  1.017782  0
H  H49  1  0.42820680  0.66418764  0.96226925  1  0.150691  0  0.119355  0.129729  0  0.984527  0
H  H50  1  0.57597826  0.92250260  0.99854493  1  0.129399  0  0.115503  0.12903  0  0.991104  0
H  H51  1  0.46292796  0.90484358  0.04681290  1  0.121169  0  0.114199  0.088699  0  0.994525  0
H  H52  1  0.65274121  0.57478893  0.80277116  1  0.09864  0  0.120544  0.089812  0  0.979571  0
H  H53  1  0.71814254  0.69820594  0.85533955  1  0.126228  0  0.121547  0.133749  0  0.980447  0
H  H54  1  0.40265415  0.63753254  0.85668219  1  0.111854  0  0.119889  0.130671  0  0.98171  0
H  H55  1  0.34943745  0.51727708  0.80357860  1  0.118153  0  0.11308  0.086996  0  1.002786  0
H  H56  1  0.99526225  0.04011458  0.88331127  1  0.099504  0  0.108993  0.080355  0  1.007403  0
H  H57  1  0.82612010  0.91837195  0.87117683  1  0.135214  0  0.109978  0.121192  0  1.002949  0
H  H58  1  0.82834639  0.97840592  0.99502284  1  0.115888  0  0.1098  0.122065  0  1.006472  0
H  H59  1  0.99713673  0.09960885  0.00184341  1  0.106256  0  0.108398  0.08587  0  1.011183  0
H  H60  1  0.59867208  0.29623783  0.63404183  1  0.092312  0  0.09765  0.074444  0  1.047999  0
H  H61  1  0.53000810  0.24383179  0.69303265  1  0.132674  0  0.098013  0.111209  0  1.054348  0
H  H62  1  0.22599186  0.19873111  0.62148016  1  0.156988  0  0.096098  0.109529  0  1.062343  0
H  H63  1  0.30601364  0.25058501  0.56546969  1  0.129241  0  0.111326  0.090516  0  1.00829  0
H  H64  1  0.46628159  0.19531011  0.89993303  1  0.098119  0  0.106626  0.08402  0  1.031832  0
H  H65  1  0.33345513  0.16903887  0.83562189  1  0.12164  0  0.102571  0.113288  0  1.03364  0
H  H66  1  0.55592352  0.16367868  0.77149479  1  0.127962  0  0.099183  0.109848  0  1.04586  0
H  H67  1  0.67801619  0.18393309  0.83872787  1  0.10263  0  0.107609  0.091384  0  1.013085  0
H  H68  1  0.93068577  0.06068150  0.78915917  1  0.127159  0  0.100349  0.077882  0  1.046914  0
H  H69  1  0.11306336  0.08856824  0.78738760  1  0.133344  0  0.115849  0.126702  0  1.000967  0
H  H70  1  0.04224011  0.14267355  0.66661052  1  0.170867  0  0.099261  0.113625  0  1.060594  0
H  H71  1  0.86519144  0.11542586  0.67385971  1  0.117735  0  0.117729  0.091975  0  0.987741  0
H  H72  1  0.67194540  0.34369247  0.98524371  1  0.11928  0  0.11041  0.088472  0  1.017773  0
H  H73  1  0.57179435  0.33581241  0.03772919  1  0.150797  0  0.119326  0.129639  0  0.984551  0
H  H74  1  0.42402115  0.07749681  0.00145567  1  0.12938  0  0.11549  0.129023  0  0.991044  0
H  H75  1  0.53707010  0.09515463  0.95318753  1  0.121339  0  0.114188  0.088703  0  0.99456  0
H  H76  1  0.34725668  0.42521415  0.19722739  1  0.098601  0  0.120535  0.089797  0  0.979579  0
H  H77  1  0.28185835  0.30180140  0.14465767  1  0.126223  0  0.121581  0.133774  0  0.980459  0
H  H78  1  0.59734508  0.36247173  0.14331739  1  0.111849  0  0.119852  0.130627  0  0.981807  0
H  H79  1  0.65056116  0.48272473  0.19642288  1  0.118178  0  0.113095  0.087015  0  1.002822  0
H  H80  1  0.00473930  0.95988364  0.11668860  1  0.099494  0  0.108989  0.080342  0  1.007377  0
H  H81  1  0.17387820  0.08162930  0.12882227  1  0.135253  0  0.109976  0.121208  0  1.002966  0
H  H82  1  0.17165377  0.02159230  0.00497661  1  0.11588  0  0.109799  0.122047  0  1.006461  0
H  H83  1  0.00286593  0.90038755  0.99815650  1  0.106213  0  0.10841  0.085823  0  1.011215  0
H  H84  1  0.83131608  0.79600714  0.13416150  1  0.12144  0  0.097811  0.074662  0  1.047723  0
H  H85  1  0.90667815  0.74347195  0.19303830  1  0.141894  0  0.096974  0.110126  0  1.054377  0
H  H86  1  0.09352492  0.69832673  0.12117013  1  0.148105  0  0.096894  0.11016  0  1.061652  0
H  H87  1  0.00942480  0.75053979  0.06532231  1  0.125353  0  0.1107  0.090079  0  1.008862  0
H  H88  1  0.12899452  0.69533917  0.39988737  1  0.107696  0  0.106685  0.082987  0  1.03085  0
H  H89  1  0.17129752  0.66934271  0.33553343  1  0.141982  0  0.103007  0.11482  0  1.031967  0
H  H90  1  0.87909031  0.66354922  0.27151863  1  0.145098  0  0.100258  0.111289  0  1.044452  0
H  H91  1  0.84462703  0.68383846  0.33879088  1  0.12612  0  0.107306  0.089803  0  1.014319  0
H  H92  1  0.41895269  0.56063091  0.28916191  1  0.123586  0  0.100201  0.078063  0  1.045828  0
H  H93  1  0.26270725  0.58855672  0.28733382  1  0.136269  0  0.115951  0.12758  0  1.001106  0
H  H94  1  0.26723351  0.64260042  0.16656112  1  0.170217  0  0.099313  0.113625  0  1.060161  0
H  H95  1  0.42429637  0.61538677  0.17387572  1  0.121579  0  0.118221  0.091985  0  0.986974  0
H  H96  1  0.15710603  0.84395247  0.48516139  1  0.120199  0  0.110069  0.087966  0  1.017557  0
H  H97  1  0.30190883  0.83622788  0.53764193  1  0.111462  0  0.119444  0.129927  0  0.983419  0
H  H98  1  0.15528573  0.57788208  0.50149386  1  0.129794  0  0.116358  0.130145  0  0.990645  0
H  H99  1  0.01144515  0.59537876  0.45329362  1  0.115127  0  0.114099  0.088704  0  0.994172  0
H  H100  1  0.77526123  0.92517091  0.69720000  1  0.106196  0  0.121142  0.091132  0  0.979542  0
H  H101  1  0.66459668  0.80183441  0.64463473  1  0.124912  0  0.121018  0.133298  0  0.981005  0
H  H102  1  0.40867159  0.86277533  0.64342212  1  0.132914  0  0.120241  0.130936  0  0.980834  0
H  H103  1  0.52892831  0.98292655  0.69652859  1  0.109543  0  0.11257  0.086755  0  1.003918  0
H  H104  1  0.57180881  0.45999004  0.61639366  1  0.101321  0  0.108176  0.080235  0  1.006733  0
H  H105  1  0.53657987  0.58170504  0.62868135  1  0.11687  0  0.10958  0.120665  0  1.002837  0
H  H106  1  0.35434551  0.52167958  0.50496104  1  0.108538  0  0.109929  0.122743  0  1.007972  0
H  H107  1  0.39473648  0.40031195  0.49803986  1  0.136142  0  0.108455  0.08552  0  1.011073  0
C  C108  1  0.11042822  0.22646907  0.86706842  1  0.461869  0  0.040453  0.088012  0  3.929063  0
C  C109  1  0.06825046  0.25488453  0.83467822  1  -0.073532  0  -0.078204  -0.140102  0  3.938804  0
C  C110  1  0.99296677  0.28199026  0.83819670  1  0.026286  0  0.013515  0.04665  0  3.939779  0
C  C111  1  0.96400338  0.28050164  0.87458091  1  -0.003288  0  -0.067878  -0.121556  0  3.888832  0
C  C112  1  0.01079372  0.25166771  0.90581875  1  0.440572  0  0.053496  0.106076  0  3.885287  0
C  C113  1  0.92518972  0.31308053  0.62907475  1  0.46531  0  0.047169  0.096485  0  3.911017  0
C  C114  1  0.90155683  0.32753359  0.66497482  1  -0.025011  0  -0.075055  -0.137955  0  3.929813  0
C  C115  1  0.97112804  0.33465954  0.70156013  1  -0.039448  0  0.013714  0.049841  0  3.939597  0
C  C116  1  0.06426982  0.33068120  0.70068203  1  -0.003069  0  -0.07371  -0.1363  0  3.905305  0
C  C117  1  0.08322752  0.31834705  0.66340037  1  0.465227  0  0.050565  0.099628  0  3.904235  0
C  C118  1  0.61814761  0.42124253  0.73724598  1  0.409536  0  0.044672  0.088828  0  3.926875  0
C  C119  1  0.70386152  0.40584019  0.73841145  1  0.026323  0  -0.072003  -0.137665  0  3.915495  0
C  C120  1  0.74627750  0.38145793  0.77304932  1  0.026882  0  0.020926  0.060681  0  3.919248  0
C  C121  1  0.70112234  0.37466283  0.80558451  1  -0.089293  0  -0.068542  -0.128532  0  3.893265  0
C  C122  1  0.61465625  0.39062145  0.80187577  1  0.459893  0  0.05257  0.094044  0  3.9005  0
C  C123  1  0.94634718  0.31098044  0.80341403  1  1.094877  0  0.265901  0.386606  0  3.981346  0
C  C124  1  0.94139634  0.34026364  0.73979985  1  1.085239  0  0.264298  0.384573  0  4.015606  0
C  C125  1  0.83430132  0.36029716  0.77363253  1  1.133264  0  0.261805  0.376308  0  4.01041  0
C  C126  1  0.84041114  0.21350956  0.50943136  1  0.47229  0  0.052606  0.096552  0  3.909174  0
C  C127  1  0.76100310  0.21812477  0.48076123  1  0.006768  0  -0.065323  -0.131367  0  3.905464  0
C  C128  1  0.76171704  0.29390150  0.47642622  1  0.032033  0  0.020061  0.057695  0  3.939237  0
C  C129  1  0.84329805  0.36264853  0.50076614  1  -0.052167  0  -0.069898  -0.130531  0  3.919622  0
C  C130  1  0.92161368  0.35308147  0.52775802  1  0.473083  0  0.049985  0.091644  0  3.921314  0
C  C131  1  0.30676803  0.09160489  0.31510777  1  0.505155  0  0.052793  0.093749  0  3.928238  0
C  C132  1  0.36792856  0.15978239  0.34410932  1  -0.094226  0  -0.064853  -0.137498  0  3.90771  0
C  C133  1  0.47195460  0.17679149  0.35975431  1  0.02083  0  0.024006  0.067809  0  3.930354  0
C  C134  1  0.51083850  0.12561144  0.34487125  1  0.002712  0  -0.065439  -0.135424  0  3.911686  0
C  C135  1  0.44490636  0.05948234  0.31553668  1  0.453257  0  0.05088  0.096201  0  3.93345  0
C  C136  1  0.47579002  0.52382591  0.40738224  1  0.501131  0  0.04548  0.093607  0  3.931157  0
C  C137  1  0.49436332  0.45625570  0.40080728  1  -0.040532  0  -0.072473  -0.125859  0  3.910707  0
C  C138  1  0.55601743  0.43876984  0.43266902  1  0.006481  0  0.015617  0.052728  0  3.934457  0
C  C139  1  0.59694026  0.49022605  0.46984291  1  0.016075  0  -0.070784  -0.119561  0  3.899204  0
C  C140  1  0.57453590  0.55685101  0.47387773  1  0.472579  0  0.048599  0.099708  0  3.914542  0
C  C141  1  0.67590134  0.30035818  0.44733983  1  1.12837  0  0.266764  0.384657  0  3.999142  0
C  C142  1  0.53931470  0.24558009  0.39250580  1  1.145747  0  0.263605  0.380995  0  4.014492  0
C  C143  1  0.57889618  0.36799484  0.42681200  1  1.0856  0  0.265434  0.386482  0  3.997384  0
C  C144  1  0.48326709  0.72623879  0.36710173  1  0.466533  0  0.040544  0.088137  0  3.929439  0
C  C145  1  0.52123976  0.75456298  0.33464664  1  -0.030164  0  -0.080076  -0.141466  0  3.943041  0
C  C146  1  0.62708374  0.78161233  0.33804534  1  0.002079  0  0.013784  0.046159  0  3.943344  0
C  C147  1  0.69109278  0.78014554  0.37437267  1  -0.030589  0  -0.066782  -0.119732  0  3.889002  0
C  C148  1  0.64696997  0.75152117  0.40570032  1  0.46347  0  0.052697  0.104584  0  3.883244  0
C  C149  1  0.51698287  0.81316225  0.12904278  1  0.461755  0  0.044023  0.091723  0  3.912597  0
C  C150  1  0.59104210  0.82777008  0.16491367  1  -0.025562  0  -0.072211  -0.13289  0  3.929311  0
C  C151  1  0.56516697  0.83480439  0.20151119  1  0.036553  0  0.012389  0.046849  0  3.942782  0
C  C152  1  0.46714977  0.83070388  0.20068390  1  -1.3e-05  0  -0.07058  -0.131814  0  3.905456  0
C  C153  1  0.39854634  0.81837438  0.16342505  1  0.46616  0  0.046818  0.094722  0  3.904797  0
C  C154  1  0.04040838  0.92122013  0.23723761  1  0.427736  0  0.042723  0.088108  0  3.931001  0
C  C155  1  0.94045649  0.90586071  0.23837789  1  -0.006195  0  -0.070802  -0.134934  0  3.9167  0
C  C156  1  0.90814721  0.88144428  0.27299231  1  -0.041118  0  0.020533  0.059065  0  3.919874  0
C  C157  1  0.97894321  0.87464224  0.30554932  1  0.00537  0  -0.067795  -0.127918  0  3.891021  0
C  C158  1  0.07767350  0.89059401  0.30187717  1  0.436976  0  0.052898  0.093751  0  3.902531  0
C  C159  1  0.66783433  0.81066955  0.30325344  1  1.080536  0  0.266753  0.386898  0  3.981027  0
C  C160  1  0.63868199  0.84034711  0.23973019  1  1.105298  0  0.262432  0.383826  0  4.017068  0
C  C161  1  0.79952830  0.86024490  0.27353458  1  1.132082  0  0.263626  0.378243  0  4.0085  0
C  C162  1  0.38263448  0.71381128  0.00938530  1  0.45694  0  0.051255  0.093756  0  3.908826  0
C  C163  1  0.43802887  0.71849766  0.98070882  1  -0.0048  0  -0.064168  -0.129053  0  3.904698  0
C  C164  1  0.50875342  0.79432136  0.97639968  1  -0.036503  0  0.020257  0.055056  0  3.938971  0
C  C165  1  0.52021063  0.86300956  0.00078883  1  -0.00908  0  -0.067395  -0.125899  0  3.91709  0
C  C166  1  0.45935027  0.85335429  0.02780926  1  0.47885  0  0.047967  0.088786  0  3.921889  0
C  C167  1  0.59985852  0.59162414  0.81512509  1  0.429974  0  0.054874  0.095635  0  3.928332  0
C  C168  1  0.63597065  0.65981477  0.84411192  1  -0.037423  0  -0.065644  -0.137914  0  3.909515  0
C  C169  1  0.56467424  0.67693571  0.85978140  1  0.0289  0  0.024991  0.068359  0  3.931494  0
C  C170  1  0.45972974  0.62581048  0.84494681  1  0.008783  0  -0.0659  -0.135284  0  3.910245  0
C  C171  1  0.43008775  0.55962406  0.81561275  1  0.477829  0  0.051035  0.097102  0  3.930186  0
C  C172  1  0.95548179  0.02388820  0.90716255  1  0.466639  0  0.043982  0.094639  0  3.930463  0
C  C173  1  0.86278316  0.95630772  0.90066433  1  0.019504  0  -0.07151  -0.127444  0  3.909306  0
C  C174  1  0.81571767  0.93887576  0.93259900  1  -0.055252  0  0.014304  0.053869  0  3.930737  0
C  C175  1  0.86361012  0.99029852  0.96977324  1  0.057092  0  -0.069627  -0.118452  0  3.895063  0
C  C176  1  0.95672568  0.05682143  0.97375034  1  0.471997  0  0.047944  0.098589  0  3.916151  0
C  C177  1  0.57194196  0.80078641  0.94730323  1  1.117734  0  0.267754  0.385806  0  3.998593  0
C  C178  1  0.59893660  0.74580497  0.89250788  1  1.122452  0  0.26471  0.382413  0  4.012869  0
C  C179  1  0.71616789  0.86819304  0.92678968  1  1.078765  0  0.266462  0.387567  0  3.993973  0
C  C180  1  0.51673958  0.27376241  0.63290017  1  0.465701  0  0.040511  0.088155  0  3.929393  0
C  C181  1  0.47876285  0.24543462  0.66535389  1  -0.029847  0  -0.080025  -0.141646  0  3.94329  0
C  C182  1  0.37292019  0.21838768  0.66195511  1  0.002077  0  0.013746  0.046215  0  3.943287  0
C  C183  1  0.30891134  0.21985868  0.62562911  1  -0.030618  0  -0.066824  -0.11981  0  3.888973  0
C  C184  1  0.35303549  0.24848425  0.59430220  1  0.463299  0  0.052716  0.104619  0  3.883283  0
C  C185  1  0.48301125  0.18682871  0.87095675  1  0.460736  0  0.044147  0.091946  0  3.912481  0
C  C186  1  0.40895683  0.17222331  0.83508551  1  -0.021783  0  -0.072239  -0.132895  0  3.929359  0
C  C187  1  0.43483146  0.16519322  0.79848896  1  0.036581  0  0.012319  0.04665  0  3.942899  0
C  C188  1  0.53284968  0.16929432  0.79931636  1  4e-05  0  -0.070615  -0.131749  0  3.905578  0
C  C189  1  0.60145184  0.18162021  0.83657468  1  0.466116  0  0.046834  0.094635  0  3.90489  0
C  C190  1  0.95958927  0.07877992  0.76276081  1  0.427808  0  0.042802  0.088154  0  3.930871  0
C  C191  1  0.05954538  0.09413810  0.76162203  1  -0.006287  0  -0.070892  -0.135109  0  3.916448  0
C  C192  1  0.09185281  0.11855757  0.72700697  1  -0.041285  0  0.020519  0.059067  0  3.919885  0
C  C193  1  0.02106058  0.12536142  0.69445036  1  0.005799  0  -0.067779  -0.12789  0  3.891124  0
C  C194  1  0.92232690  0.10940724  0.69812183  1  0.436695  0  0.052797  0.093517  0  3.902553  0
C  C195  1  0.33216581  0.18932865  0.69674718  1  1.080592  0  0.266782  0.38706  0  3.980914  0
C  C196  1  0.36131573  0.15965048  0.76027048  1  1.105079  0  0.26246  0.383932  0  4.016981  0
C  C197  1  0.20047176  0.13975572  0.72646612  1  1.131927  0  0.263711  0.378371  0  4.008326  0
C  C198  1  0.61736498  0.28618694  0.99061410  1  0.456943  0  0.05124  0.093696  0  3.908889  0
C  C199  1  0.56197194  0.28150177  0.01929015  1  -0.004764  0  -0.0641  -0.128885  0  3.904585  0
C  C200  1  0.49124678  0.20567567  0.02359887  1  -0.036675  0  0.020292  0.055076  0  3.93902  0
C  C201  1  0.47978873  0.13699106  0.99921180  1  -0.009013  0  -0.067459  -0.125981  0  3.917342  0
C  C202  1  0.54064541  0.14664213  0.97218944  1  0.478627  0  0.047968  0.088755  0  3.921757  0
C  C203  1  0.40014211  0.40838013  0.18487433  1  0.429963  0  0.054896  0.095744  0  3.928456  0
C  C204  1  0.36402785  0.34019073  0.15588618  1  -0.037392  0  -0.065644  -0.138056  0  3.909488  0
C  C205  1  0.43532328  0.32306799  0.14021626  1  0.029062  0  0.02496  0.068376  0  3.931329  0
C  C206  1  0.54027188  0.37419561  0.15505189  1  0.008915  0  -0.065841  -0.135267  0  3.91033  0
C  C207  1  0.56991087  0.44037778  0.18438728  1  0.477438  0  0.050937  0.097018  0  3.930376  0
C  C208  1  0.04452148  0.97611062  0.09283721  1  0.466611  0  0.043992  0.0947  0  3.930484  0
C  C209  1  0.13721518  0.04369231  0.09933532  1  0.019499  0  -0.07153  -0.127575  0  3.909421  0
C  C210  1  0.18428170  0.06112488  0.06740018  1  -0.055314  0  0.014287  0.053978  0  3.930617  0
C  C211  1  0.13639036  0.00970030  0.03022685  1  0.05709  0  -0.069583  -0.118411  0  3.894916  0
C  C212  1  0.04327693  0.94317618  0.02624961  1  0.472094  0  0.047863  0.098633  0  3.916186  0
C  C213  1  0.42805876  0.19921544  0.05269612  1  1.118264  0  0.267835  0.385907  0  3.998258  0
C  C214  1  0.40106260  0.25420053  0.10749000  1  1.122291  0  0.264581  0.382438  0  4.012805  0
C  C215  1  0.28383316  0.13180941  0.07320972  1  1.078937  0  0.266478  0.387609  0  3.99403  0
C  C216  1  0.88956927  0.77352553  0.13293038  1  0.461917  0  0.040345  0.087868  0  3.929231  0
C  C217  1  0.93174517  0.74511307  0.16532197  1  -0.07368  0  -0.078235  -0.140229  0  3.938773  0
C  C218  1  0.00703193  0.71800914  0.16180412  1  0.026531  0  0.013485  0.046669  0  3.939796  0
C  C219  1  0.03599676  0.71949655  0.12542029  1  -0.003486  0  -0.067853  -0.121441  0  3.888976  0
C  C220  1  0.98921094  0.74833106  0.09418376  1  0.441307  0  0.05353  0.106176  0  3.885344  0
C  C221  1  0.07481403  0.68692432  0.37092585  1  0.465096  0  0.047113  0.096424  0  3.911092  0
C  C222  1  0.09844961  0.67247362  0.33502873  1  -0.024745  0  -0.075098  -0.13811  0  3.929915  0
C  C223  1  0.02887622  0.66534109  0.29844008  1  -0.039368  0  0.013812  0.050006  0  3.939568  0
C  C224  1  0.93573511  0.66931937  0.29932144  1  -0.002769  0  -0.073649  -0.136314  0  3.905946  0
C  C225  1  0.91677673  0.68165358  0.33659955  1  0.465439  0  0.050441  0.099497  0  3.904499  0
C  C226  1  0.38184941  0.57875507  0.26275463  1  0.409022  0  0.04466  0.088849  0  3.926823  0
C  C227  1  0.29613626  0.59415624  0.26158714  1  0.025868  0  -0.072024  -0.137764  0  3.91548  0
C  C228  1  0.25371740  0.61854092  0.22694910  1  0.027218  0  0.021036  0.060969  0  3.91912  0
C  C229  1  0.29887686  0.62533233  0.19441709  1  -0.089351  0  -0.068671  -0.12866  0  3.893482  0
C  C230  1  0.38534061  0.60938101  0.19812325  1  0.459416  0  0.052634  0.094204  0  3.900463  0
C  C231  1  0.05365353  0.68902139  0.19658677  1  1.094911  0  0.265831  0.386427  0  3.98157  0
C  C232  1  0.05860963  0.65973757  0.26020170  1  1.085219  0  0.264319  0.384715  0  4.015757  0
C  C233  1  0.16569506  0.63969928  0.22636536  1  1.133142  0  0.261833  0.376319  0  4.010296  0
C  C234  1  0.15958412  0.78648865  0.49056882  1  0.470556  0  0.052658  0.096676  0  3.909153  0
C  C235  1  0.23899225  0.78187102  0.51923917  1  0.008525  0  -0.065325  -0.131309  0  3.905488  0
C  C236  1  0.23827789  0.70609611  0.52357362  1  0.032191  0  0.020062  0.057603  0  3.939112  0
C  C237  1  0.15669552  0.63734786  0.49923411  1  -0.052067  0  -0.069929  -0.130542  0  3.919623  0
C  C238  1  0.07838092  0.64691552  0.47224264  1  0.472893  0  0.050011  0.091741  0  3.92127  0
C  C239  1  0.69323134  0.90839576  0.68489142  1  0.50524  0  0.052696  0.093561  0  3.92816  0
C  C240  1  0.63207151  0.84021826  0.65588934  1  -0.094247  0  -0.064877  -0.137461  0  3.90751  0
C  C241  1  0.52804164  0.82320855  0.64024486  1  0.020581  0  0.024062  0.067904  0  3.930558  0
C  C242  1  0.48915811  0.87438796  0.65512968  1  0.002529  0  -0.06542  -0.135525  0  3.911918  0
C  C243  1  0.55509128  0.94051770  0.68446261  1  0.453161  0  0.05087  0.096197  0  3.93333  0
C  C244  1  0.52421387  0.47617532  0.59261795  1  0.501552  0  0.045499  0.093616  0  3.93117  0
C  C245  1  0.50563936  0.54374978  0.59919208  1  -0.040664  0  -0.072423  -0.125871  0  3.910832  0
C  C246  1  0.44398306  0.56122901  0.56732962  1  0.006484  0  0.015615  0.052677  0  3.934605  0
C  C247  1  0.40306078  0.50977639  0.53015736  1  0.016007  0  -0.070822  -0.119585  0  3.899154  0
C  C248  1  0.42546626  0.44314963  0.52612199  1  0.472712  0  0.048627  0.099753  0  3.914319  0
C  C249  1  0.32409494  0.69964064  0.55265988  1  1.128704  0  0.266869  0.38491  0  3.998908  0
C  C250  1  0.46068178  0.75442296  0.60749379  1  1.146047  0  0.263655  0.381005  0  4.014508  0
C  C251  1  0.42109933  0.63200641  0.57318714  1  1.08579  0  0.265434  0.386623  0  3.997367  0
I  I252  1  0.24963919  0.11303921  0.92022490  1  -0.540505  0  -0.277339  -0.455942  0  1.259002  0
I  I253  1  0.19287529  0.26402977  0.01543158  1  -0.525788  0  -0.300858  -0.438654  0  1.196273  0
I  I254  1  0.00117568  0.12199022  0.57482735  1  -0.525556  0  -0.280425  -0.430583  0  1.19127  0
I  I255  1  0.20295881  0.38180878  0.56623967  1  -0.512851  0  -0.275753  -0.429773  0  1.385598  0
I  I256  1  0.38589644  0.45149317  0.68811343  1  -0.510097  0  -0.272272  -0.429946  0  1.331708  0
I  I257  1  0.31288367  0.33671248  0.79558032  1  -0.528642  0  -0.25568  -0.424334  0  1.339498  0
I  I258  1  0.28418874  0.61314286  0.42040332  1  -0.537839  0  -0.277237  -0.455517  0  1.257797  0
I  I259  1  0.58737050  0.76419082  0.51552426  1  -0.526284  0  -0.30122  -0.438944  0  1.195476  0
I  I260  1  0.19599971  0.62199597  0.07481072  1  -0.527011  0  -0.280642  -0.430527  0  1.191766  0
I  I261  1  0.24497553  0.88183681  0.06640937  1  -0.514392  0  -0.275828  -0.429612  0  1.385568  0
I  I262  1  0.25359193  0.95158737  0.18809956  1  -0.509518  0  -0.272308  -0.4299  0  1.332996  0
I  I263  1  0.31959957  0.83672286  0.29549211  1  -0.52918  0  -0.255524  -0.42388  0  1.339354  0
I  I264  1  0.71581271  0.38685775  0.57959751  1  -0.537788  0  -0.277223  -0.455489  0  1.257799  0
I  I265  1  0.41262919  0.23581039  0.48447701  1  -0.526311  0  -0.301199  -0.438905  0  1.195451  0
I  I266  1  0.80399359  0.37799863  0.92518799  1  -0.526977  0  -0.280641  -0.430525  0  1.191759  0
I  I267  1  0.75502456  0.11816258  0.93359216  1  -0.514412  0  -0.275828  -0.429612  0  1.385581  0
I  I268  1  0.74641334  0.04840483  0.81189898  1  -0.50949  0  -0.272301  -0.429872  0  1.332977  0
I  I269  1  0.68040537  0.16327775  0.70450903  1  -0.529133  0  -0.255517  -0.423886  0  1.339438  0
I  I270  1  0.75036133  0.88695840  0.07977486  1  -0.540487  0  -0.277347  -0.455959  0  1.258946  0
I  I271  1  0.80712584  0.73597025  0.98456832  1  -0.525801  0  -0.300874  -0.438687  0  1.196267  0
I  I272  1  0.99882643  0.87801162  0.42517241  1  -0.525514  0  -0.280417  -0.430573  0  1.191249  0
I  I273  1  0.79703921  0.61819065  0.43375992  1  -0.512821  0  -0.275749  -0.429767  0  1.3856  0
I  I274  1  0.61410547  0.54850442  0.31188733  1  -0.510066  0  -0.272276  -0.429938  0  1.331681  0
I  I275  1  0.68711881  0.66328872  0.20442149  1  -0.528648  0  -0.255666  -0.424329  0  1.339524  0
N  N276  1  0.08204663  0.22456538  0.90199509  1  -1.240566  0  -0.324763  -0.184151  0  3.55608  0
N  N277  1  0.01391045  0.30790162  0.62823741  1  -1.244766  0  -0.32742  -0.18725  0  3.568005  0
N  N278  1  0.57356777  0.41325222  0.76827705  1  -1.240475  0  -0.327224  -0.190995  0  3.567778  0
N  N279  1  0.98354063  0.31259951  0.77068358  1  -1.183895  0  -0.294946  -0.383826  0  3.204133  0
N  N280  1  0.86973570  0.36817952  0.74038632  1  -1.179574  0  -0.302976  -0.395577  0  3.22812  0
N  N281  1  0.86947408  0.33204728  0.80600433  1  -1.188656  0  -0.290903  -0.375435  0  3.176152  0
N  N282  1  0.91958350  0.27990088  0.53232912  1  -1.254236  0  -0.325939  -0.184753  0  3.570563  0
N  N283  1  0.34421014  0.04202375  0.30118969  1  -1.23989  0  -0.324399  -0.188931  0  3.577262  0
N  N284  1  0.51465974  0.57298927  0.44330689  1  -1.25656  0  -0.329605  -0.190846  0  3.572653  0
N  N285  1  0.61802380  0.23784535  0.41734116  1  -1.203374  0  -0.299452  -0.400257  0  3.200755  0
N  N286  1  0.51616817  0.30904676  0.39556709  1  -1.165771  0  -0.297068  -0.392424  0  3.199046  0
N  N287  1  0.66054028  0.36710855  0.45314620  1  -1.179199  0  -0.290349  -0.380864  0  3.207309  0
N  N288  1  0.54483513  0.72445322  0.40199923  1  -1.236413  0  -0.324061  -0.183099  0  3.551928  0
N  N289  1  0.42221750  0.80790222  0.12824778  1  -1.257141  0  -0.323488  -0.182947  0  3.565633  0
N  N290  1  0.10790411  0.91318565  0.26828378  1  -1.242084  0  -0.327569  -0.191516  0  3.571515  0
N  N291  1  0.59962212  0.81248185  0.27057570  1  -1.161782  0  -0.294848  -0.383927  0  3.201246  0
N  N292  1  0.73885279  0.86838491  0.24033936  1  -1.189084  0  -0.302257  -0.395706  0  3.228378  0
N  N293  1  0.76833020  0.83167945  0.30582162  1  -1.18811  0  -0.293259  -0.376623  0  3.177046  0
N  N294  1  0.39274410  0.78012390  0.03233607  1  -1.257062  0  -0.325034  -0.182021  0  3.570229  0
N  N295  1  0.49891809  0.54210553  0.80122270  1  -1.225579  0  -0.325642  -0.19094  0  3.578862  0
N  N296  1  0.00193604  0.07295796  0.94310461  1  -1.253548  0  -0.329414  -0.191652  0  3.573244  0
N  N297  1  0.53726546  0.73824314  0.91731085  1  -1.181684  0  -0.3013  -0.402597  0  3.202612  0
N  N298  1  0.68872412  0.80914093  0.89558783  1  -1.176634  0  -0.298285  -0.393629  0  3.19864  0
N  N299  1  0.65989589  0.86747887  0.95309749  1  -1.162168  0  -0.291343  -0.381597  0  3.207665  0
N  N300  1  0.45516759  0.27555103  0.59800154  1  -1.235909  0  -0.324061  -0.18308  0  3.551974  0
N  N301  1  0.57777626  0.19208934  0.87175232  1  -1.255839  0  -0.323479  -0.183026  0  3.565667  0
N  N302  1  0.89209669  0.08681378  0.73171578  1  -1.242051  0  -0.327565  -0.191404  0  3.571618  0
N  N303  1  0.40038047  0.18751700  0.72942254  1  -1.161681  0  -0.294874  -0.384086  0  3.200984  0
N  N304  1  0.26115036  0.13161754  0.75966023  1  -1.189113  0  -0.302295  -0.395781  0  3.228785  0
N  N305  1  0.23167299  0.16832180  0.69417734  1  -1.187906  0  -0.293313  -0.37672  0  3.176932  0
N  N306  1  0.60725596  0.21987673  0.96766375  1  -1.257084  0  -0.324991  -0.181942  0  3.570073  0
N  N307  1  0.50108123  0.45789631  0.19877768  1  -1.22534  0  -0.325618  -0.190894  0  3.57893  0
N  N308  1  0.99806764  0.92703904  0.05689541  1  -1.253582  0  -0.329368  -0.191693  0  3.573246  0
N  N309  1  0.46273276  0.26176056  0.08268688  1  -1.181917  0  -0.301263  -0.402557  0  3.202367  0
N  N310  1  0.31127513  0.19086337  0.10441030  1  -1.176586  0  -0.298253  -0.393718  0  3.198719  0
N  N311  1  0.34010524  0.13252115  0.04690241  1  -1.162523  0  -0.291355  -0.381678  0  3.20765  0
N  N312  1  0.91795668  0.77543222  0.09800521  1  -1.241251  0  -0.324657  -0.184048  0  3.556204  0
N  N313  1  0.98609506  0.69210259  0.37176478  1  -1.244878  0  -0.327373  -0.187155  0  3.567855  0
N  N314  1  0.42643467  0.58675022  0.23172277  1  -1.239638  0  -0.327255  -0.191167  0  3.567299  0
N  N315  1  0.01646385  0.68740410  0.22931850  1  -1.183836  0  -0.294881  -0.383793  0  3.204141  0
N  N316  1  0.13026235  0.63181868  0.25961412  1  -1.179374  0  -0.30302  -0.395716  0  3.22819  0
N  N317  1  0.13052123  0.66794973  0.19399523  1  -1.188725  0  -0.290863  -0.375332  0  3.176232  0
N  N318  1  0.08041143  0.72009673  0.46767072  1  -1.254151  0  -0.325937  -0.184749  0  3.5705  0
N  N319  1  0.65578783  0.95797689  0.69880995  1  -1.239629  0  -0.324359  -0.188879  0  3.577127  0
N  N320  1  0.48534372  0.42701376  0.55669420  1  -1.256838  0  -0.329628  -0.190823  0  3.572622  0
N  N321  1  0.38197044  0.76215225  0.58265949  1  -1.203694  0  -0.299562  -0.40039  0  3.200866  0
N  N322  1  0.48383022  0.69095206  0.60443252  1  -1.165663  0  -0.29711  -0.392495  0  3.19882  0
N  N323  1  0.33946127  0.63288965  0.54685426  1  -1.17945  0  -0.290392  -0.381021  0  3.207378  0
