# generated using pymatgen
data_CuH8(C5N4)2
_symmetry_space_group_name_H-M   'P 1'
_cell_length_a   6.49269595
_cell_length_b   8.44113156
_cell_length_c   10.81087770
_cell_angle_alpha   87.76847925
_cell_angle_beta   88.57997325
_cell_angle_gamma   76.96055568
_symmetry_Int_Tables_number   1
_chemical_formula_structural   CuH8(C5N4)2
_chemical_formula_sum   'Cu2 H16 C20 N16'
_cell_volume   576.70454278
_cell_formula_units_Z   2
loop_
 _symmetry_equiv_pos_site_id
 _symmetry_equiv_pos_as_xyz
  1  'x, y, z'
loop_
 _atom_site_type_symbol
 _atom_site_label
 _atom_site_symmetry_multiplicity
 _atom_site_fract_x
 _atom_site_fract_y
 _atom_site_fract_z
 _atom_site_occupancy
 _atom_site_hle17_ddec_charge
 _atom_site_hle17_ddec_spin_density
 _atom_site_hle17_ddec_sum_bond_order
 _atom_site_hle17_magmom
 _atom_site_hse06_10hf_ddec_charge
 _atom_site_hse06_10hf_ddec_spin_density
 _atom_site_hse06_10hf_ddec_sum_bond_order
 _atom_site_hse06_10hf_magmom
 _atom_site_hse06_ddec_charge
 _atom_site_hse06_ddec_spin_density
 _atom_site_hse06_ddec_sum_bond_order
 _atom_site_hse06_magmom
 _atom_site_pbe_cm5_charge
 _atom_site_pbe_ddec_charge
 _atom_site_pbe_ddec_spin_density
 _atom_site_pbe_ddec_sum_bond_order
 _atom_site_pbe_magmom
Cu  Cu0  1  0.24518489  0.50162534  0.55167867  1  0.718492  -0.616906  2.040766  -0.394  0.713012  -0.752332  2.465586  -0.541  0.805543  -0.859381  2.391893  -0.64  0.757505  0.664769  -0.680899  2.510679  -0.48
Cu  Cu1  1  0.75482266  0.49836937  0.44832266  1  0.718352  0.616929  2.040894  0.394  0.712893  0.752344  2.465719  0.541  0.80541  0.85938  2.392054  0.64  0.757457  0.664672  0.680916  2.510813  0.48
H  H2  1  0.13946666  0.74224929  0.97388971  1  0.110034  -0.000687  0.970131  0.0  0.119487  -0.000867  1.034495  -0.001  0.122597  -0.000672  1.033483  0.0  0.108997  0.117071  -0.000786  1.035726  -0.001
H  H3  1  0.86052528  0.25775168  0.02610708  1  0.110026  0.000688  0.97008  0.0  0.11946  0.000867  1.03446  0.001  0.122573  0.000672  1.033454  0.0  0.108958  0.117042  0.000786  1.035695  0.001
H  H4  1  0.97725938  0.02944395  0.90036568  1  0.087993  0.000156  0.957989  0.0  0.100017  0.000324  1.01896  0.0  0.102032  0.000264  1.01777  0.0  0.10623  0.098479  0.000244  1.019937  0.0
H  H5  1  0.02273147  0.97054978  0.09963508  1  0.08799  -0.000157  0.958148  0.0  0.100053  -0.000324  1.019073  0.0  0.102069  -0.000264  1.017878  0.0  0.106239  0.098513  -0.000244  1.02005  0.0
H  H6  1  0.91079098  0.08715162  0.67513384  1  0.102377  -0.000292  0.980268  0.0  0.113346  -0.00041  1.04055  0.0  0.116515  -0.00034  1.039947  0.0  0.108324  0.111085  -0.000415  1.040897  0.0
H  H7  1  0.08920478  0.91284690  0.32486943  1  0.102371  0.000293  0.980217  0.0  0.113355  0.00041  1.04049  0.0  0.116523  0.00034  1.039891  0.0  0.108339  0.111092  0.000415  1.040837  0.0
H  H8  1  0.00970995  0.85474157  0.52900042  1  0.078483  -0.000486  0.96249  -0.001  0.088734  -0.000653  1.026519  -0.001  0.09152  -0.000427  1.024028  -0.001  0.115965  0.086874  -0.000892  1.028024  -0.002
H  H9  1  0.99028906  0.14526172  0.47099523  1  0.07859  0.000486  0.962505  0.001  0.088768  0.000654  1.02662  0.001  0.091552  0.000427  1.024133  0.001  0.115976  0.086909  0.000892  1.028124  0.002
H  H10  1  0.25307699  0.48934567  0.01898444  1  0.114666  -0.000861  0.985101  -0.001  0.12173  -0.001001  1.052433  -0.001  0.125419  -0.000787  1.05079  -0.001  0.107549  0.118639  -0.000893  1.054477  -0.001
H  H11  1  0.74691854  0.51066496  0.98101472  1  0.114619  0.00086  0.985028  0.001  0.121673  0.001001  1.052402  0.001  0.125368  0.000787  1.050753  0.001  0.107503  0.118578  0.000893  1.054444  0.001
H  H12  1  0.41134898  0.19768216  0.04838665  1  0.09407  5.4e-05  0.983913  0.0  0.104185  6.1e-05  1.04735  0.0  0.10722  6.4e-05  1.044656  0.0  0.103892  0.102139  3e-06  1.049109  0.0
H  H13  1  0.58865122  0.80232842  0.95161520  1  0.094026  -5.3e-05  0.983964  0.0  0.104144  -6.1e-05  1.047399  0.0  0.107173  -6.4e-05  1.044709  0.0  0.103874  0.102095  -3e-06  1.049159  0.0
H  H14  1  0.51311983  0.02448882  0.85721066  1  0.098973  -0.000122  0.986093  0.0  0.108553  -0.00024  1.049987  0.0  0.111607  -0.000181  1.049224  0.0  0.103315  0.106299  -0.000241  1.050827  0.0
H  H15  1  0.48686257  0.97551353  0.14279367  1  0.09901  0.000121  0.985989  0.0  0.108532  0.00024  1.049945  0.0  0.111585  0.000182  1.049183  0.0  0.103297  0.106277  0.000241  1.050782  0.0
H  H16  1  0.45621161  0.16388839  0.64887527  1  0.085035  -0.000502  0.941566  -0.001  0.095381  -0.000647  1.002308  -0.002  0.098962  -0.000425  0.999268  -0.001  0.116481  0.093287  -0.000978  1.003973  -0.002
H  H17  1  0.54380150  0.83610869  0.35112865  1  0.085104  0.000502  0.941672  0.001  0.095509  0.000647  1.002345  0.002  0.099041  0.000424  0.99936  0.001  0.116506  0.09341  0.000977  1.004016  0.002
C  C18  1  0.16458030  0.65215227  0.78842069  1  0.18535  0.002317  3.742095  0.002  0.181918  -0.000505  3.982033  0.0  0.190717  0.000365  4.001255  0.001  0.125303  0.176281  -0.001026  3.969668  -0.001
C  C19  1  0.83540566  0.34785362  0.21157327  1  0.185458  -0.002307  3.742002  -0.002  0.181891  0.000502  3.982092  0.0  0.190687  -0.000364  4.001316  -0.001  0.125238  0.17626  0.001024  3.969717  0.001
C  C20  1  0.10949294  0.77296799  0.87610654  1  -0.132764  -0.003671  3.680175  -0.003  -0.148428  -0.001887  3.920247  -0.002  -0.155471  -0.00197  3.939608  -0.002  -0.072798  -0.143843  -0.001963  3.907429  -0.002
C  C21  1  0.89050129  0.22702446  0.12388958  1  -0.132756  0.003655  3.679799  0.003  -0.148361  0.001889  3.919894  0.002  -0.155413  0.001968  3.939267  0.002  -0.072722  -0.143777  0.001963  3.907074  0.002
C  C22  1  0.01963126  0.93135004  0.83553491  1  -0.001671  0.005599  3.728783  0.005  -0.018847  0.002674  3.975338  0.002  -0.014001  0.002814  3.992315  0.002  -0.064823  -0.022059  0.002466  3.963968  0.002
C  C23  1  0.98036637  0.06864113  0.16445933  1  -0.001701  -0.005587  3.728906  -0.005  -0.018906  -0.002675  3.975444  -0.002  -0.01406  -0.002815  3.992426  -0.002  -0.06486  -0.022118  -0.002467  3.964073  -0.002
C  C24  1  0.98286205  0.96511344  0.70968403  1  -0.113211  -0.00589  3.726575  -0.006  -0.125171  -0.003295  3.970382  -0.004  -0.131389  -0.003105  3.98853  -0.004  -0.080481  -0.121259  -0.003451  3.958286  -0.004
C  C25  1  0.01713885  0.03488862  0.29031348  1  -0.113219  0.005876  3.726538  0.006  -0.125168  0.003295  3.970356  0.004  -0.131386  0.003106  3.988507  0.004  -0.080486  -0.121257  0.003451  3.958258  0.004
C  C26  1  0.03810644  0.83861876  0.62817290  1  0.140161  0.005169  3.695171  0.005  0.113935  0.001333  3.937277  0.002  0.123742  0.002175  3.952886  0.003  0.050438  0.107761  0.000575  3.927255  0.001
C  C27  1  0.96188995  0.16137732  0.37182860  1  0.140109  -0.00516  3.695226  -0.005  0.113863  -0.001334  3.937413  -0.002  0.123668  -0.002175  3.953022  -0.003  0.050429  0.107689  -0.000575  3.927388  -0.001
C  C28  1  0.26667652  0.48114550  0.81826181  1  0.174118  0.002474  3.755496  0.002  0.168493  -0.000554  3.998522  0.0  0.176264  0.000358  4.018656  0.001  0.119715  0.163107  -0.001119  3.985585  -0.001
C  C29  1  0.73332459  0.51884444  0.18173796  1  0.173917  -0.002487  3.755572  -0.002  0.168378  0.000551  3.998561  0.0  0.176145  -0.00036  4.018695  -0.001  0.119728  0.162997  0.001118  3.985622  0.001
C  C30  1  0.29892823  0.41465442  0.93848381  1  -0.123247  -0.003794  3.668355  -0.004  -0.138149  -0.001879  3.907585  -0.002  -0.1449  -0.002  3.926756  -0.002  -0.072736  -0.1332  -0.002213  3.894631  -0.002
C  C31  1  0.70106334  0.58535385  0.06151829  1  -0.123077  0.003809  3.668288  0.004  -0.138006  0.001882  3.907518  0.002  -0.144766  0.002001  3.926698  0.002  -0.072657  -0.133049  0.002214  3.894551  0.002
C  C32  1  0.38805565  0.24908287  0.95450170  1  -0.005528  0.006152  3.715106  0.005  -0.021433  0.002865  3.956553  0.002  -0.016994  0.00303  3.973468  0.003  -0.066973  -0.023877  0.002524  3.944149  0.002
C  C33  1  0.61193995  0.75092169  0.04549582  1  -0.005582  -0.006166  3.715346  -0.005  -0.021473  -0.002865  3.95676  -0.002  -0.017053  -0.003033  3.973734  -0.003  -0.067003  -0.02391  -0.002524  3.944347  -0.002
C  C34  1  0.44415475  0.15448037  0.85082641  1  -0.119629  -0.006341  3.732173  -0.006  -0.131496  -0.003442  3.977878  -0.004  -0.139058  -0.00324  3.998349  -0.004  -0.083152  -0.126673  -0.003671  3.963878  -0.004
C  C35  1  0.55585273  0.84552041  0.14917749  1  -0.119632  0.006356  3.732158  0.006  -0.131438  0.003442  3.977882  0.004  -0.138999  0.003244  3.998339  0.004  -0.083129  -0.126613  0.003671  3.963875  0.004
C  C36  1  0.41208183  0.22972949  0.73387597  1  0.14227  0.005808  3.694949  0.006  0.114355  0.001571  3.941986  0.002  0.124129  0.002478  3.958017  0.004  0.051048  0.108234  0.000693  3.931197  0.002
C  C37  1  0.58792127  0.77027622  0.26613062  1  0.142214  -0.005821  3.695  -0.006  0.114229  -0.00157  3.942035  -0.002  0.124037  -0.00248  3.958075  -0.004  0.051034  0.108112  -0.000692  3.931245  -0.002
N  N38  1  0.12772300  0.68663901  0.66660832  1  -0.323011  -0.051209  3.326618  -0.057  -0.26743  -0.049764  3.601653  -0.061  -0.294512  -0.045373  3.6203  -0.059  -0.339475  -0.252606  -0.051803  3.591708  -0.061
N  N39  1  0.87226229  0.31335236  0.33338986  1  -0.323061  0.051211  3.326452  0.057  -0.267368  0.049772  3.601419  0.061  -0.294448  0.045377  3.620069  0.059  -0.339482  -0.252543  0.051812  3.591473  0.061
N  N40  1  0.32587729  0.38862746  0.71831764  1  -0.324286  -0.054974  3.33418  -0.062  -0.268907  -0.053252  3.610844  -0.066  -0.2963  -0.048455  3.629736  -0.063  -0.340249  -0.253145  -0.05554  3.600117  -0.066
N  N41  1  0.67411690  0.61137107  0.28168381  1  -0.32413  0.055001  3.333854  0.062  -0.268753  0.053263  3.610529  0.066  -0.296126  0.048467  3.629387  0.063  -0.340214  -0.253045  0.055554  3.599896  0.066
N  N42  1  0.43044533  0.32410065  0.46414843  1  -0.515663  -0.091023  2.755532  -0.101  -0.567144  -0.046063  3.11914  -0.055  -0.614753  -0.028094  3.132117  -0.037  -0.3251  -0.541884  -0.055662  3.114039  -0.063
N  N43  1  0.56957269  0.67589512  0.53584988  1  -0.515679  0.091084  2.755107  0.101  -0.567202  0.046084  3.118725  0.055  -0.614812  0.028115  3.1317  0.037  -0.32511  -0.541939  0.055679  3.113641  0.063
N  N44  1  0.41050413  0.28017027  0.36131395  1  0.384736  0.032362  4.183716  0.046  0.438216  0.003578  4.490726  0.011  0.458461  0.006243  4.528529  0.013  0.081679  0.425729  0.000335  4.467018  0.008
N  N45  1  0.58950492  0.71983052  0.63869269  1  0.384685  -0.032327  4.183787  -0.046  0.438206  -0.003569  4.490721  -0.011  0.458453  -0.006233  4.528515  -0.013  0.08162  0.42572  -0.000326  4.467017  -0.008
N  N46  1  0.40289005  0.23128599  0.26222579  1  -0.353704  -0.144299  2.387147  -0.146  -0.377464  -0.070566  2.625588  -0.076  -0.392723  -0.059681  2.642356  -0.067  -0.18425  -0.368138  -0.076609  2.614802  -0.08
N  N47  1  0.59710873  0.76871245  0.73777096  1  -0.353598  0.144175  2.387637  0.146  -0.377367  0.070522  2.626039  0.076  -0.392607  0.059645  2.642793  0.067  -0.184149  -0.368049  0.076563  2.615261  0.08
N  N48  1  0.09625318  0.62160575  0.40872660  1  -0.526163  -0.073272  2.790314  -0.082  -0.570647  -0.038776  3.161532  -0.046  -0.616027  -0.02346  3.172556  -0.031  -0.323975  -0.54381  -0.049962  3.155114  -0.057
N  N49  1  0.90376512  0.37839488  0.59127617  1  -0.526163  0.073303  2.790082  0.082  -0.570656  0.038784  3.161248  0.046  -0.616032  0.023467  3.172266  0.031  -0.323967  -0.543846  0.049967  3.15489  0.057
N  N50  1  0.14412236  0.62051488  0.30040839  1  0.385117  0.027034  4.184808  0.038  0.434433  0.002031  4.490654  0.008  0.45458  0.004723  4.52608  0.01  0.081622  0.422071  -0.000258  4.46605  0.006
N  N51  1  0.85588855  0.37948465  0.69959549  1  0.385189  -0.027013  4.185062  -0.038  0.434553  -0.002026  4.490789  -0.008  0.454697  -0.004716  4.526209  -0.01  0.081556  0.422188  0.000263  4.466194  -0.006
N  N52  1  0.17666649  0.62868875  0.19370542  1  -0.363008  -0.132155  2.396094  -0.133  -0.380728  -0.066172  2.639325  -0.07  -0.393206  -0.05651  2.653918  -0.063  -0.184045  -0.371351  -0.072417  2.628843  -0.075
N  N53  1  0.82334182  0.37131442  0.80629191  1  -0.363052  0.132086  2.396563  0.133  -0.380762  0.066147  2.639699  0.07  -0.393251  0.056491  2.654314  0.063  -0.183982  -0.371387  0.072389  2.629222  0.075
