# generated using pymatgen
data_CdH28C26(N2O3)2
_symmetry_space_group_name_H-M   'P 1'
_cell_length_a   10.34874737
_cell_length_b   10.47458048
_cell_length_c   13.69822705
_cell_angle_alpha   98.13140523
_cell_angle_beta   105.92483779
_cell_angle_gamma   106.27436095
_symmetry_Int_Tables_number   1
_chemical_formula_structural   CdH28C26(N2O3)2
_chemical_formula_sum   'Cd2 H56 C52 N8 O12'
_cell_volume   1331.77894911
_cell_formula_units_Z   2
loop_
 _symmetry_equiv_pos_site_id
 _symmetry_equiv_pos_as_xyz
  1  'x, y, z'
loop_
 _atom_site_type_symbol
 _atom_site_label
 _atom_site_symmetry_multiplicity
 _atom_site_fract_x
 _atom_site_fract_y
 _atom_site_fract_z
 _atom_site_occupancy
 _atom_site_hle17_bader_spin_density
 _atom_site_hle17_ddec_charge
 _atom_site_hle17_ddec_spin_density
 _atom_site_hle17_ddec_sum_bond_order
 _atom_site_hle17_magmom
 _atom_site_hse06_10hf_bader_spin_density
 _atom_site_hse06_10hf_ddec_charge
 _atom_site_hse06_10hf_ddec_spin_density
 _atom_site_hse06_10hf_ddec_sum_bond_order
 _atom_site_hse06_10hf_magmom
 _atom_site_hse06_bader_spin_density
 _atom_site_hse06_ddec_charge
 _atom_site_hse06_ddec_spin_density
 _atom_site_hse06_ddec_sum_bond_order
 _atom_site_hse06_magmom
 _atom_site_pbe_bader_spin_density
 _atom_site_pbe_cm5_charge
 _atom_site_pbe_ddec_charge
 _atom_site_pbe_ddec_spin_density
 _atom_site_pbe_ddec_sum_bond_order
 _atom_site_pbe_magmom
Cd  Cd0  1  0.60534322  0.88683922  0.93154276  1  0  1.11921  0  1.712485  0  0  0.921118  0  2.174152  0  0  0.979949  0  2.119717  0  0  0.772494  0.876331  0  2.213617  0
Cd  Cd1  1  0.39465813  0.11316156  0.06845774  1  0  1.119215  0  1.712464  0  0  0.921128  0  2.174107  0  0  0.97996  0  2.119673  0  0  0.772515  0.876373  0  2.213587  0
H  H2  1  0.70867620  0.20359549  0.51840022  1  0  0.282275  0  0.894033  0  0  0.278328  0  0.935783  0  0  0.284006  0  0.932907  0  0  0.322373  0.274287  0  0.937927  0
H  H3  1  0.29132414  0.79640528  0.48160007  1  0  0.282266  0  0.894037  0  0  0.278322  0  0.935787  0  0  0.284001  0  0.932909  0  0  0.322351  0.274257  0  0.937956  0
H  H4  1  0.52576506  0.44343464  0.27877603  1  0  0.298272  0  0.940292  0  0  0.280381  0  1.005452  0  0  0.288519  0  0.999  0  0  0.302378  0.274558  0  1.010113  0
H  H5  1  0.47423564  0.55656716  0.72122445  1  0  0.298345  0  0.94024  0  0  0.280437  0  1.005428  0  0  0.288577  0  0.998973  0  0  0.302394  0.274614  0  1.010095  0
H  H6  1  0.10431715  0.77063242  0.69742920  1  0  0.066723  0  0.922712  0  0  0.085377  0  0.980722  0  0  0.08658  0  0.980439  0  0  0.087201  0.084521  0  0.980827  0
H  H7  1  0.89568549  0.22936632  0.30257208  1  0  0.066808  0  0.922638  0  0  0.085449  0  0.980665  0  0  0.086653  0  0.980384  0  0  0.087217  0.084597  0  0.980773  0
H  H8  1  0.16174631  0.62619688  0.70627354  1  0  0.077945  0  0.950821  0  0  0.093128  0  1.016442  0  0  0.094272  0  1.017087  0  0  0.090306  0.092125  0  1.01635  0
H  H9  1  0.83825533  0.37380186  0.29372752  1  0  0.077908  0  0.950925  0  0  0.093148  0  1.016483  0  0  0.094298  0  1.017123  0  0  0.090327  0.092145  0  1.016395  0
H  H10  1  0.91062505  0.55794702  0.59243876  1  0  0.049051  0  0.946464  0  0  0.064548  0  1.001488  0  0  0.065753  0  1.001008  0  0  0.093072  0.063451  0  1.002098  0
H  H11  1  0.08937659  0.44205171  0.40756157  1  0  0.048998  0  0.946415  0  0  0.06451  0  1.001425  0  0  0.065716  0  1.000946  0  0  0.09306  0.063419  0  1.002033  0
H  H12  1  0.98362427  0.39576344  0.69413283  1  0  0.070421  0  0.965807  0  0  0.083454  0  1.035893  0  0  0.08475  0  1.035727  0  0  0.082571  0.082521  0  1.036016  0
H  H13  1  0.01637773  0.60423632  0.30586915  1  0  0.070379  0  0.965837  0  0  0.083432  0  1.035905  0  0  0.08472  0  1.035744  0  0  0.082562  0.082499  0  1.036021  0
H  H14  1  0.80438711  0.38305789  0.68270817  1  0  0.047252  0  0.978367  0  0  0.059256  0  1.054537  0  0  0.059844  0  1.055595  0  0  0.07572  0.058938  0  1.053541  0
H  H15  1  0.19561287  0.61694186  0.31729193  1  0  0.047245  0  0.978365  0  0  0.059242  0  1.054536  0  0  0.05983  0  1.055591  0  0  0.075717  0.058925  0  1.053525  0
H  H16  1  0.94249836  0.39236652  0.86648235  1  0  0.031908  0  0.925559  0  0  0.047057  0  0.983963  0  0  0.047337  0  0.98479  0  0  0.08454  0.046623  0  0.98379  0
H  H17  1  0.05749997  0.60763426  0.13351825  1  0  0.031886  0  0.925541  0  0  0.047063  0  0.983924  0  0  0.04732  0  0.984777  0  0  0.084545  0.046628  0  0.983745  0
H  H18  1  0.18339589  0.53184175  0.86720993  1  0  0.073465  0  0.953953  0  0  0.085711  0  1.024207  0  0  0.086753  0  1.02491  0  0  0.085345  0.084824  0  1.024011  0
H  H19  1  0.81660374  0.46815698  0.13279218  1  0  0.073512  0  0.95398  0  0  0.085746  0  1.024234  0  0  0.086788  0  1.024938  0  0  0.08536  0.084857  0  1.024032  0
H  H20  1  0.14007920  0.60743517  0.97271506  1  0  0.066362  0  0.940406  0  0  0.083774  0  1.003446  0  0  0.084519  0  1.00371  0  0  0.086321  0.083184  0  1.003358  0
H  H21  1  0.85991877  0.39256458  0.02728536  1  0  0.066336  0  0.94039  0  0  0.083774  0  1.003394  0  0  0.084518  0  1.003661  0  0  0.086315  0.083179  0  1.003305  0
H  H22  1  0.04198899  0.88047997  0.84780555  1  0  0.073778  0  0.94776  0  0  0.086745  0  1.017311  0  0  0.088267  0  1.015969  0  0  0.087361  0.085715  0  1.018435  0
H  H23  1  0.95801235  0.11952081  0.15219494  1  0  0.07379  0  0.947762  0  0  0.086746  0  1.017317  0  0  0.088268  0  1.015978  0  0  0.087359  0.085723  0  1.018442  0
H  H24  1  0.05607132  0.81704060  0.96082120  1  0  0.082923  0  0.924432  0  0  0.098873  0  0.985909  0  0  0.100226  0  0.985327  0  0  0.090427  0.097892  0  0.986536  0
H  H25  1  0.94392967  0.18295916  0.03917911  1  0  0.082928  0  0.924414  0  0  0.098868  0  0.985897  0  0  0.100229  0  0.985308  0  0  0.090438  0.097899  0  0.986512  0
H  H26  1  0.72288348  0.58474479  0.67068174  1  0  0.072163  0  0.937116  0  0  0.087722  0  1.002237  0  0  0.089704  0  1.001332  0  0  0.087598  0.086239  0  1.003098  0
H  H27  1  0.27711650  0.41525496  0.32931691  1  0  0.072143  0  0.937155  0  0  0.087699  0  1.00228  0  0  0.089682  0  1.001377  0  0  0.087603  0.08623  0  1.003133  0
H  H28  1  0.84257222  0.74504157  0.67497013  1  0  0.080491  0  0.91933  0  0  0.098518  0  0.975903  0  0  0.099966  0  0.975464  0  0  0.091545  0.097455  0  0.976317  0
H  H29  1  0.15743078  0.25495819  0.32502913  1  0  0.080477  0  0.919369  0  0  0.098502  0  0.975942  0  0  0.09995  0  0.975504  0  0  0.091561  0.097457  0  0.976368  0
H  H30  1  0.88104344  0.58410243  0.95203062  1  0  0.069152  0  0.939989  0  0  0.086811  0  1.002691  0  0  0.087462  0  1.003373  0  0  0.087651  0.086336  0  1.002237  0
H  H31  1  0.11895489  0.41589835  0.04796852  1  0  0.069154  0  0.939985  0  0  0.086819  0  1.002677  0  0  0.08747  0  1.003357  0  0  0.087664  0.086348  0  1.002224  0
H  H32  1  0.74412173  0.48995012  0.83255377  1  0  0.068613  0  0.945116  0  0  0.084464  0  1.010221  0  0  0.086013  0  1.009764  0  0  0.08517  0.08316  0  1.010956  0
H  H33  1  0.25587696  0.51005168  0.16744556  1  0  0.068578  0  0.94513  0  0  0.084433  0  1.010235  0  0  0.08598  0  1.009777  0  0  0.085162  0.083131  0  1.01096  0
H  H34  1  0.38473730  0.01964792  0.80255838  1  0  0.088301  0  0.979949  0  0  0.094631  0  1.046577  0  0  0.096997  0  1.045231  0  0  0.115261  0.092904  0  1.047401  0
H  H35  1  0.61525996  0.98034978  0.19744021  1  0  0.088295  0  0.979944  0  0  0.094629  0  1.046565  0  0  0.096989  0  1.045225  0  0  0.115258  0.092901  0  1.047397  0
H  H36  1  0.34167963  0.11863272  0.64273581  1  0  0.118762  0  0.94707  0  0  0.127111  0  1.005909  0  0  0.130878  0  1.004286  0  0  0.113035  0.124286  0  1.007368  0
H  H37  1  0.65832201  0.88136601  0.35726452  1  0  0.118757  0  0.946982  0  0  0.127077  0  1.005859  0  0  0.130844  0  1.004236  0  0  0.113006  0.124232  0  1.007325  0
H  H38  1  0.76319264  0.13086509  0.64519787  1  0  0.103818  0  0.943002  0  0  0.117682  0  0.996291  0  0  0.120896  0  0.994829  0  0  0.115821  0.115304  0  0.997585  0
H  H39  1  0.23680699  0.86913364  0.35480205  1  0  0.103852  0  0.942985  0  0  0.117682  0  0.996309  0  0  0.120895  0  0.994849  0  0  0.115833  0.11531  0  0.997612  0
H  H40  1  0.78695168  0.03262945  0.80110226  1  0  0.092419  0  0.936525  0  0  0.101199  0  0.995219  0  0  0.104223  0  0.992753  0  0  0.121792  0.098879  0  0.997233  0
H  H41  1  0.21304558  0.96736825  0.19889706  1  0  0.092415  0  0.936582  0  0  0.10119  0  0.995281  0  0  0.104215  0  0.992813  0  0  0.121812  0.098876  0  0.997311  0
H  H42  1  0.47891600  0.23046364  0.34810086  1  0  0.081287  0  0.935924  0  0  0.093441  0  1.002139  0  0  0.094082  0  1.002189  0  0  0.111113  0.092811  0  1.002362  0
H  H43  1  0.52108499  0.76953611  0.65189945  1  0  0.081274  0  0.935929  0  0  0.093418  0  1.002161  0  0  0.094059  0  1.002211  0  0  0.111087  0.092775  0  1.002378  0
H  H44  1  0.65390646  0.24156322  0.34821989  1  0  0.067816  0  0.930731  0  0  0.083561  0  0.994174  0  0  0.083313  0  0.995021  0  0  0.108252  0.083723  0  0.993608  0
H  H45  1  0.34609488  0.75843756  0.65178060  1  0  0.067791  0  0.930728  0  0  0.083541  0  0.994159  0  0  0.083294  0  0.995005  0  0  0.108237  0.083688  0  0.993604  0
H  H46  1  0.57743287  0.45703295  0.47633653  1  0  0.064558  0  0.922063  0  0  0.081013  0  0.983434  0  0  0.081025  0  0.983596  0  0  0.10533  0.080863  0  0.983609  0
H  H47  1  0.42256575  0.54296578  0.52366173  1  0  0.064543  0  0.92208  0  0  0.081034  0  0.983402  0  0  0.081048  0  0.983559  0  0  0.105325  0.080869  0  0.983594  0
H  H48  1  0.75241555  0.47104703  0.47547483  1  0  0.074811  0  0.964647  0  0  0.090307  0  1.023437  0  0  0.091571  0  1.022475  0  0  0.112166  0.089262  0  1.024341  0
H  H49  1  0.24758343  0.52895273  0.52452507  1  0  0.074811  0  0.964662  0  0  0.090296  0  1.023464  0  0  0.091559  0  1.022503  0  0  0.11216  0.089245  0  1.024373  0
H  H50  1  0.44491539  0.63224540  0.00989795  1  0  0.088173  0  0.952794  0  0  0.095651  0  1.015914  0  0  0.098313  0  1.014386  0  0  0.116324  0.093618  0  1.017125  0
H  H51  1  0.55508660  0.36775436  0.99010257  1  0  0.0882  0  0.952738  0  0  0.095685  0  1.015848  0  0  0.09835  0  1.014315  0  0  0.116344  0.093637  0  1.017069  0
H  H52  1  0.47601127  0.51250092  0.15529976  1  0  0.119186  0  0.980532  0  0  0.126046  0  1.045151  0  0  0.130257  0  1.042767  0  0  0.111137  0.122851  0  1.047267  0
H  H53  1  0.52398907  0.48749986  0.84470053  1  0  0.119139  0  0.980576  0  0  0.126023  0  1.045165  0  0  0.130234  0  1.042781  0  0  0.111126  0.122828  0  1.047286  0
H  H54  1  0.90937631  0.79172916  0.28879768  1  0  0.113456  0  0.944978  0  0  0.122186  0  1.0032  0  0  0.126598  0  1.000627  0  0  0.110678  0.118942  0  1.005274  0
H  H55  1  0.09062237  0.20827264  0.71120237  1  0  0.113458  0  0.944974  0  0  0.12219  0  1.003187  0  0  0.126603  0  1.000613  0  0  0.110694  0.118947  0  1.005257  0
H  H56  1  0.86125450  0.89550553  0.13128574  1  0  0.088059  0  0.935197  0  0  0.095819  0  0.998194  0  0  0.098886  0  0.995213  0  0  0.119963  0.093514  0  1.000523  0
H  H57  1  0.13874483  0.10449524  0.86871288  1  0  0.088075  0  0.935193  0  0  0.095836  0  0.99819  0  0  0.098902  0  0.995209  0  0  0.119977  0.093535  0  1.000514  0
C  C58  1  0.28499531  0.80709676  0.89028110  1  0  0.662619  0  3.823041  0  0  0.608021  0  4.121898  0  0  0.643131  0  4.113757  0  0  0.213733  0.584098  0  4.126525  0
C  C59  1  0.71500532  0.19290197  0.10971903  1  0  0.662525  0  3.823065  0  0  0.607961  0  4.121862  0  0  0.643069  0  4.113726  0  0  0.213714  0.584036  0  4.126495  0
C  C60  1  0.08986519  0.67673235  0.72706240  1  0  -0.164309  0  3.617641  0  0  -0.211891  0  3.864572  0  0  -0.213075  0  3.878272  0  0  -0.159695  -0.210654  0  3.854958  0
C  C61  1  0.91013580  0.32326740  0.27293937  1  0  -0.164408  0  3.617741  0  0  -0.212049  0  3.86468  0  0  -0.213241  0  3.878384  0  0  -0.159731  -0.210811  0  3.855073  0
C  C62  1  0.93488619  0.58174414  0.67756347  1  0  0.042518  0  3.620767  0  0  0.042894  0  3.858919  0  0  0.042303  0  3.876363  0  0  -0.091005  0.043478  0  3.846832  0
C  C63  1  0.06511314  0.41825664  0.32243442  1  0  0.042549  0  3.620791  0  0  0.042934  0  3.858916  0  0  0.042341  0  3.876367  0  0  -0.091036  0.043522  0  3.846823  0
C  C64  1  0.91637076  0.45043456  0.71779728  1  0  -0.176237  0  3.65276  0  0  -0.219528  0  3.904055  0  0  -0.221528  0  3.9188  0  0  -0.172386  -0.218008  0  3.89361  0
C  C65  1  0.08363023  0.54956520  0.28220230  1  0  -0.176171  0  3.652809  0  0  -0.219466  0  3.904078  0  0  -0.221457  0  3.91882  0  0  -0.172343  -0.217948  0  3.893616  0
C  C66  1  0.95516767  0.48652166  0.83727560  1  0  0.040866  0  3.630235  0  0  0.041701  0  3.870272  0  0  0.041192  0  3.888448  0  0  -0.09387  0.042172  0  3.857669  0
C  C67  1  0.04483102  0.51348014  0.16272519  1  0  0.040997  0  3.630118  0  0  0.04179  0  3.87018  0  0  0.041292  0  3.888342  0  0  -0.09383  0.042263  0  3.85756  0
C  C68  1  0.11055134  0.58188980  0.88686988  1  0  -0.171172  0  3.633375  0  0  -0.218751  0  3.880623  0  0  -0.219688  0  3.894273  0  0  -0.163866  -0.217797  0  3.871339  0
C  C69  1  0.88945037  0.41811200  0.11313299  1  0  -0.17128  0  3.63345  0  0  -0.21887  0  3.880691  0  0  -0.219809  0  3.894342  0  0  -0.16391  -0.21791  0  3.871388  0
C  C70  1  0.12920046  0.71457426  0.84743066  1  0  -0.000982  0  3.583325  0  0  0.031293  0  3.804379  0  0  0.025417  0  3.822437  0  0  -0.019211  0.035084  0  3.792655  0
C  C71  1  0.87080053  0.28542550  0.15256965  1  0  -0.000837  0  3.583335  0  0  0.031431  0  3.804375  0  0  0.025571  0  3.822389  0  0  -0.019145  0.035227  0  3.792651  0
C  C72  1  0.02874662  0.78577190  0.87554875  1  0  -0.177083  0  3.646537  0  0  -0.227399  0  3.887961  0  0  -0.227984  0  3.902598  0  0  -0.165883  -0.2271  0  3.878625  0
C  C73  1  0.97125035  0.21422785  0.12445073  1  0  -0.177127  0  3.646626  0  0  -0.227413  0  3.88801  0  0  -0.228007  0  3.902654  0  0  -0.165886  -0.227123  0  3.878674  0
C  C74  1  0.87272056  0.69054571  0.82608554  1  0  0.008842  0  3.56848  0  0  0.036705  0  3.79733  0  0  0.031407  0  3.815032  0  0  -0.017533  0.040277  0  3.785638  0
C  C75  1  0.12728042  0.30945405  0.17391404  1  0  0.008753  0  3.568482  0  0  0.036616  0  3.79733  0  0  0.031314  0  3.815036  0  0  -0.01756  0.040199  0  3.785652  0
C  C76  1  0.83466850  0.65266072  0.70594296  1  0  -0.168768  0  3.61942  0  0  -0.216367  0  3.86973  0  0  -0.217593  0  3.882998  0  0  -0.160812  -0.215294  0  3.860555  0
C  C77  1  0.16533249  0.34733904  0.29405662  1  0  -0.168725  0  3.619487  0  0  -0.216329  0  3.869795  0  0  -0.217554  0  3.883062  0  0  -0.160799  -0.215269  0  3.860639  0
C  C78  1  0.85586287  0.55820585  0.86656443  1  0  -0.169701  0  3.627377  0  0  -0.218763  0  3.878439  0  0  -0.219889  0  3.892043  0  0  -0.161939  -0.217645  0  3.869034  0
C  C79  1  0.14414006  0.44179084  0.13343449  1  0  -0.169658  0  3.627257  0  0  -0.218724  0  3.878318  0  0  -0.219844  0  3.891914  0  0  -0.161953  -0.217607  0  3.868906  0
C  C80  1  0.77017296  0.75799854  0.85343324  1  0  0.632847  0  3.835971  0  0  0.581631  0  4.135011  0  0  0.614606  0  4.130579  0  0  0.199056  0.559274  0  4.136868  0
C  C81  1  0.22982501  0.24200122  0.14656572  1  0  0.632859  0  3.836018  0  0  0.581643  0  4.135073  0  0  0.614618  0  4.130639  0  0  0.199061  0.559278  0  4.136963  0
C  C82  1  0.46485407  0.04676668  0.76440803  1  0  0.120168  0  3.700254  0  0  0.089519  0  3.95483  0  0  0.095577  0  3.973669  0  0  0.044185  0.085645  0  3.941727  0
C  C83  1  0.53514627  0.95323410  0.23559299  1  0  0.120179  0  3.700223  0  0  0.089542  0  3.954778  0  0  0.095603  0  3.973619  0  0  0.044189  0.085663  0  3.941695  0
C  C84  1  0.44154023  0.10111853  0.67692321  1  0  -0.119949  0  3.703338  0  0  -0.142064  0  3.951266  0  0  -0.147384  0  3.97166  0  0  -0.076142  -0.138595  0  3.937873  0
C  C85  1  0.55846046  0.89888327  0.32307799  1  0  -0.119987  0  3.703304  0  0  -0.142077  0  3.951261  0  0  -0.147398  0  3.971654  0  0  -0.076154  -0.138599  0  3.937863  0
C  C86  1  0.54759782  0.13283578  0.63058855  1  0  -0.001714  0  3.731582  0  0  0.01375  0  3.971743  0  0  0.013231  0  3.991063  0  0  0.005617  0.01399  0  3.958923  0
C  C87  1  0.45240181  0.86716294  0.36941064  1  0  -0.001569  0  3.731542  0  0  0.013847  0  3.971746  0  0  0.013332  0  3.991066  0  0  0.005653  0.01409  0  3.958912  0
C  C88  1  0.67510591  0.10953517  0.67620418  1  0  -0.125199  0  3.709558  0  0  -0.148711  0  3.962632  0  0  -0.153455  0  3.982261  0  0  -0.074574  -0.14583  0  3.94985  0
C  C89  1  0.32489236  0.89046254  0.32379535  1  0  -0.125284  0  3.709646  0  0  -0.148767  0  3.96274  0  0  -0.153512  0  3.982368  0  0  -0.074603  -0.145896  0  3.94999  0
C  C90  1  0.69064547  0.05499691  0.76409929  1  0  0.129807  0  3.691034  0  0  0.101459  0  3.941251  0  0  0.107747  0  3.959271  0  0  0.051421  0.097045  0  3.929523  0
C  C91  1  0.30935280  0.94500080  0.23590097  1  0  0.12983  0  3.691159  0  0  0.101499  0  3.94135  0  0  0.107788  0  3.959367  0  0  0.051422  0.097073  0  3.929672  0
C  C92  1  0.51291919  0.18796134  0.53417693  1  0  0.511783  0  3.88677  0  0  0.464625  0  4.183664  0  0  0.492535  0  4.183421  0  0  0.232039  0.445887  0  4.183121  0
C  C93  1  0.48708008  0.81203637  0.46582135  1  0  0.51167  0  3.886859  0  0  0.464556  0  4.183716  0  0  0.492462  0  4.18348  0  0  0.232019  0.445804  0  4.183155  0
C  C94  1  0.59233316  0.27209489  0.39520023  1  0  0.034196  0  3.647561  0  0  -0.027003  0  3.917866  0  0  -0.022046  0  3.92881  0  0  -0.05855  -0.030174  0  3.91035  0
C  C95  1  0.40766682  0.72790486  0.60479914  1  0  0.034263  0  3.647552  0  0  -0.02693  0  3.91785  0  0  -0.021974  0  3.928794  0  0  -0.058524  -0.030092  0  3.91032  0
C  C96  1  0.63923835  0.42840899  0.42830219  1  0  0.037494  0  3.646737  0  0  -0.020698  0  3.907658  0  0  -0.016394  0  3.919243  0  0  -0.056054  -0.023571  0  3.89987  0
C  C97  1  0.36076199  0.57159179  0.57169664  1  0  0.037463  0  3.646761  0  0  -0.020733  0  3.907647  0  0  -0.016428  0  3.919234  0  0  -0.056074  -0.023601  0  3.899864  0
C  C98  1  0.72935102  0.59027444  0.33157423  1  0  0.521769  0  3.86701  0  0  0.472459  0  4.161475  0  0  0.501027  0  4.160927  0  0  0.234578  0.453394  0  4.161019  0
C  C99  1  0.27065069  0.40972736  0.66842645  1  0  0.521579  0  3.867104  0  0  0.472276  0  4.161556  0  0  0.500845  0  4.161009  0  0  0.234525  0.453212  0  4.161119  0
C  C100  1  0.54654826  0.66318549  0.07305190  1  0  0.119603  0  3.708049  0  0  0.092461  0  3.958373  0  0  0.098137  0  3.977247  0  0  0.045958  0.088931  0  3.945404  0
C  C101  1  0.45345273  0.33681427  0.92694914  1  0  0.119563  0  3.707979  0  0  0.092415  0  3.958301  0  0  0.098085  0  3.977181  0  0  0.045945  0.088902  0  3.945329  0
C  C102  1  0.56484912  0.59846253  0.15541365  1  0  -0.138536  0  3.695924  0  0  -0.1622  0  3.947565  0  0  -0.167427  0  3.966737  0  0  -0.078709  -0.159005  0  3.935117  0
C  C103  1  0.43515086  0.40153723  0.84458791  1  0  -0.138514  0  3.695906  0  0  -0.162181  0  3.947521  0  0  -0.167406  0  3.966695  0  0  -0.078692  -0.158982  0  3.935059  0
C  C104  1  0.69691645  0.64578004  0.23535262  1  0  0.011272  0  3.72664  0  0  0.029006  0  3.962327  0  0  0.028451  0  3.98212  0  0  0.011955  0.029424  0  3.949002  0
C  C105  1  0.30308425  0.35422176  0.76464858  1  0  0.011338  0  3.72656  0  0  0.029048  0  3.962268  0  0  0.028494  0  3.982061  0  0  0.011966  0.029464  0  3.948953  0
C  C106  1  0.80612741  0.75385458  0.22698780  1  0  -0.134726  0  3.720272  0  0  -0.153586  0  3.962721  0  0  -0.159474  0  3.983383  0  0  -0.077752  -0.149715  0  3.949198  0
C  C107  1  0.19387164  0.24614824  0.77301171  1  0  -0.134707  0  3.720366  0  0  -0.153569  0  3.962832  0  0  -0.159457  0  3.983493  0  0  -0.077766  -0.149695  0  3.949309  0
C  C108  1  0.77959983  0.81131653  0.14130454  1  0  0.122447  0  3.711126  0  0  0.094585  0  3.962413  0  0  0.100474  0  3.981026  0  0  0.048278  0.090544  0  3.949981  0
C  C109  1  0.22039986  0.18868527  0.85869426  1  0  0.122385  0  3.711179  0  0  0.09452  0  3.962476  0  0  0.100411  0  3.981088  0  0  0.048249  0.090487  0  3.950042  0
N  N110  1  0.58718437  0.02330036  0.80727633  1  0  -0.326413  0  3.229618  0  0  -0.250315  0  3.496057  0  0  -0.269239  0  3.513744  0  0  -0.321214  -0.237289  0  3.483865  0
N  N111  1  0.41281490  0.97669734  0.19272268  1  0  -0.326449  0  3.229555  0  0  -0.250354  0  3.495986  0  0  -0.269277  0  3.513671  0  0  -0.321242  -0.237336  0  3.483834  0
N  N112  1  0.61256282  0.21350530  0.48589997  1  0  -0.424953  0  3.345903  0  0  -0.371362  0  3.600013  0  0  -0.393779  0  3.61175  0  0  -0.421681  -0.355843  0  3.591402  0
N  N113  1  0.38743716  0.78649445  0.51409940  1  0  -0.424919  0  3.345919  0  0  -0.371345  0  3.600022  0  0  -0.393763  0  3.611762  0  0  -0.421677  -0.355832  0  3.591426  0
N  N114  1  0.62114683  0.48806998  0.33877690  1  0  -0.415544  0  3.307789  0  0  -0.356375  0  3.555691  0  0  -0.378992  0  3.565647  0  0  -0.41794  -0.340706  0  3.548508  0
N  N115  1  0.37885451  0.51193080  0.66122286  1  0  -0.41553  0  3.307696  0  0  -0.35636  0  3.555585  0  0  -0.378978  0  3.56554  0  0  -0.417908  -0.340687  0  3.548407  0
N  N116  1  0.65119105  0.76782747  0.06612733  1  0  -0.314496  0  3.240366  0  0  -0.241073  0  3.501062  0  0  -0.259146  0  3.519933  0  0  -0.324068  -0.228514  0  3.487886  0
N  N117  1  0.34880858  0.23217126  0.93387185  1  0  -0.314474  0  3.240326  0  0  -0.241054  0  3.501027  0  0  -0.259127  0  3.519901  0  0  -0.324071  -0.228503  0  3.48786  0
O  O118  1  0.37681442  0.74973313  0.88283286  1  0  -0.635684  0  2.025276  0  0  -0.568413  0  2.287293  0  0  -0.597552  0  2.276117  0  0  -0.327614  -0.547351  0  2.295061  0
O  O119  1  0.62318757  0.25026663  0.11716766  1  0  -0.635664  0  2.025381  0  0  -0.568394  0  2.287371  0  0  -0.597535  0  2.276199  0  0  -0.327606  -0.547328  0  2.295139  0
O  O120  1  0.31614907  0.93511751  0.92389511  1  0  -0.686216  0  2.08866  0  0  -0.62012  0  2.367051  0  0  -0.648414  0  2.352421  0  0  -0.341937  -0.599377  0  2.375699  0
O  O121  1  0.68385056  0.06488122  0.07610481  1  0  -0.686167  0  2.088622  0  0  -0.620092  0  2.367017  0  0  -0.648381  0  2.352371  0  0  -0.341923  -0.599337  0  2.375662  0
O  O122  1  0.63661151  0.69010026  0.81920383  1  0  -0.6671  0  1.989369  0  0  -0.606026  0  2.233033  0  0  -0.632861  0  2.223483  0  0  -0.333404  -0.585637  0  2.239504  0
O  O123  1  0.36338517  0.30990154  0.18079508  1  0  -0.667122  0  1.989359  0  0  -0.60605  0  2.233014  0  0  -0.632884  0  2.223463  0  0  -0.333404  -0.585648  0  2.239502  0
O  O124  1  0.82000688  0.87975949  0.91043723  1  0  -0.630865  0  1.9528  0  0  -0.567571  0  2.19503  0  0  -0.596611  0  2.185934  0  0  -0.330067  -0.546638  0  2.200151  0
O  O125  1  0.17999246  0.12024129  0.08956212  1  0  -0.630857  0  1.952837  0  0  -0.567563  0  2.19506  0  0  -0.596604  0  2.185962  0  0  -0.330042  -0.546606  0  2.200188  0
O  O126  1  0.39680375  0.20596705  0.50095211  1  0  -0.526206  0  1.874385  0  0  -0.490752  0  2.081097  0  0  -0.509541  0  2.076093  0  0  -0.300205  -0.477746  0  2.08422  0
O  O127  1  0.60319552  0.79403066  0.49904690  1  0  -0.526147  0  1.874481  0  0  -0.490694  0  2.081157  0  0  -0.509481  0  2.076155  0  0  -0.300225  -0.477729  0  2.084276  0
O  O128  1  0.84991965  0.63957563  0.39918261  1  0  -0.551026  0  1.870249  0  0  -0.515063  0  2.077474  0  0  -0.534136  0  2.070287  0  0  -0.313666  -0.50188  0  2.082087  0
O  O129  1  0.15008277  0.36042822  0.60081843  1  0  -0.550938  0  1.870364  0  0  -0.514973  0  2.077577  0  0  -0.534047  0  2.070392  0  0  -0.313639  -0.501788  0  2.082204  0
