# generated using pymatgen
data_YH12(CO)9
_symmetry_space_group_name_H-M   'P 1'
_cell_length_a   6.63310999
_cell_length_b   11.29129534
_cell_length_c   19.65518337
_cell_angle_alpha   106.69107189
_cell_angle_beta   89.59697265
_cell_angle_gamma   89.99336880
_symmetry_Int_Tables_number   1
_chemical_formula_structural   YH12(CO)9
_chemical_formula_sum   'Y4 H48 C36 O36'
_cell_volume   1410.04044981
_cell_formula_units_Z   4
loop_
 _symmetry_equiv_pos_site_id
 _symmetry_equiv_pos_as_xyz
  1  'x, y, z'
loop_
 _atom_site_type_symbol
 _atom_site_label
 _atom_site_symmetry_multiplicity
 _atom_site_fract_x
 _atom_site_fract_y
 _atom_site_fract_z
 _atom_site_occupancy
 _atom_site_pbe_bader_charge
 _atom_site_pbe_bader_spin_density
 _atom_site_pbe_cm5_charge
 _atom_site_pbe_ddec_charge
 _atom_site_pbe_ddec_spin_density
 _atom_site_pbe_ddec_sum_bond_order
 _atom_site_pbe_magmom
Y  Y0  1  0.19946293  0.58182309  0.74289704  1  2.302721  0  1.287566  1.842601  0  2.367512  0
Y  Y1  1  0.30047447  0.83898357  0.25707527  1  2.301091  0  1.287663  1.843675  0  2.366744  0
Y  Y2  1  0.80053436  0.41817880  0.25710296  1  2.302722  0  1.287539  1.842506  0  2.367695  0
Y  Y3  1  0.69951844  0.16101707  0.74292071  1  2.301065  0  1.287662  1.843653  0  2.366845  0
H  H4  1  0.17349984  0.50462053  0.47340006  1  0.045019  0  0.106663  0.124597  0  1.005915  0
H  H5  1  0.32706715  0.03108564  0.52666364  1  0.08411  0  0.106616  0.124475  0  1.005688  0
H  H6  1  0.82649901  0.49537804  0.52659938  1  0.045023  0  0.106662  0.124596  0  1.005906  0
H  H7  1  0.67293612  0.96891780  0.47333791  1  0.084126  0  0.106609  0.12452  0  1.005624  0
H  H8  1  0.38804486  0.25366923  0.45145861  1  0.07028  0  0.106906  0.103786  0  0.987658  0
H  H9  1  0.11189648  0.80213118  0.54839444  1  0.068733  0  0.106663  0.103737  0  0.987586  0
H  H10  1  0.61194346  0.74632543  0.54854158  1  0.070404  0  0.106901  0.103801  0  0.987608  0
H  H11  1  0.88809942  0.19786843  0.45160236  1  0.068616  0  0.106664  0.103688  0  0.987562  0
H  H12  1  0.36338817  0.49740887  0.57704345  1  0.126627  0  0.11247  0.102933  0  1.015821  0
H  H13  1  0.13699518  0.92064384  0.42296642  1  0.111536  0  0.112253  0.102733  0  1.016101  0
H  H14  1  0.63661072  0.50258300  0.42295670  1  0.126609  0  0.112487  0.102985  0  1.015821  0
H  H15  1  0.86301257  0.07936553  0.57703458  1  0.111705  0  0.112206  0.102644  0  1.016202  0
H  H16  1  0.53267198  0.23809422  0.56649593  1  0.095332  0  0.103257  0.117515  0  1.038959  0
H  H17  1  0.96721652  0.67201169  0.43352545  1  0.091138  0  0.103237  0.117356  0  1.039605  0
H  H18  1  0.46731940  0.76189712  0.43350369  1  0.095492  0  0.103258  0.1175  0  1.039046  0
H  H19  1  0.03278358  0.32800019  0.56647808  1  0.091024  0  0.103222  0.11739  0  1.039467  0
H  H20  1  0.52104534  0.68896495  0.97232079  1  0.100699  0  0.115169  0.134949  0  0.970336  0
H  H21  1  0.97902469  0.71661041  0.02771402  1  0.100465  0  0.115294  0.135403  0  0.97106  0
H  H22  1  0.47896577  0.31103581  0.02767156  1  0.100702  0  0.11518  0.134999  0  0.970415  0
H  H23  1  0.02096815  0.28338917  0.97228461  1  0.100521  0  0.115307  0.135454  0  0.971008  0
H  H24  1  0.40759165  0.41184165  0.93106090  1  0.130587  0  0.112376  0.106869  0  0.998375  0
H  H25  1  0.09242747  0.48066881  0.06892368  1  0.108353  0  0.112711  0.107647  0  0.998724  0
H  H26  1  0.59241631  0.58816111  0.06893531  1  0.130861  0  0.112402  0.106923  0  0.998404  0
H  H27  1  0.90756995  0.51932849  0.93107357  1  0.108307  0  0.112678  0.107604  0  0.998745  0
H  H28  1  0.06581928  0.85839467  0.80153986  1  0.635766  0  0.34221  0.427847  0  0.848494  0
H  H29  1  0.43410231  0.05699480  0.19829194  1  0.621379  0  0.341829  0.427542  0  0.848882  0
H  H30  1  0.93418711  0.14160393  0.19845960  1  0.63586  0  0.342132  0.427755  0  0.848531  0
H  H31  1  0.56589205  0.94300169  0.80170729  1  0.62134  0  0.341843  0.427615  0  0.848845  0
H  H32  1  0.90976819  0.77420294  0.74640452  1  0.624234  0  0.297657  0.374978  0  0.97143  0
H  H33  1  0.59011879  0.02781492  0.25339554  1  0.635857  0  0.298294  0.37572  0  0.969751  0
H  H34  1  0.09023209  0.22579843  0.25359681  1  0.62423  0  0.297626  0.374964  0  0.971453  0
H  H35  1  0.40987860  0.97218185  0.74660304  1  0.635813  0  0.298303  0.375772  0  0.969736  0
H  H36  1  0.31065521  0.79150050  0.67706137  1  0.644628  0  0.297098  0.387808  0  0.952803  0
H  H37  1  0.18953450  0.11453588  0.32300718  1  0.648822  0  0.297322  0.387798  0  0.952934  0
H  H38  1  0.68934365  0.20849833  0.32293742  1  0.644612  0  0.297049  0.387681  0  0.952972  0
H  H39  1  0.81045987  0.88546010  0.67699154  1  0.648764  0  0.297325  0.387863  0  0.952817  0
H  H40  1  0.51128422  0.71590937  0.67975156  1  0.65959  0  0.296336  0.39086  0  0.950052  0
H  H41  1  0.98891373  0.03625624  0.32026397  1  0.659634  0  0.296159  0.390852  0  0.949976  0
H  H42  1  0.48871764  0.28408998  0.32024774  1  0.659586  0  0.296378  0.39089  0  0.950012  0
H  H43  1  0.01107918  0.96373795  0.67973388  1  0.659659  0  0.296166  0.390847  0  0.949972  0
H  H44  1  0.75599326  0.54308282  0.76307265  1  0.634065  0  0.3114  0.398696  0  0.920471  0
H  H45  1  0.74393002  0.77994250  0.23687256  1  0.645084  0  0.311353  0.39904  0  0.920343  0
H  H46  1  0.24400866  0.45691346  0.23692543  1  0.634084  0  0.311457  0.398869  0  0.920279  0
H  H47  1  0.25606878  0.22005682  0.76312857  1  0.645094  0  0.311325  0.399029  0  0.920392  0
H  H48  1  0.86587846  0.46796457  0.80722817  1  0.676895  0  0.305403  0.403892  0  0.929066  0
H  H49  1  0.63388885  0.66071025  0.19274413  1  0.679239  0  0.305674  0.404125  0  0.928502  0
H  H50  1  0.13412345  0.53203222  0.19277042  1  0.676984  0  0.305404  0.403891  0  0.929086  0
H  H51  1  0.36611602  0.33928652  0.80725629  1  0.679263  0  0.305679  0.404139  0  0.92849  0
C  C52  1  0.15226706  0.36351146  0.37150019  1  1.513303  0  0.221912  0.64297  0  4.169888  0
C  C53  1  0.34777067  0.99195357  0.62855745  1  1.550534  0  0.221947  0.64406  0  4.170118  0
C  C54  1  0.84772727  0.63648709  0.62849925  1  1.513243  0  0.221891  0.643015  0  4.169801  0
C  C55  1  0.65222814  0.00804601  0.37144301  1  1.550381  0  0.221959  0.644113  0  4.17021  0
C  C56  1  0.22450245  0.41147425  0.44516530  1  -0.031512  0  -0.09151  -0.24615  0  3.907824  0
C  C57  1  0.27588348  0.96613544  0.55484077  1  -0.053464  0  -0.091712  -0.24583  0  3.910203  0
C  C58  1  0.77549337  0.58852404  0.55483479  1  -0.031196  0  -0.091487  -0.24614  0  3.907828  0
C  C59  1  0.72411681  0.03386542  0.44516005  1  -0.05339  0  -0.091655  -0.245888  0  3.910149  0
C  C60  1  0.34052106  0.34814775  0.47909490  1  0.016006  0  -0.070347  -0.023278  0  3.988645  0
C  C61  1  0.15969317  0.86905325  0.52084866  1  -0.034115  0  -0.07045  -0.02381  0  3.992272  0
C  C62  1  0.65947322  0.65185000  0.52090652  1  0.015633  0  -0.070322  -0.023249  0  3.988503  0
C  C63  1  0.84030866  0.13094970  0.47915054  1  -0.034104  0  -0.070493  -0.023733  0  3.992199  0
C  C64  1  0.40146111  0.40048820  0.55167081  1  -0.098708  0  -0.071083  -0.034212  0  4.010774  0
C  C65  1  0.09871915  0.84907005  0.44829279  1  -0.122295  0  -0.071075  -0.034892  0  4.011908  0
C  C66  1  0.59853332  0.59950549  0.44832654  1  -0.098688  0  -0.071072  -0.034237  0  4.010888  0
C  C67  1  0.90128719  0.15093601  0.55170581  1  -0.122256  0  -0.071058  -0.034795  0  4.012014  0
C  C68  1  0.49691278  0.33557441  0.58975427  1  -0.010453  0  -0.082958  -0.229262  0  3.871158  0
C  C69  1  0.00296659  0.74619431  0.41023280  1  0.018715  0  -0.082671  -0.228318  0  3.872075  0
C  C70  1  0.50308473  0.66441286  0.41024313  1  -0.010619  0  -0.082961  -0.229355  0  3.871479  0
C  C71  1  0.99703069  0.25381222  0.58976630  1  0.018664  0  -0.082638  -0.228384  0  3.871946  0
C  C72  1  0.55667036  0.38810456  0.66488776  1  1.573231  0  0.234406  0.676452  0  4.143441  0
C  C73  1  0.94321461  0.72344373  0.33508739  1  1.582879  0  0.234765  0.677447  0  4.145386  0
C  C74  1  0.44333005  0.61188913  0.33511142  1  1.573175  0  0.234352  0.676489  0  4.143309  0
C  C75  1  0.05678419  0.27655971  0.66491231  1  1.582868  0  0.234774  0.677456  0  4.145324  0
C  C76  1  0.37889674  0.59400311  0.87105194  1  1.484447  0  0.19786  0.615817  0  4.199185  0
C  C77  1  0.12101379  0.72280048  0.12898835  1  1.469521  0  0.199558  0.619482  0  4.195406  0
C  C78  1  0.62111427  0.40599787  0.12894341  1  1.484531  0  0.197833  0.615598  0  4.199194  0
C  C79  1  0.87898212  0.27719604  0.87100905  1  1.469495  0  0.199473  0.619443  0  4.195587  0
C  C80  1  0.46545294  0.59926246  0.94057155  1  0.003202  0  -0.08073  -0.218082  0  3.855163  0
C  C81  1  0.03454473  0.65860919  0.05944992  1  0.089346  0  -0.080775  -0.219201  0  3.858122  0
C  C82  1  0.53455057  0.40073747  0.05942277  1  0.00267  0  -0.080635  -0.217953  0  3.855228  0
C  C83  1  0.96545415  0.34139222  0.94054775  1  0.089416  0  -0.080769  -0.219269  0  3.858107  0
C  C84  1  0.46549782  0.49907445  0.96531296  1  -0.076159  0  -0.064856  -0.020273  0  3.992801  0
C  C85  1  0.03448097  0.53368511  0.03468731  1  -0.191172  0  -0.065  -0.020874  0  3.994718  0
C  C86  1  0.53450866  0.50092883  0.03468193  1  -0.134981  0  -0.064876  -0.020494  0  3.992865  0
C  C87  1  0.96552098  0.46631557  0.96530868  1  -0.137723  0  -0.065047  -0.020938  0  3.994805  0
O  O88  1  0.23497849  0.26640592  0.32880430  1  -1.212077  0  -0.310108  -0.584842  0  2.231267  0
O  O89  1  0.26496839  0.93760711  0.67125656  1  -1.20999  0  -0.310145  -0.585488  0  2.230566  0
O  O90  1  0.76501741  0.73359033  0.67119376  1  -1.212092  0  -0.310115  -0.584927  0  2.231322  0
O  O91  1  0.73502895  0.06239222  0.32874273  1  -1.209861  0  -0.310176  -0.585527  0  2.230615  0
O  O92  1  0.00933377  0.42270977  0.35371270  1  -1.197841  0  -0.357758  -0.595994  0  2.255143  0
O  O93  1  0.49054162  0.06904133  0.64638802  1  -1.198492  0  -0.357556  -0.596975  0  2.256881  0
O  O94  1  0.99066660  0.57729061  0.64628579  1  -1.197798  0  -0.357784  -0.596037  0  2.25505  0
O  O95  1  0.50945861  0.93096028  0.35361448  1  -1.198467  0  -0.357517  -0.596989  0  2.256984  0
O  O96  1  0.51728537  0.50164520  0.69798580  1  -1.22571  0  -0.367438  -0.63015  0  2.233551  0
O  O97  1  0.98243813  0.80380208  0.30193370  1  -1.226672  0  -0.367458  -0.630598  0  2.234897  0
O  O98  1  0.48271809  0.49835316  0.30201065  1  -1.225585  0  -0.367444  -0.630197  0  2.233663  0
O  O99  1  0.01755475  0.19619339  0.69806451  1  -1.226524  0  -0.367482  -0.630658  0  2.234775  0
O  O100  1  0.15067734  0.37566292  0.69313384  1  -1.208821  0  -0.368868  -0.618002  0  2.365592  0
O  O101  1  0.34913637  0.68262228  0.30686056  1  -1.21143  0  -0.368847  -0.617058  0  2.363969  0
O  O102  1  0.84932294  0.62433691  0.30686779  1  -1.208753  0  -0.368868  -0.618  0  2.365513  0
O  O103  1  0.65086093  0.31737084  0.69314177  1  -1.211309  0  -0.368912  -0.617112  0  2.364196  0
O  O104  1  0.30003360  0.49222381  0.83261071  1  -1.201304  0  -0.362702  -0.619767  0  2.250739  0
O  O105  1  0.20012413  0.65950366  0.16741136  1  -1.207959  0  -0.364389  -0.622143  0  2.250756  0
O  O106  1  0.69996838  0.50777404  0.16738523  1  -1.201303  0  -0.362609  -0.619562  0  2.250886  0
O  O107  1  0.79986875  0.34049000  0.83258781  1  -1.207881  0  -0.364411  -0.622217  0  2.251002  0
O  O108  1  0.37407207  0.69012486  0.84897795  1  -1.17562  0  -0.369787  -0.601293  0  2.06985  0
O  O109  1  0.12549485  0.84100996  0.15108976  1  -1.156951  0  -0.370043  -0.602477  0  2.067406  0
O  O110  1  0.62594355  0.30987257  0.15101567  1  -1.175456  0  -0.369864  -0.601283  0  2.069687  0
O  O111  1  0.87450856  0.15898915  0.84890837  1  -1.157034  0  -0.369942  -0.602366  0  2.067402  0
O  O112  1  0.36233219  0.71547263  0.68643621  1  -1.311946  0  -0.632373  -0.840757  0  2.114181  0
O  O113  1  0.13789104  0.02914776  0.31363508  1  -1.317346  0  -0.632412  -0.840605  0  2.114842  0
O  O114  1  0.63766520  0.28452491  0.31356221  1  -1.311925  0  -0.632361  -0.840659  0  2.114255  0
O  O115  1  0.86211246  0.97084701  0.68636147  1  -1.317368  0  -0.632381  -0.840639  0  2.114802  0
O  O116  1  0.01406601  0.77493118  0.78303983  1  -1.254038  0  -0.604642  -0.790488  0  2.041665  0
O  O117  1  0.48561825  0.99200561  0.21682878  1  -1.251293  0  -0.604445  -0.790316  0  2.040721  0
O  O118  1  0.98593731  0.22507151  0.21696003  1  -1.254153  0  -0.604538  -0.790365  0  2.041639  0
O  O119  1  0.51437616  0.00798936  0.78316892  1  -1.251204  0  -0.604466  -0.790464  0  2.040756  0
O  O120  1  0.88015312  0.54284904  0.79029968  1  -1.300584  0  -0.61375  -0.800666  0  2.044585  0
O  O121  1  0.61973997  0.75253479  0.20965111  1  -1.314661  0  -0.614108  -0.801635  0  2.043952  0
O  O122  1  0.11985325  0.45714774  0.20970074  1  -1.300652  0  -0.613816  -0.800875  0  2.044417  0
O  O123  1  0.38026187  0.24746171  0.79034996  1  -1.314673  0  -0.61408  -0.801604  0  2.043977  0
