# generated using pymatgen
data_HgH24C28Br2N4O3
_symmetry_space_group_name_H-M   'P 1'
_cell_length_a   8.66650914
_cell_length_b   12.94866554
_cell_length_c   12.97361047
_cell_angle_alpha   95.09450531
_cell_angle_beta   99.08562255
_cell_angle_gamma   98.06632164
_symmetry_Int_Tables_number   1
_chemical_formula_structural   HgH24C28Br2N4O3
_chemical_formula_sum   'Hg2 H48 C56 Br4 N8 O6'
_cell_volume   1414.20884089
_cell_formula_units_Z   2
loop_
 _symmetry_equiv_pos_site_id
 _symmetry_equiv_pos_as_xyz
  1  'x, y, z'
loop_
 _atom_site_type_symbol
 _atom_site_label
 _atom_site_symmetry_multiplicity
 _atom_site_fract_x
 _atom_site_fract_y
 _atom_site_fract_z
 _atom_site_occupancy
 _atom_site_hle17_bader_spin_density
 _atom_site_hle17_ddec_charge
 _atom_site_hle17_ddec_spin_density
 _atom_site_hle17_ddec_sum_bond_order
 _atom_site_hle17_magmom
 _atom_site_hse06_10hf_bader_spin_density
 _atom_site_hse06_10hf_ddec_charge
 _atom_site_hse06_10hf_ddec_spin_density
 _atom_site_hse06_10hf_ddec_sum_bond_order
 _atom_site_hse06_10hf_magmom
 _atom_site_hse06_bader_spin_density
 _atom_site_hse06_ddec_charge
 _atom_site_hse06_ddec_spin_density
 _atom_site_hse06_ddec_sum_bond_order
 _atom_site_hse06_magmom
 _atom_site_pbe_bader_spin_density
 _atom_site_pbe_cm5_charge
 _atom_site_pbe_ddec_charge
 _atom_site_pbe_ddec_spin_density
 _atom_site_pbe_ddec_sum_bond_order
 _atom_site_pbe_magmom
Hg  Hg0  1  0.44321992  0.37147469  0.35990751  1  0  0.660713  0  2.11036  0  0  0.50067  0  2.621335  0  0  0.548514  0  2.590318  0  0  0.466063  0.468441  0  2.641814  0
Hg  Hg1  1  0.55678218  0.62852480  0.64009250  1  0  0.660729  0  2.110374  0  0  0.500695  0  2.621366  0  0  0.548539  0  2.590343  0  0  0.466079  0.468466  0  2.641846  0
H  H2  1  0.81760537  0.42623038  0.43703806  1  0  0.066608  0  0.968699  0  0  0.071769  0  1.041171  0  0  0.07456  0  1.03805  0  0  0.099075  0.069752  0  1.043402  0
H  H3  1  0.18239322  0.57376911  0.56296388  1  0  0.066529  0  0.96871  0  0  0.071784  0  1.041112  0  0  0.074576  0  1.037989  0  0  0.099108  0.069766  0  1.043344  0
H  H4  1  0.04107901  0.41780840  0.58305441  1  0  0.105446  0  0.975427  0  0  0.111996  0  1.045131  0  0  0.115344  0  1.043491  0  0  0.09613  0.109473  0  1.046629  0
H  H5  1  0.95891860  0.58219188  0.41694751  1  0  0.105452  0  0.975469  0  0  0.111996  0  1.045151  0  0  0.115346  0  1.04351  0  0  0.096126  0.109475  0  1.046649  0
H  H6  1  0.69533402  0.27740075  0.75545426  1  0  0.107303  0  0.946852  0  0  0.117961  0  1.007874  0  0  0.121458  0  1.006195  0  0  0.108464  0.115471  0  1.009184  0
H  H7  1  0.30466126  0.72259954  0.24454741  1  0  0.107341  0  0.946862  0  0  0.117981  0  1.007894  0  0  0.121479  0  1.006215  0  0  0.108486  0.115491  0  1.009205  0
H  H8  1  0.48466217  0.29544675  0.60379463  1  0  0.073079  0  0.950898  0  0  0.079402  0  1.020324  0  0  0.081865  0  1.018117  0  0  0.105462  0.077588  0  1.021965  0
H  H9  1  0.51533311  0.70455355  0.39620627  1  0  0.073081  0  0.950942  0  0  0.079383  0  1.02038  0  0  0.081847  0  1.018171  0  0  0.105432  0.077568  0  1.022022  0
H  H10  1  0.13175531  0.37027713  0.75569632  1  0  0.06894  0  0.97423  0  0  0.078995  0  1.043935  0  0  0.08015  0  1.042493  0  0  0.092011  0.078162  0  1.045051  0
H  H11  1  0.86824270  0.62972475  0.24430270  1  0  0.068959  0  0.974184  0  0  0.079007  0  1.0439  0  0  0.080161  0  1.042457  0  0  0.092012  0.078178  0  1.045017  0
H  H12  1  0.99733346  0.38699965  0.84330869  1  0  0.086301  0  0.918012  0  0  0.103384  0  0.971921  0  0  0.103509  0  0.972082  0  0  0.115998  0.103264  0  0.971903  0
H  H13  1  0.00266532  0.61300063  0.15669258  1  0  0.086261  0  0.918025  0  0  0.103351  0  0.971936  0  0  0.103474  0  0.972099  0  0  0.11599  0.103236  0  0.971921  0
H  H14  1  0.16633085  0.26327135  0.63756585  1  0  0.101145  0  0.991116  0  0  0.10753  0  1.063174  0  0  0.110698  0  1.061477  0  0  0.093434  0.105293  0  1.06445  0
H  H15  1  0.83367065  0.73673050  0.36243585  1  0  0.10116  0  0.991016  0  0  0.10753  0  1.063111  0  0  0.110701  0  1.061415  0  0  0.093429  0.10529  0  1.064387  0
H  H16  1  0.24162497  0.12176614  0.52972478  1  0  0.081675  0  0.969628  0  0  0.092131  0  1.035302  0  0  0.095029  0  1.032929  0  0  0.090283  0.09004  0  1.037023  0
H  H17  1  0.75837460  0.87823730  0.47027379  1  0  0.081744  0  0.969557  0  0  0.092185  0  1.035255  0  0  0.095084  0  1.032881  0  0  0.090297  0.090094  0  1.036978  0
H  H18  1  0.02536446  0.89437781  0.70638018  1  0  0.103958  0  0.961404  0  0  0.110456  0  1.030112  0  0  0.114298  0  1.026779  0  0  0.099099  0.107709  0  1.032494  0
H  H19  1  0.97463706  0.10562406  0.29361614  1  0  0.103925  0  0.96138  0  0  0.11044  0  1.030078  0  0  0.11426  0  1.02677  0  0  0.099091  0.107692  0  1.032459  0
H  H20  1  0.17121577  0.92216657  0.46113198  1  0  0.098244  0  0.971947  0  0  0.117848  0  1.036867  0  0  0.118146  0  1.038927  0  0  0.082504  0.117578  0  1.035481  0
H  H21  1  0.82878458  0.07783529  0.53886729  1  0  0.098237  0  0.971905  0  0  0.117854  0  1.036831  0  0  0.118152  0  1.038892  0  0  0.082496  0.117583  0  1.035444  0
H  H22  1  0.11987296  0.83336449  0.55125487  1  0  0.108974  0  0.957904  0  0  0.128619  0  1.020497  0  0  0.12972  0  1.021111  0  0  0.081468  0.127768  0  1.02016  0
H  H23  1  0.88012389  0.16663739  0.44874403  1  0  0.108905  0  0.957872  0  0  0.128597  0  1.020425  0  0  0.129699  0  1.021039  0  0  0.081459  0.127747  0  1.020087  0
H  H24  1  0.31487438  0.90369566  0.56866210  1  0  0.097751  0  0.981527  0  0  0.116063  0  1.047594  0  0  0.116494  0  1.049396  0  0  0.0797  0.115714  0  1.046364  0
H  H25  1  0.68512441  0.09630464  0.43133609  1  0  0.09773  0  0.981465  0  0  0.116056  0  1.047531  0  0  0.116488  0  1.049333  0  0  0.079717  0.115707  0  1.046301  0
H  H26  1  0.87581765  0.73836134  0.85349390  1  0  0.103489  0  0.951359  0  0  0.112991  0  1.013929  0  0  0.116731  0  1.010658  0  0  0.101358  0.110301  0  1.01634  0
H  H27  1  0.12417998  0.26163896  0.14650494  1  0  0.103476  0  0.951332  0  0  0.112993  0  1.013893  0  0  0.116733  0  1.010623  0  0  0.101369  0.110301  0  1.016307  0
H  H28  1  0.62368148  0.54100257  0.04127302  1  0  0.089106  0  0.965186  0  0  0.100422  0  1.027822  0  0  0.102998  0  1.026371  0  0  0.093103  0.098498  0  1.028965  0
H  H29  1  0.37632528  0.45899689  0.95872825  1  0  0.08909  0  0.9653  0  0  0.100433  0  1.027883  0  0  0.103007  0  1.026433  0  0  0.093126  0.09854  0  1.02899  0
H  H30  1  0.53773681  0.69408011  0.12635633  1  0  0.096407  0  0.976753  0  0  0.106185  0  1.043188  0  0  0.109403  0  1.041677  0  0  0.09583  0.103911  0  1.044329  0
H  H31  1  0.46226606  0.30591779  0.87364515  1  0  0.096403  0  0.976798  0  0  0.106198  0  1.043225  0  0  0.10941  0  1.04172  0  0  0.095847  0.103924  0  1.044367  0
H  H32  1  0.81483230  0.54133470  0.80596369  1  0  0.096177  0  0.976464  0  0  0.113917  0  1.047433  0  0  0.114701  0  1.048257  0  0  0.079368  0.113291  0  1.046911  0
H  H33  1  0.18517252  0.45866636  0.19403599  1  0  0.09619  0  0.976485  0  0  0.113944  0  1.047431  0  0  0.114728  0  1.048257  0  0  0.079386  0.113319  0  1.046905  0
H  H34  1  0.73307202  0.46163463  0.89483636  1  0  0.103899  0  0.950998  0  0  0.125697  0  1.01122  0  0  0.127146  0  1.011016  0  0  0.086004  0.124608  0  1.011427  0
H  H35  1  0.26693280  0.53836642  0.10516408  1  0  0.103937  0  0.950927  0  0  0.125709  0  1.011186  0  0  0.12716  0  1.010978  0  0  0.085996  0.124604  0  1.01141  0
H  H36  1  0.93177101  0.52764175  0.92736982  1  0  0.098872  0  0.952651  0  0  0.120683  0  1.01354  0  0  0.121921  0  1.013107  0  0  0.086559  0.119776  0  1.013849  0
H  H37  1  0.06823283  0.47236009  0.07263060  1  0  0.098906  0  0.952653  0  0  0.120716  0  1.013538  0  0  0.121955  0  1.013105  0  0  0.086578  0.119808  0  1.013848  0
H  H38  1  0.58015035  0.84559363  0.22739819  1  0  0.059775  0  0.945189  0  0  0.074511  0  1.012007  0  0  0.073943  0  1.01315  0  0  0.102533  0.074888  0  1.011239  0
H  H39  1  0.41984786  0.15440430  0.77260126  1  0  0.059766  0  0.945131  0  0  0.074523  0  1.011952  0  0  0.073962  0  1.013091  0  0  0.102544  0.074904  0  1.011184  0
H  H40  1  0.40496476  0.84651035  0.13218374  1  0  0.078831  0  0.920715  0  0  0.09023  0  0.987264  0  0  0.091548  0  0.98457  0  0  0.110121  0.089274  0  0.989224  0
H  H41  1  0.59503423  0.15348601  0.86781564  1  0  0.078786  0  0.920746  0  0  0.090229  0  0.987247  0  0  0.091549  0  0.984553  0  0  0.110131  0.089268  0  0.989216  0
H  H42  1  0.66463063  0.07762770  0.11226785  1  0  0.133217  0  0.952427  0  0  0.131384  0  1.027677  0  0  0.136803  0  1.023278  0  0  0.111888  0.127469  0  1.030986  0
H  H43  1  0.33536932  0.92236785  0.88773540  1  0  0.133239  0  0.952347  0  0  0.131407  0  1.027609  0  0  0.136826  0  1.023211  0  0  0.111917  0.12749  0  1.030917  0
H  H44  1  0.63171231  0.25661571  0.19236957  1  0  0.075275  0  0.932938  0  0  0.084191  0  0.994337  0  0  0.086705  0  0.992263  0  0  0.109936  0.082316  0  0.995888  0
H  H45  1  0.36828783  0.74338063  0.80763302  1  0  0.075249  0  0.932944  0  0  0.084177  0  0.994337  0  0  0.08669  0  0.992265  0  0  0.109928  0.082301  0  0.995888  0
H  H46  1  0.33359626  0.12709376  0.38269122  1  0  0.066101  0  0.964088  0  0  0.073854  0  1.035463  0  0  0.076033  0  1.032812  0  0  0.103428  0.07224  0  1.03739  0
H  H47  1  0.66639922  0.87290263  0.61730702  1  0  0.066032  0  0.964008  0  0  0.073784  0  1.035398  0  0  0.075962  0  1.032747  0  0  0.103405  0.072159  0  1.037333  0
H  H48  1  0.36201027  0.94421765  0.31740434  1  0  0.104222  0  0.944244  0  0  0.117729  0  1.00056  0  0  0.120285  0  1.000989  0  0  0.10664  0.115907  0  1.00042  0
H  H49  1  0.63798522  0.05577872  0.68259467  1  0  0.104229  0  0.94439  0  0  0.117742  0  1.000689  0  0  0.120308  0  1.001091  0  0  0.106636  0.115916  0  1.000553  0
C  C50  1  0.79588816  0.39484001  0.50969951  1  0  0.134556  0  3.721517  0  0  0.104085  0  3.97223  0  0  0.111714  0  3.990711  0  0  0.042241  0.099201  0  3.959541  0
C  C51  1  0.20411062  0.60516028  0.49030099  1  0  0.134712  0  3.7215  0  0  0.10415  0  3.972236  0  0  0.11178  0  3.990713  0  0  0.042264  0.099266  0  3.959546  0
C  C52  1  0.91937890  0.39002567  0.59116003  1  0  -0.156529  0  3.702036  0  0  -0.173306  0  3.943569  0  0  -0.181304  0  3.965343  0  0  -0.085683  -0.168065  0  3.928986  0
C  C53  1  0.08061736  0.60997383  0.40884167  1  0  -0.156599  0  3.702132  0  0  -0.173329  0  3.943652  0  0  -0.181329  0  3.965424  0  0  -0.085701  -0.168087  0  3.929062  0
C  C54  1  0.88531967  0.34753925  0.68159329  1  0  0.116773  0  3.718636  0  0  0.132819  0  3.950433  0  0  0.136503  0  3.972779  0  0  0.008684  0.130605  0  3.935187  0
C  C55  1  0.11467677  0.65246103  0.31840851  1  0  0.116808  0  3.718631  0  0  0.132837  0  3.950428  0  0  0.136523  0  3.97277  0  0  0.008682  0.130627  0  3.935187  0
C  C56  1  0.72662342  0.31129501  0.68614491  1  0  -0.153005  0  3.701522  0  0  -0.171846  0  3.947997  0  0  -0.179142  0  3.968857  0  0  -0.08187  -0.167189  0  3.934044  0
C  C57  1  0.27337322  0.68870606  0.31385698  1  0  -0.153096  0  3.701564  0  0  -0.171919  0  3.94804  0  0  -0.179215  0  3.968894  0  0  -0.081889  -0.167261  0  3.934082  0
C  C58  1  0.60983323  0.32009430  0.60207331  1  0  0.11313  0  3.74764  0  0  0.084371  0  4.000007  0  0  0.091104  0  4.019581  0  0  0.037433  0.080028  0  3.986698  0
C  C59  1  0.39016458  0.67990677  0.39792793  1  0  0.113166  0  3.747552  0  0  0.084448  0  3.999904  0  0  0.091182  0  4.019474  0  0  0.03748  0.080105  0  3.986594  0
C  C60  1  0.01418156  0.34032704  0.77230148  1  0  0.036841  0  3.623594  0  0  -0.021326  0  3.871213  0  0  -0.013752  0  3.875306  0  0  -0.057174  -0.026577  0  3.868408  0
C  C61  1  0.98581606  0.65967325  0.22769889  1  0  0.036902  0  3.623484  0  0  -0.021293  0  3.871141  0  0  -0.013717  0  3.875226  0  0  -0.057142  -0.026564  0  3.868359  0
C  C62  1  0.05246889  0.16127805  0.73682532  1  0  0.253892  0  3.76865  0  0  0.234207  0  4.033123  0  0  0.246346  0  4.048621  0  0  0.087643  0.225921  0  4.022557  0
C  C63  1  0.94753243  0.83872301  0.26317475  1  0  0.253891  0  3.768666  0  0  0.234208  0  4.033107  0  0  0.246347  0  4.048606  0  0  0.087687  0.225921  0  4.022537  0
C  C64  1  0.13625012  0.18312860  0.65540150  1  0  -0.21028  0  3.795197  0  0  -0.229262  0  4.054558  0  0  -0.235398  0  4.074928  0  0  -0.114959  -0.225174  0  4.040792  0
C  C65  1  0.86374790  0.81687328  0.34459598  1  0  -0.210274  0  3.795111  0  0  -0.229264  0  4.054459  0  0  -0.235406  0  4.074833  0  0  -0.114963  -0.225172  0  4.04069  0
C  C66  1  0.17981681  0.10177977  0.59401565  1  0  -0.094164  0  3.750798  0  0  -0.113314  0  3.994945  0  0  -0.112634  0  4.014269  0  0  -0.092928  -0.113481  0  3.981695  0
C  C67  1  0.82018471  0.89822209  0.40598297  1  0  -0.094154  0  3.750675  0  0  -0.11329  0  3.994801  0  0  -0.112611  0  4.014128  0  0  -0.092882  -0.113448  0  3.981522  0
C  C68  1  0.14167688  0.99654448  0.61077228  1  0  0.121433  0  3.782003  0  0  0.149032  0  4.016517  0  0  0.147512  0  4.042281  0  0  -0.019193  0.14985  0  3.99904  0
C  C69  1  0.85832405  0.00345974  0.38922651  1  0  0.12133  0  3.781997  0  0  0.148912  0  4.016556  0  0  0.147395  0  4.042311  0  0  -0.019265  0.149732  0  3.999076  0
C  C70  1  0.05815918  0.97553640  0.69197743  1  0  -0.122895  0  3.688509  0  0  -0.155442  0  3.94008  0  0  -0.154793  0  3.95852  0  0  -0.089078  -0.155567  0  3.927552  0
C  C71  1  0.94184369  0.02446624  0.30802218  1  0  -0.122811  0  3.688498  0  0  -0.155375  0  3.940082  0  0  -0.154706  0  3.958533  0  0  -0.089044  -0.1555  0  3.927551  0
C  C72  1  0.01280037  0.05556544  0.75595931  1  0  -0.110827  0  3.787895  0  0  -0.101569  0  4.037849  0  0  -0.107665  0  4.058248  0  0  -0.021212  -0.097714  0  4.024264  0
C  C73  1  0.98719998  0.94443643  0.24403919  1  0  -0.110822  0  3.787949  0  0  -0.101582  0  4.037909  0  0  -0.10768  0  4.058308  0  0  -0.021242  -0.097729  0  4.02432  0
C  C74  1  0.18926198  0.90929635  0.54441363  1  0  -0.3301  0  3.730893  0  0  -0.406382  0  3.961664  0  0  -0.409044  0  3.973533  0  0  -0.247567  -0.404255  0  3.953446  0
C  C75  1  0.81073836  0.09070550  0.45558718  1  0  -0.329993  0  3.730639  0  0  -0.406342  0  3.961427  0  0  -0.409003  0  3.97329  0  0  -0.247566  -0.404215  0  3.953208  0
C  C76  1  0.92561456  0.02740031  0.83859587  1  0  0.356042  0  3.72436  0  0  0.320143  0  4.014352  0  0  0.337932  0  4.022464  0  0  0.211918  0.308249  0  4.008834  0
C  C77  1  0.07438909  0.97260075  0.16140445  1  0  0.355975  0  3.724409  0  0  0.320102  0  4.014368  0  0  0.337892  0  4.022481  0  0  0.211894  0.308211  0  4.008847  0
C  C78  1  0.80996203  0.92009761  0.93151206  1  0  0.368621  0  3.696615  0  0  0.333915  0  3.981799  0  0  0.351927  0  3.99026  0  0  0.216919  0.321777  0  3.976111  0
C  C79  1  0.19003598  0.07990426  0.06848774  1  0  0.368663  0  3.696705  0  0  0.333978  0  3.981848  0  0  0.351971  0  3.990337  0  0  0.216927  0.321853  0  3.976142  0
C  C80  1  0.75686229  0.81808790  0.96223606  1  0  -0.11097  0  3.794261  0  0  -0.104066  0  4.048232  0  0  -0.111034  0  4.069906  0  0  -0.021216  -0.099518  0  4.033691  0
C  C81  1  0.24313728  0.18191082  0.03776283  1  0  -0.11103  0  3.794218  0  0  -0.104104  0  4.04816  0  0  -0.111068  0  4.069841  0  0  -0.021245  -0.099559  0  4.033615  0
C  C82  1  0.80219124  0.72847742  0.91377253  1  0  -0.112078  0  3.688085  0  0  -0.14642  0  3.938983  0  0  -0.145169  0  3.956832  0  0  -0.088456  -0.146999  0  3.926827  0
C  C83  1  0.19780814  0.27152525  0.08622518  1  0  -0.1119  0  3.688269  0  0  -0.146294  0  3.939148  0  0  -0.145043  0  3.956998  0  0  -0.088393  -0.146872  0  3.926989  0
C  C84  1  0.75624408  0.62822763  0.94058854  1  0  0.114068  0  3.792205  0  0  0.143839  0  4.027725  0  0  0.141149  0  4.05445  0  0  -0.022737  0.145417  0  4.009599  0
C  C85  1  0.24375724  0.37176873  0.05941108  1  0  0.113968  0  3.792545  0  0  0.143793  0  4.027988  0  0  0.141104  0  4.054712  0  0  -0.022741  0.145373  0  4.009865  0
C  C86  1  0.66064474  0.61820819  0.01773630  1  0  -0.086387  0  3.748138  0  0  -0.109229  0  3.995403  0  0  -0.108354  0  4.015725  0  0  -0.092699  -0.109445  0  3.981504  0
C  C87  1  0.33935989  0.38179207  0.98226482  1  0  -0.086422  0  3.74811  0  0  -0.109285  0  3.99536  0  0  -0.108409  0  4.015678  0  0  -0.092771  -0.109524  0  3.981452  0
C  C88  1  0.61173985  0.70527918  0.06655922  1  0  -0.208843  0  3.788181  0  0  -0.230038  0  4.048981  0  0  -0.236393  0  4.068909  0  0  -0.117856  -0.225788  0  4.035413  0
C  C89  1  0.38826439  0.29471952  0.93344017  1  0  -0.20886  0  3.788236  0  0  -0.230081  0  4.049056  0  0  -0.23643  0  4.068989  0  0  -0.117904  -0.225834  0  4.035507  0
C  C90  1  0.65961685  0.80573843  0.03983484  1  0  0.267949  0  3.767167  0  0  0.244913  0  4.033596  0  0  0.257801  0  4.04887  0  0  0.095524  0.236155  0  4.023119  0
C  C91  1  0.34038447  0.19426264  0.96016523  1  0  0.267961  0  3.767233  0  0  0.244911  0  4.033664  0  0  0.257799  0  4.048938  0  0  0.095528  0.236153  0  4.023189  0
C  C92  1  0.81123325  0.53460364  0.88935975  1  0  -0.332988  0  3.760498  0  0  -0.414223  0  3.996326  0  0  -0.416368  0  4.007608  0  0  -0.244656  -0.412452  0  3.988557  0
C  C93  1  0.18877021  0.46539664  0.11063970  1  0  -0.333031  0  3.76046  0  0  -0.414274  0  3.996242  0  0  -0.416413  0  4.007509  0  0  -0.244664  -0.412489  0  3.98848  0
C  C94  1  0.52574416  0.88800301  0.16448400  1  0  0.045288  0  3.641545  0  0  -0.019439  0  3.897999  0  0  -0.011622  0  3.902519  0  0  -0.053048  -0.024717  0  3.894697  0
C  C95  1  0.47425365  0.11199334  0.83551756  1  0  0.045294  0  3.641497  0  0  -0.019454  0  3.898007  0  0  -0.011645  0  3.902533  0  0  -0.053096  -0.024735  0  3.89472  0
C  C96  1  0.51577298  0.99718080  0.20905188  1  0  0.133144  0  3.702984  0  0  0.145186  0  3.943677  0  0  0.15011  0  3.964571  0  0  0.014972  0.142081  0  3.929476  0
C  C97  1  0.48422366  0.00281556  0.79095033  1  0  0.133314  0  3.702735  0  0  0.145231  0  3.94362  0  0  0.150156  0  3.964515  0  0  0.015018  0.142127  0  3.929424  0
C  C98  1  0.59313401  0.08606875  0.17377452  1  0  -0.134756  0  3.642955  0  0  -0.153811  0  3.892657  0  0  -0.16072  0  3.911205  0  0  -0.074664  -0.149421  0  3.880329  0
C  C99  1  0.40686614  0.91392758  0.82622806  1  0  -0.13475  0  3.642948  0  0  -0.153785  0  3.892723  0  0  -0.16069  0  3.911264  0  0  -0.074622  -0.149392  0  3.880395  0
C  C100  1  0.57442301  0.18471218  0.21741337  1  0  0.127627  0  3.710058  0  0  0.100161  0  3.956894  0  0  0.107063  0  3.976792  0  0  0.046129  0.095763  0  3.943283  0
C  C101  1  0.42557402  0.81528574  0.78258904  1  0  0.127673  0  3.709959  0  0  0.100195  0  3.956824  0  0  0.107096  0  3.976722  0  0  0.046096  0.0958  0  3.943212  0
C  C102  1  0.40933668  0.11252846  0.32496784  1  0  0.115686  0  3.749746  0  0  0.083019  0  4.006482  0  0  0.091193  0  4.024125  0  0  0.033154  0.077755  0  3.994434  0
C  C103  1  0.59065841  0.88746634  0.67503252  1  0  0.115778  0  3.749666  0  0  0.083111  0  4.006399  0  0  0.091285  0  4.024042  0  0  0.033157  0.077856  0  3.994357  0
C  C104  1  0.42422643  0.01124458  0.28740302  1  0  -0.169979  0  3.726405  0  0  -0.187694  0  3.973131  0  0  -0.195838  0  3.994669  0  0  -0.085769  -0.182469  0  3.958686  0
C  C105  1  0.57577275  0.98875730  0.71259459  1  0  -0.17011  0  3.726248  0  0  -0.187785  0  3.972999  0  0  -0.195932  0  3.994545  0  0  -0.085797  -0.182557  0  3.958555  0
Br  Br106  1  0.61259476  0.49693361  0.26746395  1  0  -0.442652  0  0.998784  0  0  -0.386276  0  1.295929  0  0  -0.404712  0  1.27691  0  0  -0.228032  -0.373759  0  1.30886  0
Br  Br107  1  0.38741162  0.50306429  0.73253636  1  0  -0.442652  0  0.9988  0  0  -0.386301  0  1.295975  0  0  -0.404732  0  1.276945  0  0  -0.228052  -0.373784  0  1.308912  0
Br  Br108  1  0.17330865  0.31907154  0.40880626  1  0  -0.430973  0  0.986314  0  0  -0.373427  0  1.281727  0  0  -0.391802  0  1.263247  0  0  -0.225019  -0.360898  0  1.294244  0
Br  Br109  1  0.82669247  0.68092874  0.59119449  1  0  -0.430967  0  0.986307  0  0  -0.373417  0  1.281727  0  0  -0.391792  0  1.263248  0  0  -0.225016  -0.360889  0  1.294238  0
N  N110  1  0.86472802  0.08437494  0.90617947  1  0  -0.280236  0  2.91633  0  0  -0.271657  0  3.21643  0  0  -0.278487  0  3.224446  0  0  -0.233968  -0.267145  0  3.21117  0
N  N111  1  0.13527447  0.91562613  0.09381918  1  0  -0.280157  0  2.916301  0  0  -0.271578  0  3.216381  0  0  -0.278407  0  3.224398  0  0  -0.233936  -0.267069  0  3.211122  0
N  N112  1  0.79067747  0.01538811  0.96611056  1  0  -0.26712  0  2.910395  0  0  -0.253214  0  3.207542  0  0  -0.260665  0  3.216116  0  0  -0.224782  -0.248228  0  3.20189  0
N  N113  1  0.20932404  0.98461374  0.03388884  1  0  -0.267165  0  2.910431  0  0  -0.253269  0  3.20757  0  0  -0.260714  0  3.21615  0  0  -0.224753  -0.248287  0  3.201914  0
N  N114  1  0.48318085  0.19780248  0.29079552  1  0  -0.304158  0  3.285206  0  0  -0.228877  0  3.553038  0  0  -0.250162  0  3.575881  0  0  -0.319516  -0.214495  0  3.537157  0
N  N115  1  0.51681833  0.80219467  0.70920473  1  0  -0.304234  0  3.285237  0  0  -0.228934  0  3.553069  0  0  -0.250221  0  3.575915  0  0  -0.319512  -0.214551  0  3.537182  0
N  N116  1  0.64419316  0.36116249  0.51516357  1  0  -0.304516  0  3.270434  0  0  -0.228744  0  3.535045  0  0  -0.249621  0  3.557053  0  0  -0.315965  -0.214586  0  3.519719  0
N  N117  1  0.35580407  0.63883623  0.48483739  1  0  -0.304575  0  3.270385  0  0  -0.228843  0  3.535064  0  0  -0.24972  0  3.557071  0  0  -0.316018  -0.214687  0  3.519743  0
O  O118  1  0.89571460  0.92256531  0.85096345  1  0  -0.279413  0  2.333708  0  0  -0.201348  0  2.55108  0  0  -0.220835  0  2.554601  0  0  -0.104748  -0.188189  0  2.548533  0
O  O119  1  0.10428575  0.07743655  0.14903505  1  0  -0.27944  0  2.333784  0  0  -0.2014  0  2.551145  0  0  -0.220879  0  2.554668  0  0  -0.104775  -0.188247  0  2.548598  0
O  O120  1  0.61958275  0.89488154  0.08411250  1  0  -0.260641  0  2.410445  0  0  -0.184625  0  2.646223  0  0  -0.204623  0  2.652604  0  0  -0.159454  -0.170461  0  2.641322  0
O  O121  1  0.38041565  0.10511718  0.91588781  1  0  -0.260642  0  2.410445  0  0  -0.184614  0  2.646216  0  0  -0.204612  0  2.652602  0  0  -0.159443  -0.170443  0  2.641308  0
O  O122  1  0.00536814  0.23545121  0.80096641  1  0  -0.267048  0  2.361076  0  0  -0.198769  0  2.598924  0  0  -0.218231  0  2.604236  0  0  -0.168827  -0.184947  0  2.594843  0
O  O123  1  0.99463201  0.76454986  0.19903431  1  0  -0.267106  0  2.361016  0  0  -0.19878  0  2.598841  0  0  -0.218238  0  2.604147  0  0  -0.168888  -0.184953  0  2.594765  0
