# generated using pymatgen
data_GdH14C14N3O9F4
_symmetry_space_group_name_H-M   'P 1'
_cell_length_a   11.37476743
_cell_length_b   12.36071516
_cell_length_c   20.22849530
_cell_angle_alpha   73.59420130
_cell_angle_beta   73.67575782
_cell_angle_gamma   62.59841216
_symmetry_Int_Tables_number   1
_chemical_formula_structural   GdH14C14N3O9F4
_chemical_formula_sum   'Gd4 H56 C56 N12 O36 F16'
_cell_volume   2383.80084094
_cell_formula_units_Z   4
loop_
 _symmetry_equiv_pos_site_id
 _symmetry_equiv_pos_as_xyz
  1  'x, y, z'
loop_
 _atom_site_type_symbol
 _atom_site_label
 _atom_site_symmetry_multiplicity
 _atom_site_fract_x
 _atom_site_fract_y
 _atom_site_fract_z
 _atom_site_occupancy
 _atom_site_pbe_bader_charge
 _atom_site_pbe_bader_spin_density
 _atom_site_pbe_cm5_charge
 _atom_site_pbe_ddec_charge
 _atom_site_pbe_ddec_spin_density
 _atom_site_pbe_ddec_sum_bond_order
 _atom_site_pbe_magmom
Gd  Gd0  1  0.13490040  0.10748613  0.69638274  1  2.18676  0  1.479718  2.005006  0  2.236323  0
Gd  Gd1  1  0.93871653  0.39256557  0.80359556  1  2.184619  0  1.479832  2.005092  0  2.237124  0
Gd  Gd2  1  0.86509859  0.89251363  0.30361745  1  2.186762  0  1.47973  2.005022  0  2.236308  0
Gd  Gd3  1  0.06128338  0.60743418  0.19640399  1  2.184608  0  1.479807  2.005093  0  2.237146  0
H  H4  1  0.95702999  0.02269999  0.61579752  1  0.085355  0  0.129143  0.0512  0  0.981742  0
H  H5  1  0.59547012  0.47739251  0.88422181  1  0.098577  0  0.129129  0.051027  0  0.983553  0
H  H6  1  0.04297034  0.97729882  0.38420064  1  0.085371  0  0.129141  0.051217  0  0.981754  0
H  H7  1  0.40452978  0.52260724  0.11577873  1  0.098553  0  0.129147  0.051036  0  0.983547  0
H  H8  1  0.23774740  0.73693826  0.66053245  1  0.10792  0  0.114497  0.132141  0  1.018538  0
H  H9  1  0.63521067  0.76312063  0.83937228  1  0.110806  0  0.114611  0.132146  0  1.017956  0
H  H10  1  0.76225159  0.26306149  0.33946774  1  0.108036  0  0.11452  0.132154  0  1.018542  0
H  H11  1  0.36478882  0.23688005  0.16062767  1  0.110816  0  0.114608  0.132143  0  1.017956  0
H  H12  1  0.26368090  0.69691851  0.57749012  1  0.057882  0  0.109966  0.127229  0  0.967723  0
H  H13  1  0.53812536  0.80317991  0.92241045  1  0.088471  0  0.109761  0.126588  0  0.968389  0
H  H14  1  0.73631983  0.30307939  0.42251061  1  0.057871  0  0.109931  0.127186  0  0.967694  0
H  H15  1  0.46187637  0.19681984  0.07758930  1  0.088592  0  0.109762  0.126571  0  0.968347  0
H  H16  1  0.15407727  0.65156722  0.65000362  1  0.106549  0  0.106433  0.127576  0  0.997828  0
H  H17  1  0.45562109  0.84855198  0.84990599  1  0.066392  0  0.10642  0.127473  0  0.998173  0
H  H18  1  0.84592172  0.34843253  0.34999657  1  0.106569  0  0.106412  0.127522  0  0.997821  0
H  H19  1  0.54437881  0.15144778  0.15009406  1  0.066395  0  0.106417  0.127457  0  0.998172  0
H  H20  1  0.92395887  0.93610466  0.54622769  1  0.073097  0  0.109894  0.121686  0  0.996644  0
H  H21  1  0.40623150  0.56410143  0.95372509  1  0.064464  0  0.109993  0.122269  0  0.996217  0
H  H22  1  0.07604195  0.06389509  0.45377123  1  0.073085  0  0.109879  0.121685  0  0.996673  0
H  H23  1  0.59377064  0.43589740  0.04627575  1  0.064479  0  0.109995  0.12227  0  0.996215  0
H  H24  1  0.96679315  0.77424233  0.57353653  1  0.10026  0  0.105598  0.124152  0  1.016262  0
H  H25  1  0.31453777  0.72595524  0.92640311  1  0.082337  0  0.10612  0.125311  0  1.017796  0
H  H26  1  0.03320768  0.22575742  0.42646287  1  0.10027  0  0.105597  0.124147  0  1.01628  0
H  H27  1  0.68546346  0.27404359  0.07359787  1  0.082299  0  0.106129  0.125318  0  1.017786  0
H  H28  1  0.07632974  0.82628700  0.50529989  1  0.079701  0  0.104229  0.11902  0  0.992939  0
H  H29  1  0.40790809  0.67388992  0.99464690  1  0.050212  0  0.104245  0.119219  0  0.993835  0
H  H30  1  0.92367283  0.17371089  0.49469907  1  0.079754  0  0.104232  0.119038  0  0.992926  0
H  H31  1  0.59209456  0.32610983  0.00535371  1  0.050183  0  0.104266  0.119255  0  0.993807  0
H  H32  1  0.47584449  0.00627015  0.68737309  1  0.104913  0  0.123964  0.048436  0  1.028563  0
H  H33  1  0.16955157  0.49374185  0.81260008  1  0.11907  0  0.1234  0.046855  0  1.027752  0
H  H34  1  0.52415591  0.99373053  0.31262671  1  0.104914  0  0.123954  0.048416  0  1.028583  0
H  H35  1  0.83044608  0.50625884  0.18740066  1  0.119048  0  0.123402  0.046878  0  1.027691  0
H  H36  1  0.68828949  0.90770272  0.68899054  1  0.026594  0  0.102388  0.110138  0  1.005539  0
H  H37  1  0.28501196  0.59241663  0.81094952  1  0.061664  0  0.102942  0.110718  0  1.00484  0
H  H38  1  0.31171133  0.09229703  0.31100937  1  0.026575  0  0.102384  0.110135  0  1.005544  0
H  H39  1  0.71498702  0.40758312  0.18905067  1  0.061668  0  0.102935  0.110711  0  1.004832  0
H  H40  1  0.77357525  0.79348492  0.63339651  1  0.077  0  0.103925  0.125749  0  1.031145  0
H  H41  1  0.20041851  0.70662231  0.86654139  1  0.111613  0  0.1037  0.126128  0  1.030807  0
H  H42  1  0.22642465  0.20651483  0.36660403  1  0.076995  0  0.103923  0.125758  0  1.03113  0
H  H43  1  0.79958048  0.29337744  0.13345880  1  0.111607  0  0.103709  0.126201  0  1.030738  0
H  H44  1  0.74460858  0.74538791  0.72576188  1  0.105354  0  0.111415  0.135249  0  1.005703  0
H  H45  1  0.21564231  0.75473799  0.77418293  1  0.107479  0  0.11159  0.135546  0  1.005335  0
H  H46  1  0.25539224  0.25461184  0.27423851  1  0.105349  0  0.111419  0.135254  0  1.005716  0
H  H47  1  0.78435850  0.24526176  0.22581747  1  0.107465  0  0.111581  0.135535  0  1.005348  0
H  H48  1  0.47078588  0.72772194  0.66832829  1  0.068951  0  0.109299  0.128769  0  1.006643  0
H  H49  1  0.86682531  0.77221865  0.83164756  1  0.086056  0  0.109741  0.129518  0  1.005219  0
H  H50  1  0.52921402  0.27227782  0.33167274  1  0.069004  0  0.109311  0.12878  0  1.006655  0
H  H51  1  0.13317459  0.22778110  0.16835249  1  0.086071  0  0.109732  0.129514  0  1.005229  0
H  H52  1  0.61101207  0.63504463  0.71354356  1  0.089048  0  0.104604  0.124048  0  1.018124  0
H  H53  1  0.95947631  0.86497524  0.78645217  1  0.087296  0  0.104481  0.123768  0  1.018735  0
H  H54  1  0.38899008  0.36495419  0.28645580  1  0.089051  0  0.104595  0.12404  0  1.018146  0
H  H55  1  0.04052318  0.13502543  0.21354679  1  0.087305  0  0.104454  0.123761  0  1.01877  0
H  H56  1  0.64002187  0.68218135  0.62073898  1  0.11455  0  0.106195  0.13  0  0.995949  0
H  H57  1  0.94290943  0.81776152  0.87924579  1  0.086374  0  0.106406  0.130047  0  0.99618  0
H  H58  1  0.35997762  0.31781932  0.37926047  1  0.114548  0  0.106197  0.130002  0  0.995957  0
H  H59  1  0.05709006  0.18223916  0.12075416  1  0.086369  0  0.106428  0.130092  0  0.996184  0
C  C60  1  0.27609273  0.25010706  0.74995914  1  1.683895  0  0.243975  0.693354  0  4.125443  0
C  C61  1  0.72390676  0.74989362  0.25004130  1  1.683906  0  0.243994  0.69338  0  4.12541  0
C  C62  1  0.40885774  0.25009629  0.74995641  1  0.104102  0  -0.023181  -0.20787  0  3.997413  0
C  C63  1  0.59114124  0.74990347  0.25004427  1  0.104088  0  -0.023149  -0.207778  0  3.997411  0
C  C64  1  0.51166799  0.14494630  0.77865967  1  0.502981  0  0.090046  0.148907  0  4.102897  0
C  C65  1  0.43521464  0.35523673  0.72125643  1  0.493698  0  0.090232  0.147565  0  4.100832  0
C  C66  1  0.48833191  0.85505345  0.22134038  1  0.502975  0  0.090027  0.148879  0  4.102859  0
C  C67  1  0.56478443  0.64476488  0.27874441  1  0.493769  0  0.090189  0.147457  0  4.100893  0
C  C68  1  0.63447886  0.14462736  0.77818025  1  0.535065  0  0.089919  0.150919  0  4.105264  0
C  C69  1  0.55722977  0.35554682  0.72173556  1  0.536501  0  0.090821  0.152451  0  4.10101  0
C  C70  1  0.36552196  0.85537239  0.22181965  1  0.53507  0  0.089914  0.150907  0  4.10524  0
C  C71  1  0.44276971  0.64445387  0.27826488  1  0.536392  0  0.090885  0.152589  0  4.100882  0
C  C72  1  0.66024330  0.25007208  0.74995169  1  0.107163  0  -0.022891  -0.204026  0  3.996223  0
C  C73  1  0.33975569  0.74992767  0.25004801  1  0.10719  0  -0.0229  -0.204076  0  3.996205  0
C  C74  1  0.79344408  0.25005561  0.74993272  1  1.677043  0  0.237476  0.690127  0  4.141994  0
C  C75  1  0.20655632  0.74994507  0.25006758  1  1.67635  0  0.23747  0.690118  0  4.14206  0
C  C76  1  0.98273094  0.43973826  0.65175691  1  1.620357  0  0.226991  0.664539  0  4.164225  0
C  C77  1  0.07420432  0.06026660  0.84824244  1  1.629132  0  0.226616  0.663923  0  4.164478  0
C  C78  1  0.01726764  0.56026242  0.34824269  1  1.620351  0  0.227013  0.664647  0  4.164123  0
C  C79  1  0.92579741  0.93973315  0.15175781  1  1.629128  0  0.22667  0.663972  0  4.164561  0
C  C80  1  0.99274374  0.46974493  0.57345919  1  0.109987  0  -0.02003  -0.203058  0  4.00317  0
C  C81  1  0.03590041  0.03022873  0.92655041  1  0.077307  0  -0.019492  -0.202477  0  4.002762  0
C  C82  1  0.00725666  0.53025574  0.42654012  1  0.109635  0  -0.020094  -0.20313  0  4.003062  0
C  C83  1  0.96410041  0.96977103  0.07344998  1  0.077163  0  -0.019472  -0.202423  0  4.002787  0
C  C84  1  0.90595425  0.45706441  0.54234467  1  0.592057  0  0.097152  0.164004  0  4.085634  0
C  C85  1  0.90535227  0.04280581  0.95765507  1  0.562099  0  0.097405  0.164955  0  4.082543  0
C  C86  1  0.09404341  0.54293626  0.45765458  1  0.591951  0  0.097189  0.164024  0  4.085557  0
C  C87  1  0.09464946  0.95719394  0.04234518  1  0.562119  0  0.097386  0.164904  0  4.082577  0
C  C88  1  0.08710935  0.51271487  0.52991598  1  0.488933  0  0.095117  0.160541  0  4.081645  0
C  C89  1  0.12970285  0.98740344  0.97008882  1  0.556176  0  0.094509  0.158935  0  4.082841  0
C  C90  1  0.91288730  0.48728396  0.47008474  1  0.489161  0  0.09511  0.160451  0  4.081625  0
C  C91  1  0.87029939  0.01259723  0.02991069  1  0.5563  0  0.094517  0.158906  0  4.082894  0
C  C92  1  0.04306651  0.93940869  0.63430207  1  1.393827  0  0.189281  0.327039  0  4.093602  0
C  C93  1  0.61670109  0.56067193  0.86566272  1  1.399875  0  0.189124  0.326656  0  4.095101  0
C  C94  1  0.95693248  0.06059106  0.36569763  1  1.393821  0  0.189265  0.327011  0  4.093701  0
C  C95  1  0.38330065  0.43932781  0.13433654  1  1.399884  0  0.18911  0.326642  0  4.095009  0
C  C96  1  0.19017413  0.72447933  0.62492749  1  0.227022  0  -0.131211  -0.275056  0  3.883207  0
C  C97  1  0.53958331  0.77561055  0.87497625  1  0.247934  0  -0.131037  -0.274637  0  3.883914  0
C  C98  1  0.80982527  0.27551949  0.37507230  1  0.226901  0  -0.131186  -0.274962  0  3.883114  0
C  C99  1  0.46041709  0.22439013  0.12502355  1  0.247821  0  -0.130998  -0.274553  0  3.883889  0
C  C100  1  0.00729595  0.84487120  0.55518981  1  0.230264  0  -0.131525  -0.287009  0  3.936601  0
C  C101  1  0.40731255  0.65532390  0.94476288  1  0.28408  0  -0.132013  -0.289542  0  3.938905  0
C  C102  1  0.99270570  0.15512669  0.44480881  1  0.230242  0  -0.131492  -0.287008  0  3.936634  0
C  C103  1  0.59268959  0.34467493  0.05523796  1  0.284136  0  -0.132032  -0.289563  0  3.938875  0
C  C104  1  0.46249884  0.92665230  0.68198623  1  1.3771  0  0.182846  0.320353  0  4.086351  0
C  C105  1  0.07118530  0.57335989  0.81799446  1  1.3569  0  0.184256  0.324311  0  4.086432  0
C  C106  1  0.53750239  0.07334652  0.31801377  1  1.377067  0  0.182895  0.320414  0  4.086364  0
C  C107  1  0.92881327  0.42664079  0.18200563  1  1.356898  0  0.184208  0.324253  0  4.086335  0
C  C108  1  0.70272024  0.81732177  0.68193576  1  0.278857  0  -0.131398  -0.28265  0  3.890341  0
C  C109  1  0.20194686  0.68277205  0.81799948  1  0.200258  0  -0.131987  -0.284377  0  3.886549  0
C  C110  1  0.29727966  0.18267799  0.31806429  1  0.278884  0  -0.131402  -0.282671  0  3.890353  0
C  C111  1  0.79805346  0.31722678  0.18200066  1  0.200016  0  -0.131986  -0.284439  0  3.886512  0
C  C112  1  0.57363664  0.70966986  0.66986160  1  0.226811  0  -0.134057  -0.273175  0  3.865839  0
C  C113  1  0.95312352  0.79030493  0.83011539  1  0.247997  0  -0.13492  -0.274748  0  3.866834  0
C  C114  1  0.42636326  0.29032989  0.33013894  1  0.226758  0  -0.134046  -0.273171  0  3.865896  0
C  C115  1  0.04687547  0.20969482  0.16988430  1  0.247988  0  -0.134908  -0.274786  0  3.86688  0
N  N116  1  0.07774847  0.84088091  0.60630324  1  -1.206726  0  -0.275349  0.038973  0  3.710057  0
N  N117  1  0.52490451  0.65924639  0.89363226  1  -1.22607  0  -0.275717  0.040181  0  3.710442  0
N  N118  1  0.92225235  0.15911884  0.39369666  1  -1.206755  0  -0.275357  0.038938  0  3.71003  0
N  N119  1  0.47509631  0.34075336  0.10636764  1  -1.22611  0  -0.275775  0.040099  0  3.710532  0
N  N120  1  0.57409693  0.82256119  0.67834157  1  -1.201763  0  -0.273395  0.048689  0  3.704373  0
N  N121  1  0.07501032  0.67746082  0.82161179  1  -1.198692  0  -0.272255  0.050605  0  3.701044  0
N  N122  1  0.42590297  0.17743856  0.32165848  1  -1.201737  0  -0.273399  0.048688  0  3.70435  0
N  N123  1  0.92498825  0.32253985  0.17838781  1  -1.198452  0  -0.272249  0.050615  0  3.701019  0
N  N124  1  0.20031297  0.18852441  0.54600130  1  0.826339  0  0.081622  0.724233  0  4.439382  0
N  N125  1  0.93445600  0.31145901  0.95401024  1  0.829585  0  0.082425  0.725849  0  4.431929  0
N  N126  1  0.79968560  0.81147627  0.45399879  1  0.826329  0  0.081696  0.724341  0  4.439302  0
N  N127  1  0.06554216  0.68854259  0.04598927  1  0.829583  0  0.082426  0.725919  0  4.431888  0
O  O128  1  0.28255509  0.15862044  0.73058646  1  -1.176475  0  -0.371906  -0.630704  0  2.324132  0
O  O129  1  0.17167154  0.34157231  0.76934807  1  -1.182089  0  -0.372209  -0.631417  0  2.324154  0
O  O130  1  0.71744439  0.84138024  0.26941349  1  -1.176495  0  -0.371914  -0.63074  0  2.324156  0
O  O131  1  0.82832836  0.65842744  0.23065198  1  -1.182034  0  -0.372194  -0.631403  0  2.324141  0
O  O132  1  0.89699600  0.16618149  0.72262945  1  -1.169544  0  -0.373135  -0.640934  0  2.261326  0
O  O133  1  0.78587851  0.33391599  0.77721279  1  -1.172681  0  -0.372892  -0.64107  0  2.262459  0
O  O134  1  0.10300391  0.83381826  0.27737059  1  -1.168879  0  -0.373088  -0.640852  0  2.261392  0
O  O135  1  0.21412098  0.66608469  0.22278716  1  -1.172656  0  -0.37292  -0.641115  0  2.262379  0
O  O136  1  0.02697349  0.32613768  0.68124897  1  -1.194835  0  -0.410628  -0.718739  0  2.467679  0
O  O137  1  0.03427946  0.17387784  0.81874418  1  -1.198682  0  -0.410184  -0.718076  0  2.46721  0
O  O138  1  0.97302550  0.67386207  0.31875072  1  -1.194843  0  -0.410614  -0.718797  0  2.467706  0
O  O139  1  0.96572219  0.82612006  0.18125591  1  -1.198759  0  -0.410221  -0.718129  0  2.467227  0
O  O140  1  0.92945979  0.52677377  0.68587082  1  -1.136242  0  -0.337227  -0.5724  0  2.140666  0
O  O141  1  0.14209619  0.97326074  0.81411586  1  -1.14747  0  -0.3372  -0.572488  0  2.140454  0
O  O142  1  0.07054104  0.47322597  0.31412859  1  -1.136253  0  -0.337243  -0.572442  0  2.140624  0
O  O143  1  0.85790678  0.02673624  0.18588468  1  -1.147437  0  -0.337236  -0.572503  0  2.140567  0
O  O144  1  0.10164594  0.93995244  0.67822278  1  -1.17257  0  -0.362133  -0.544538  0  2.402546  0
O  O145  1  0.71971806  0.56008546  0.82171620  1  -1.184916  0  -0.361954  -0.544312  0  2.4018  0
O  O146  1  0.89835405  0.06004916  0.32177693  1  -1.172592  0  -0.36212  -0.544525  0  2.402634  0
O  O147  1  0.28028234  0.43991521  0.17828360  1  -1.184843  0  -0.361948  -0.544285  0  2.401683  0
O  O148  1  0.34784298  0.93673445  0.68054038  1  -1.176366  0  -0.378014  -0.555492  0  2.355582  0
O  O149  1  0.96516766  0.56325079  0.81946609  1  -1.173768  0  -0.379533  -0.558506  0  2.358981  0
O  O150  1  0.65215743  0.06326622  0.31945844  1  -1.17636  0  -0.378064  -0.555535  0  2.355649  0
O  O151  1  0.03483183  0.43674988  0.18053287  1  -1.17375  0  -0.379492  -0.558475  0  2.35893  0
O  O152  1  0.26923028  0.18252167  0.58818235  1  -0.554031  0  -0.234168  -0.502667  0  1.986932  0
O  O153  1  0.03961973  0.31745851  0.91190506  1  -0.551566  0  -0.234311  -0.502575  0  1.984202  0
O  O154  1  0.73076788  0.81747994  0.41181765  1  -0.554055  0  -0.234195  -0.502671  0  1.986825  0
O  O155  1  0.96038067  0.68254216  0.08809425  1  -0.551556  0  -0.234306  -0.502602  0  1.984283  0
O  O156  1  0.22505610  0.22376641  0.48218933  1  -0.482694  0  -0.151134  -0.387523  0  1.970175  0
O  O157  1  0.93049507  0.27615585  0.01782947  1  -0.4824  0  -0.151061  -0.387805  0  1.968435  0
O  O158  1  0.77494430  0.77623427  0.51781047  1  -0.48265  0  -0.151162  -0.387583  0  1.970311  0
O  O159  1  0.06950442  0.72384483  0.98216999  1  -0.482435  0  -0.151018  -0.387763  0  1.968438  0
O  O160  1  0.10131416  0.15605152  0.57418314  1  -0.600554  0  -0.254728  -0.549114  0  2.01574  0
O  O161  1  0.83124711  0.34399636  0.92574013  1  -0.607328  0  -0.255374  -0.550337  0  2.012204  0
O  O162  1  0.89868666  0.84394823  0.42581676  1  -0.600555  0  -0.254747  -0.54916  0  2.01569  0
O  O163  1  0.16875238  0.65600431  0.07425982  1  -0.607305  0  -0.255425  -0.550434  0  2.012116  0
F  F164  1  0.49295361  0.04005060  0.80949540  1  -0.623747  0  -0.077395  -0.104623  0  1.424248  0
F  F165  1  0.34242929  0.46015933  0.69043754  1  -0.633212  0  -0.077509  -0.104065  0  1.424927  0
F  F166  1  0.50704546  0.95995100  0.19050495  1  -0.623752  0  -0.077384  -0.104633  0  1.424186  0
F  F167  1  0.65756978  0.53984228  0.30956330  1  -0.633203  0  -0.077504  -0.104051  0  1.424897  0
F  F168  1  0.72830512  0.03912331  0.80751071  1  -0.626661  0  -0.077349  -0.099698  0  1.428746  0
F  F169  1  0.57489273  0.46103512  0.69239391  1  -0.618158  0  -0.078472  -0.100839  0  1.427296  0
F  F170  1  0.27169437  0.96087737  0.19248973  1  -0.626655  0  -0.077358  -0.099704  0  1.428696  0
F  F171  1  0.42510675  0.53896557  0.30760752  1  -0.618152  0  -0.078512  -0.100882  0  1.427212  0
F  F172  1  0.81186124  0.41660463  0.58271805  1  -0.62243  0  -0.084097  -0.10571  0  1.382749  0
F  F173  1  0.81114090  0.08323504  0.91728182  1  -0.622474  0  -0.085115  -0.106908  0  1.379262  0
F  F174  1  0.18813508  0.58339697  0.41728174  1  -0.622396  0  -0.084099  -0.105707  0  1.38276  0
F  F175  1  0.18886175  0.91676471  0.08271780  1  -0.622512  0  -0.085096  -0.106878  0  1.379296  0
F  F176  1  0.17495644  0.52434989  0.55798938  1  -0.625038  0  -0.083064  -0.110627  0  1.377653  0
F  F177  1  0.25721519  0.97584790  0.94200882  1  -0.623429  0  -0.082239  -0.109416  0  1.379527  0
F  F178  1  0.82504038  0.47565264  0.44201017  1  -0.625002  0  -0.082999  -0.110523  0  1.37761  0
F  F179  1  0.74278605  0.02415092  0.05799118  1  -0.623404  0  -0.082224  -0.109399  0  1.379518  0
