# generated using pymatgen
data_Zn4H4C24S4N2Cl2O17
_symmetry_space_group_name_H-M   'P 1'
_cell_length_a   19.64437606
_cell_length_b   19.61223726
_cell_length_c   33.29657861
_cell_angle_alpha   79.26320995
_cell_angle_beta   79.09300283
_cell_angle_gamma   63.81375576
_symmetry_Int_Tables_number   1
_chemical_formula_structural   Zn4H4C24S4N2Cl2O17
_chemical_formula_sum   'Zn16 H16 C96 S16 N8 Cl8 O68'
_cell_volume   11226.41391791
_cell_formula_units_Z   4
loop_
 _symmetry_equiv_pos_site_id
 _symmetry_equiv_pos_as_xyz
  1  'x, y, z'
loop_
 _atom_site_type_symbol
 _atom_site_label
 _atom_site_symmetry_multiplicity
 _atom_site_fract_x
 _atom_site_fract_y
 _atom_site_fract_z
 _atom_site_occupancy
 _atom_site_pbe_bader_charge
 _atom_site_pbe_bader_spin_density
 _atom_site_pbe_cm5_charge
 _atom_site_pbe_ddec_charge
 _atom_site_pbe_ddec_spin_density
 _atom_site_pbe_ddec_sum_bond_order
 _atom_site_pbe_magmom
Zn  Zn0  1  0.05500386  0.40158628  0.47690804  1  1.316734  0  0.672625  0.971467  0  2.332453  0
Zn  Zn1  1  0.98663739  0.48392386  0.56033718  1  1.325421  0  0.691062  0.991797  0  2.323393  0
Zn  Zn2  1  0.05768258  0.56268526  0.48155898  1  1.326257  0  0.683492  0.985328  0  2.340602  0
Zn  Zn3  1  0.89950986  0.55404708  0.48010676  1  1.323946  0  0.682242  0.981971  0  2.350524  0
Zn  Zn4  1  0.69548913  0.34944060  0.27215228  1  1.316503  0  0.673409  0.970374  0  2.34105  0
Zn  Zn5  1  0.68925907  0.18996185  0.26578223  1  1.311581  0  0.673874  0.966696  0  2.371418  0
Zn  Zn6  1  0.77163363  0.26531473  0.19029697  1  1.325148  0  0.683668  0.986161  0  2.336563  0
Zn  Zn7  1  0.84740300  0.19274756  0.27389318  1  1.323881  0  0.6827  0.978238  0  2.356502  0
Zn  Zn8  1  0.26644891  0.76603243  0.68850266  1  1.303036  0  0.672521  0.963009  0  2.361931  0
Zn  Zn9  1  0.34928916  0.69599072  0.77065872  1  1.323984  0  0.682006  0.977096  0  2.353127  0
Zn  Zn10  1  0.19340262  0.84963923  0.76978450  1  1.31971  0  0.675182  0.975364  0  2.35601  0
Zn  Zn11  1  0.19303638  0.68599664  0.76638286  1  1.325018  0  0.683537  0.986014  0  2.326862  0
Zn  Zn12  1  0.56096059  0.06028901  0.98329419  1  1.314871  0  0.674271  0.967576  0  2.356751  0
Zn  Zn13  1  0.40221157  0.05334275  0.97703694  1  1.317839  0  0.673659  0.966622  0  2.349362  0
Zn  Zn14  1  0.55849453  0.89936713  0.97845696  1  1.32199  0  0.676037  0.97206  0  2.371932  0
Zn  Zn15  1  0.48367605  0.98140324  0.05974768  1  1.31976  0  0.674431  0.968193  0  2.373979  0
H  H16  1  0.74956190  0.45206745  0.34849618  1  0.141005  0  0.114727  0.135356  0  0.989357  0
H  H17  1  0.00138327  0.30349808  0.39866676  1  0.126162  0  0.114019  0.13448  0  0.98973  0
H  H18  1  0.20873498  0.69311030  0.60071645  1  0.10536  0  0.112762  0.132901  0  0.99312  0
H  H19  1  0.04173612  0.55842801  0.64693845  1  0.136525  0  0.118785  0.143511  0  0.983083  0
H  H20  1  0.46426479  0.23941827  0.34206336  1  0.134781  0  0.124694  0.150843  0  0.965467  0
H  H21  1  0.48253245  0.70133298  0.59983577  1  0.119181  0  0.12301  0.148472  0  0.968191  0
H  H22  1  0.20475576  0.97954007  0.59925486  1  0.128773  0  0.123567  0.149691  0  0.967761  0
H  H23  1  0.95014385  0.96360572  0.34353359  1  0.137763  0  0.127101  0.155255  0  0.960974  0
H  H24  1  0.64590429  0.15237272  0.04843583  1  0.099354  0  0.114428  0.135623  0  0.991941  0
H  H25  1  0.59945254  0.10765237  0.19963981  1  0.14871  0  0.113439  0.13508  0  0.993633  0
H  H26  1  0.54229876  0.76879109  0.14859848  1  0.109465  0  0.124403  0.151044  0  0.965733  0
H  H27  1  0.15968632  0.14198226  0.04140480  1  0.116925  0  0.124882  0.151656  0  0.964012  0
H  H28  1  0.30223442  0.99558584  0.90301391  1  0.149566  0  0.112618  0.133825  0  0.995858  0
H  H29  1  0.44791230  0.74732640  0.84795938  1  0.160247  0  0.118052  0.141702  0  0.983589  0
H  H30  1  0.29862229  0.28328316  0.90339189  1  0.114984  0  0.124093  0.149646  0  0.967085  0
H  H31  1  0.78852674  0.01121415  0.90679974  1  0.125717  0  0.124999  0.151491  0  0.964937  0
C  C32  1  0.06408397  0.31801648  0.55915945  1  1.591596  0  0.222117  0.620077  0  4.206949  0
C  C33  1  0.07052589  0.57113936  0.56657225  1  1.556463  0  0.232016  0.618185  0  4.143925  0
C  C34  1  0.17994465  0.44174023  0.43696716  1  1.596082  0  0.221399  0.617919  0  4.209441  0
C  C35  1  0.93496387  0.68183775  0.43904753  1  1.611502  0  0.222726  0.618393  0  4.208373  0
C  C36  1  0.92889301  0.43188787  0.43169495  1  1.554694  0  0.23104  0.622217  0  4.14185  0
C  C37  1  0.82065374  0.56051849  0.56272051  1  1.61568  0  0.223391  0.616077  0  4.208397  0
C  C38  1  0.56790117  0.31001667  0.31294406  1  1.586529  0  0.221093  0.614916  0  4.209893  0
C  C39  1  0.67833131  0.18915731  0.17877396  1  1.564343  0  0.231788  0.619877  0  4.144656  0
C  C40  1  0.69397351  0.43117896  0.18974147  1  1.610796  0  0.22172  0.617924  0  4.209218  0
C  C41  1  0.93568731  0.18497856  0.19237955  1  1.625558  0  0.222986  0.618491  0  4.208051  0
C  C42  1  0.81758457  0.31874167  0.32019243  1  1.578521  0  0.23016  0.619789  0  4.144911  0
C  C43  1  0.81174969  0.06194091  0.30835821  1  1.568955  0  0.220779  0.612148  0  4.214124  0
C  C44  1  0.43367930  0.69059056  0.68710232  1  1.550044  0  0.220287  0.613558  0  4.211339  0
C  C45  1  0.31674133  0.82029318  0.81823350  1  1.593518  0  0.230968  0.617915  0  4.148845  0
C  C46  1  0.18693018  0.93388458  0.68638945  1  1.607388  0  0.219972  0.612258  0  4.210857  0
C  C47  1  0.06758184  0.80966567  0.80830213  1  1.592993  0  0.222038  0.61805  0  4.210975  0
C  C48  1  0.18513047  0.67496833  0.68114173  1  1.572932  0  0.230577  0.621649  0  4.143342  0
C  C49  1  0.31151089  0.56945989  0.81272642  1  1.60358  0  0.222081  0.614586  0  4.211865  0
C  C50  1  0.43822928  0.18328220  0.93795712  1  1.574802  0  0.219792  0.612348  0  4.212992  0
C  C51  1  0.43438462  0.92466087  0.93143258  1  1.584629  0  0.230396  0.620496  0  4.147596  0
C  C52  1  0.68535147  0.93993953  0.93788032  1  1.576407  0  0.220739  0.61251  0  4.213477  0
C  C53  1  0.56296701  0.81445503  0.06178244  1  1.583135  0  0.220061  0.610537  0  4.215308  0
C  C54  1  0.56888819  0.06851384  0.06956555  1  1.585068  0  0.23028  0.617984  0  4.149785  0
C  C55  1  0.31572936  0.06283073  0.06018985  1  1.579672  0  0.220842  0.613396  0  4.209809  0
C  C56  1  0.89900367  0.40718924  0.40151249  1  0.078931  0  -0.011505  -0.069139  0  3.918282  0
C  C57  1  0.85027953  0.34666614  0.34733164  1  0.064457  0  -0.010883  -0.068735  0  3.921245  0
C  C58  1  0.82755413  0.45022944  0.38649824  1  0.057531  0  0.022812  0.134928  0  4.01724  0
C  C59  1  0.92294867  0.30483149  0.36114960  1  0.064808  0  0.022794  0.134264  0  4.017735  0
C  C60  1  0.80470620  0.41927125  0.35997710  1  -0.018514  0  -0.081933  -0.147112  0  3.948509  0
C  C61  1  0.94561421  0.33565787  0.38780874  1  0.007768  0  -0.082387  -0.147377  0  3.94797  0
C  C62  1  0.10035794  0.60042112  0.59455300  1  0.069083  0  -0.011074  -0.069652  0  3.91796  0
C  C63  1  0.15289273  0.64819825  0.65314192  1  -0.003219  0  -0.011322  -0.069266  0  3.922529  0
C  C64  1  0.14775314  0.63952348  0.58141219  1  0.050357  0  0.022144  0.133067  0  4.02092  0
C  C65  1  0.10455233  0.61016518  0.66627414  1  0.067732  0  0.023731  0.134356  0  4.021072  0
C  C66  1  0.17261227  0.66261748  0.61075933  1  0.059613  0  -0.084844  -0.150901  0  3.955748  0
C  C67  1  0.07930407  0.58737260  0.63694615  1  0.028446  0  -0.079145  -0.144138  0  3.935364  0
C  C68  1  0.30533527  0.45553929  0.40231267  1  0.298734  0  0.079465  0.030314  0  3.934382  0
C  C69  1  0.44734512  0.29652307  0.34994926  1  0.049667  0  -0.086608  -0.131345  0  3.95723  0
C  C70  1  0.25820500  0.41727353  0.41478445  1  -0.109634  0  -0.006535  -0.149867  0  3.904529  0
C  C71  1  0.49256612  0.33614923  0.33790193  1  -0.171719  0  -0.021022  -0.117868  0  3.970624  0
C  C72  1  0.37867315  0.34080414  0.37316537  1  -0.15561  0  -0.018046  -0.004055  0  4.068474  0
C  C73  1  0.37344741  0.41295271  0.37797454  1  -0.115711  0  -0.016394  -0.067397  0  4.080422  0
C  C74  1  0.72772305  0.57976316  0.63155554  1  0.228741  0  0.08049  0.032954  0  3.933991  0
C  C75  1  0.52625839  0.67325416  0.62054168  1  0.088643  0  -0.087169  -0.131734  0  3.963131  0
C  C76  1  0.74639797  0.58789977  0.58897437  1  -0.079985  0  -0.00678  -0.152091  0  3.909381  0
C  C77  1  0.50966193  0.66465180  0.66293123  1  -0.214454  0  -0.021867  -0.120464  0  3.975158  0
C  C78  1  0.60612934  0.64131184  0.60924133  1  -0.179136  0  -0.018676  -0.005945  0  4.07103  0
C  C79  1  0.64793572  0.60891420  0.64334259  1  -0.07197  0  -0.015726  -0.069382  0  4.080357  0
C  C80  1  0.07200340  0.22684375  0.62779435  1  0.33711  0  0.079178  0.030794  0  3.938147  0
C  C81  1  0.17440071  0.02434468  0.61935277  1  0.00148  0  -0.087008  -0.133377  0  3.961702  0
C  C82  1  0.08324845  0.24379648  0.58523827  1  -0.118125  0  -0.007946  -0.152205  0  3.915124  0
C  C83  1  0.16220001  0.00941218  0.66171050  1  -0.125801  0  -0.020387  -0.116497  0  3.970061  0
C  C84  1  0.14191221  0.10398656  0.60718525  1  -0.162043  0  -0.018171  -0.002504  0  4.067249  0
C  C85  1  0.10628115  0.14741052  0.64066031  1  -0.117499  0  -0.016318  -0.068902  0  4.078986  0
C  C86  1  0.83720729  0.80182699  0.39864172  1  0.274999  0  0.078992  0.029935  0  3.936204  0
C  C87  1  0.90439932  0.94479614  0.34900834  1  0.000475  0  -0.0826  -0.126367  0  3.948666  0
C  C88  1  0.90600518  0.75826219  0.41503768  1  -0.094484  0  -0.005867  -0.149196  0  3.909495  0
C  C89  1  0.83531988  0.98692959  0.33338673  1  -0.158145  0  -0.020465  -0.117598  0  3.971975  0
C  C90  1  0.90507931  0.87664283  0.37235351  1  -0.096559  0  -0.01759  -0.006237  0  4.06784  0
C  C91  1  0.83667642  0.86873682  0.37367525  1  -0.121636  0  -0.015981  -0.066905  0  4.079649  0
C  C92  1  0.65066243  0.16098696  0.14905177  1  -0.016197  0  -0.011158  -0.069775  0  3.915784  0
C  C93  1  0.59491932  0.09883392  0.09902653  1  0.083809  0  -0.011473  -0.070046  0  3.915476  0
C  C94  1  0.66361455  0.17388985  0.10565513  1  0.094717  0  0.023583  0.13389  0  4.021471  0
C  C95  1  0.58140268  0.08662137  0.14242725  1  0.010791  0  0.021897  0.135751  0  4.012762  0
C  C96  1  0.63583261  0.14263683  0.08182686  1  0.047346  0  -0.082448  -0.14754  0  3.94596  0
C  C97  1  0.60945944  0.11746673  0.16625247  1  0.031966  0  -0.083472  -0.148135  0  3.949898  0
C  C98  1  0.67629921  0.52145526  0.12019976  1  0.298609  0  0.079141  0.031702  0  3.934683  0
C  C99  1  0.57445319  0.72397173  0.12865064  1  0.08032  0  -0.085263  -0.131021  0  3.956779  0
C  C100  1  0.66512440  0.50449606  0.16282429  1  -0.084792  0  -0.007684  -0.152554  0  3.908514  0
C  C101  1  0.58797601  0.73887172  0.08635402  1  -0.16824  0  -0.02057  -0.117116  0  3.969774  0
C  C102  1  0.60807564  0.64440358  0.14089670  1  -0.102353  0  -0.01761  -0.003619  0  4.067099  0
C  C103  1  0.64565649  0.60106255  0.10752150  1  -0.17894  0  -0.015699  -0.068906  0  4.078863  0
C  C104  1  0.08536178  0.11780184  0.17979135  1  0.270254  0  0.079104  0.031869  0  3.936387  0
C  C105  1  0.16929633  0.12518138  0.07358209  1  0.097979  0  -0.085482  -0.131743  0  3.955954  0
C  C106  1  0.01202686  0.15631097  0.16802199  1  -0.071452  0  -0.00727  -0.153055  0  3.905859  0
C  C107  1  0.24134511  0.08728578  0.08621423  1  -0.198162  0  -0.020703  -0.116511  0  3.963408  0
C  C108  1  0.11259548  0.13757168  0.10801834  1  -0.227708  0  -0.017594  -0.003861  0  4.064906  0
C  C109  1  0.14304274  0.10842633  0.14589439  1  -0.132131  0  -0.016054  -0.069106  0  4.079598  0
C  C110  1  0.34363341  0.84927836  0.84790848  1  -0.038447  0  -0.01023  -0.067406  0  3.917958  0
C  C111  1  0.40701952  0.89429388  0.90264235  1  0.003651  0  -0.011994  -0.073763  0  3.91781  0
C  C112  1  0.30193584  0.92011163  0.86401284  1  0.06743  0  0.021992  0.13466  0  4.016938  0
C  C113  1  0.44846461  0.82303835  0.88683268  1  0.058497  0  0.02439  0.137018  0  4.013627  0
C  C114  1  0.33422982  0.94097477  0.89070615  1  0.050843  0  -0.084263  -0.148235  0  3.954618  0
C  C115  1  0.41610199  0.80220693  0.86007285  1  0.040333  0  -0.07959  -0.14459  0  3.93644  0
C  C116  1  0.40553017  0.45254600  0.85672803  1  0.328157  0  0.078399  0.029553  0  3.936002  0
C  C117  1  0.34392881  0.30252632  0.89885898  1  0.063361  0  -0.085822  -0.12917  0  3.958687  0
C  C118  1  0.33671908  0.49665979  0.84035086  1  -0.131101  0  -0.005645  -0.150127  0  3.904186  0
C  C119  1  0.41336640  0.25950565  0.91402977  1  -0.153214  0  -0.022459  -0.120123  0  3.971163  0
C  C120  1  0.34185240  0.37256968  0.87742156  1  -0.179508  0  -0.017594  -0.005936  0  4.065968  0
C  C121  1  0.40965364  0.38103383  0.87704604  1  -0.141477  0  -0.015555  -0.067277  0  4.081959  0
C  C122  1  0.94792466  0.79212527  0.84941292  1  0.350691  0  0.079198  0.032212  0  3.93609  0
C  C123  1  0.80503139  0.95395151  0.89928284  1  0.03277  0  -0.085184  -0.13043  0  3.957287  0
C  C124  1  0.99421414  0.83090868  0.83543039  1  -0.131522  0  -0.007968  -0.152792  0  3.910743  0
C  C125  1  0.76009354  0.91418385  0.91238681  1  -0.165377  0  -0.021269  -0.118898  0  3.970838  0
C  C126  1  0.87291889  0.90958187  0.87553998  1  -0.168349  0  -0.017989  -0.004203  0  4.066948  0
C  C127  1  0.87786516  0.83715495  0.87143999  1  -0.124535  0  -0.015621  -0.068446  0  4.075638  0
S  S128  1  0.29897613  0.32797276  0.39764386  1  0.320438  0  0.123499  0.180136  0  2.742648  0
S  S129  1  0.45231039  0.42691029  0.35401043  1  0.335851  0  0.111419  0.173025  0  2.796411  0
S  S130  1  0.66576757  0.63350611  0.56354920  1  0.319657  0  0.126863  0.186798  0  2.740998  0
S  S131  1  0.58978576  0.61722544  0.68923743  1  0.362135  0  0.117165  0.18182  0  2.793532  0
S  S132  1  0.13399520  0.16186481  0.56092141  1  0.313513  0  0.11776  0.172362  0  2.738752  0
S  S133  1  0.11277398  0.09098171  0.68701348  1  0.336657  0  0.113763  0.176231  0  2.79117  0
S  S134  1  0.96906192  0.80069407  0.40075299  1  0.326172  0  0.130753  0.190347  0  2.740798  0
S  S135  1  0.77166087  0.94422485  0.34610798  1  0.342203  0  0.108371  0.168946  0  2.794604  0
S  S136  1  0.61412064  0.58650467  0.18707372  1  0.323919  0  0.125415  0.183378  0  2.739771  0
S  S137  1  0.64148051  0.65748326  0.06126720  1  0.340114  0  0.116618  0.18033  0  2.791263  0
S  S138  1  0.01416302  0.17852137  0.11510932  1  0.360698  0  0.129716  0.18994  0  2.740059  0
S  S139  1  0.24099483  0.06738413  0.13951170  1  0.372456  0  0.110183  0.172227  0  2.795054  0
S  S140  1  0.27596748  0.45132665  0.85144685  1  0.348099  0  0.133448  0.194695  0  2.732596  0
S  S141  1  0.47646702  0.30294182  0.90224755  1  0.350619  0  0.110148  0.172267  0  2.796918  0
S  S142  1  0.95275331  0.92178499  0.85070918  1  0.322616  0  0.12387  0.181752  0  2.741923  0
S  S143  1  0.79883804  0.82387134  0.89579885  1  0.34515  0  0.114461  0.177699  0  2.785911  0
N  N144  1  0.29313276  0.52875987  0.41361435  1  0.366928  0  0.058085  0.529435  0  4.215532  0
N  N145  1  0.78001046  0.55058547  0.66280943  1  0.397598  0  0.060332  0.52995  0  4.212259  0
N  N146  1  0.02662978  0.28073964  0.65774794  1  0.386243  0  0.060381  0.529486  0  4.218503  0
N  N147  1  0.76901777  0.78723798  0.40688910  1  0.365848  0  0.058452  0.530878  0  4.215374  0
N  N148  1  0.71044324  0.46732252  0.08968072  1  0.365166  0  0.05868  0.529229  0  4.215611  0
N  N149  1  0.10552000  0.08439275  0.22112368  1  0.366289  0  0.05804  0.529961  0  4.219568  0
N  N150  1  0.46736390  0.47460778  0.85674522  1  0.365523  0  0.060063  0.52977  0  4.215681  0
N  N151  1  0.96702438  0.71254913  0.84573931  1  0.364311  0  0.059622  0.529523  0  4.22101  0
Cl  Cl152  1  0.76622804  0.54156111  0.39772417  1  -0.166616  0  -0.000807  -0.058845  0  1.476511  0
Cl  Cl153  1  0.98834646  0.21744845  0.34599156  1  -0.170449  0  -0.003323  -0.061125  0  1.4774  0
Cl  Cl154  1  0.17699426  0.66246893  0.53059730  1  -0.163281  0  -0.001909  -0.057577  0  1.507195  0
Cl  Cl155  1  0.07154511  0.59209658  0.71705536  1  -0.163408  0  0.00279  -0.05372  0  1.473553  0
Cl  Cl156  1  0.71256472  0.22625763  0.07933847  1  -0.161548  0  0.00466  -0.049405  0  1.507007  0
Cl  Cl157  1  0.53068521  0.03596497  0.16913245  1  -0.172592  0  -0.008984  -0.068735  0  1.475536  0
Cl  Cl158  1  0.21096187  0.98391931  0.85357578  1  -0.168833  0  -0.009608  -0.069849  0  1.473189  0
Cl  Cl159  1  0.53856466  0.75833572  0.89788552  1  -0.15933  0  0.001892  -0.055459  0  1.47832  0
O  O160  1  0.00040669  0.49960858  0.49963870  1  -1.230471  0  -0.575183  -1.04579  0  2.53028  0
O  O161  1  0.06420952  0.31604760  0.52087513  1  -1.15874  0  -0.315668  -0.541356  0  2.298834  0
O  O162  1  0.01961878  0.54730411  0.58339959  1  -1.155105  0  -0.30838  -0.534782  0  2.324015  0
O  O163  1  0.13965583  0.51293561  0.43817620  1  -1.164701  0  -0.309207  -0.528854  0  2.341935  0
O  O164  1  0.05188237  0.37556557  0.57639967  1  -1.158006  0  -0.308127  -0.529914  0  2.341534  0
O  O165  1  0.15963869  0.38745260  0.45186501  1  -1.15226  0  -0.313639  -0.53962  0  2.301591  0
O  O166  1  0.09807416  0.57125272  0.52875573  1  -1.152693  0  -0.3097  -0.541585  0  2.398698  0
O  O167  1  0.99277976  0.66591651  0.45745053  1  -1.151229  0  -0.313242  -0.537983  0  2.307033  0
O  O168  1  0.88087798  0.48472584  0.45282333  1  -1.164735  0  -0.311781  -0.545348  0  2.391718  0
O  O169  1  0.90269012  0.63858007  0.43828138  1  -1.16161  0  -0.30795  -0.529313  0  2.346393  0
O  O170  1  0.00062613  0.39628429  0.43432144  1  -1.159508  0  -0.313544  -0.542449  0  2.308375  0
O  O171  1  0.87816628  0.50744143  0.57829021  1  -1.145944  0  -0.303174  -0.52152  0  2.347448  0
O  O172  1  0.81848934  0.59255021  0.52538625  1  -1.155505  0  -0.312725  -0.535351  0  2.314184  0
O  O173  1  0.74989753  0.24982594  0.25062402  1  -1.224269  0  -0.573294  -1.039238  0  2.528881  0
O  O174  1  0.60157251  0.35450408  0.30770730  1  -1.158272  0  -0.317005  -0.544201  0  2.324655  0
O  O175  1  0.66766909  0.16457841  0.21671290  1  -1.17112  0  -0.313607  -0.542451  0  2.336346  0
O  O176  1  0.74962830  0.37428529  0.17471503  1  -1.165075  0  -0.311528  -0.532761  0  2.341926  0
O  O177  1  0.59225318  0.24589990  0.29898131  1  -1.168791  0  -0.314356  -0.536109  0  2.309782  0
O  O178  1  0.66084227  0.43311988  0.22682531  1  -1.156145  0  -0.313494  -0.537929  0  2.306332  0
O  O179  1  0.70981672  0.23451824  0.16444260  1  -1.148387  0  -0.308082  -0.538962  0  2.40051  0
O  O180  1  0.87986902  0.20412281  0.17171263  1  -1.15328  0  -0.313349  -0.539327  0  2.313771  0
O  O181  1  0.84788549  0.24738382  0.31732477  1  -1.170037  0  -0.312667  -0.546067  0  2.4003  0
O  O182  1  0.93149560  0.19038976  0.23026714  1  -1.158803  0  -0.306713  -0.52739  0  2.348939  0
O  O183  1  0.76032398  0.36925316  0.30261572  1  -1.168404  0  -0.312985  -0.54103  0  2.307675  0
O  O184  1  0.74372861  0.09206458  0.29857068  1  -1.170931  0  -0.316906  -0.54404  0  2.330697  0
O  O185  1  0.86105976  0.09000827  0.29902072  1  -1.151798  0  -0.310539  -0.528761  0  2.312146  0
O  O186  1  0.25015110  0.74985307  0.74885915  1  -1.219708  0  -0.572751  -1.038931  0  2.525944  0
O  O187  1  0.37568981  0.71917997  0.66724436  1  -1.166739  0  -0.315086  -0.538384  0  2.30368  0
O  O188  1  0.35569146  0.74989018  0.81270309  1  -1.169388  0  -0.308933  -0.534012  0  2.326218  0
O  O189  1  0.16500962  0.93425519  0.72513622  1  -1.174302  0  -0.316375  -0.542708  0  2.326538  0
O  O190  1  0.43341391  0.68203142  0.72617177  1  -1.138969  0  -0.315388  -0.540947  0  2.337255  0
O  O191  1  0.22738848  0.87562019  0.66714012  1  -1.17462  0  -0.313317  -0.534414  0  2.305185  0
O  O192  1  0.25880771  0.86737527  0.80062377  1  -1.166013  0  -0.311236  -0.544352  0  2.403848  0
O  O193  1  0.10222080  0.85212196  0.80758482  1  -1.143178  0  -0.314008  -0.540594  0  2.316002  0
O  O194  1  0.18686358  0.64515128  0.71852154  1  -1.164683  0  -0.312354  -0.547623  0  2.387491  0
O  O195  1  0.08839110  0.75408234  0.78759002  1  -1.152031  0  -0.308096  -0.528517  0  2.347632  0
O  O196  1  0.20969209  0.72546518  0.66461560  1  -1.167993  0  -0.31386  -0.542181  0  2.32451  0
O  O197  1  0.36210537  0.59158353  0.79404638  1  -1.158364  0  -0.306458  -0.526151  0  2.35338  0
O  O198  1  0.23985758  0.60207554  0.80919222  1  -1.144748  0  -0.310165  -0.532139  0  2.303722  0
O  O199  1  0.50081111  0.99944734  0.99941542  1  -1.2275  0  -0.570434  -1.032439  0  2.523641  0
O  O200  1  0.50559917  0.15483373  0.94853006  1  -1.16929  0  -0.317627  -0.544483  0  2.336798  0
O  O201  1  0.39150104  0.99311939  0.93958709  1  -1.175752  0  -0.314738  -0.545091  0  2.331603  0
O  O202  1  0.65319671  0.89394350  0.94431281  1  -1.160896  0  -0.315767  -0.541307  0  2.338709  0
O  O203  1  0.39085137  0.15284851  0.94600733  1  -1.164451  0  -0.314429  -0.536812  0  2.306266  0
O  O204  1  0.65981299  0.00473885  0.95128875  1  -1.166938  0  -0.313415  -0.535074  0  2.305371  0
O  O205  1  0.49711230  0.88072689  0.94557685  1  -1.169539  0  -0.309898  -0.542315  0  2.416169  0
O  O206  1  0.58584618  0.81468203  0.02317288  1  -1.178318  0  -0.315171  -0.539938  0  2.332034  0
O  O207  1  0.53833909  0.02260991  0.08452003  1  -1.163972  0  -0.311777  -0.543934  0  2.415018  0
O  O208  1  0.52090375  0.87242590  0.08107327  1  -1.166296  0  -0.312631  -0.532552  0  2.309072  0
O  O209  1  0.58018632  0.09126074  0.03138236  1  -1.171343  0  -0.312483  -0.539781  0  2.326853  0
O  O210  1  0.31507937  0.07515501  0.02123514  1  -1.164454  0  -0.312942  -0.535303  0  2.299058  0
O  O211  1  0.37442004  0.03079008  0.07972760  1  -1.166438  0  -0.316708  -0.543774  0  2.338269  0
O  O212  1  0.32489547  0.56458247  0.38841939  1  -0.445768  0  -0.144434  -0.339971  0  1.862337  0
O  O213  1  0.25620004  0.54891982  0.44699811  1  -0.418257  0  -0.123969  -0.311985  0  1.921854  0
O  O214  1  0.75665647  0.52268902  0.69625716  1  -0.436945  0  -0.135439  -0.32957  0  1.86079  0
O  O215  1  0.84037931  0.55827086  0.65513386  1  -0.433289  0  -0.123648  -0.308623  0  1.88661  0
O  O216  1  0.04761292  0.26112077  0.69276348  1  -0.459188  0  -0.13965  -0.333815  0  1.85765  0
O  O217  1  0.97034367  0.33874814  0.64744570  1  -0.41723  0  -0.120331  -0.302877  0  1.894046  0
O  O218  1  0.72645908  0.81426255  0.37909369  1  -0.452963  0  -0.146449  -0.343434  0  1.860096  0
O  O219  1  0.75602923  0.75304327  0.44041309  1  -0.423951  0  -0.128471  -0.31531  0  1.894497  0
O  O220  1  0.74011894  0.49014321  0.05665355  1  -0.445221  0  -0.142074  -0.336405  0  1.861715  0
O  O221  1  0.70529509  0.40557254  0.09731743  1  -0.427803  0  -0.125542  -0.314282  0  1.918762  0
O  O222  1  0.16779017  0.07959828  0.22799712  1  -0.450584  0  -0.144108  -0.34044  0  1.861811  0
O  O223  1  0.06289403  0.06055397  0.24550258  1  -0.42736  0  -0.129592  -0.315583  0  1.888977  0
O  O224  1  0.53189994  0.42052200  0.85849735  1  -0.446696  0  -0.141839  -0.336929  0  1.862083  0
O  O225  1  0.45226224  0.54270315  0.85693606  1  -0.414271  0  -0.126639  -0.31049  0  1.886051  0
O  O226  1  0.91182796  0.69857412  0.84379545  1  -0.450716  0  -0.138345  -0.332623  0  1.859678  0
O  O227  1  0.03398559  0.66487219  0.84669691  1  -0.407603  0  -0.127341  -0.313715  0  1.89256  0
