# generated using pymatgen
data_H10Pd(C6S)2
_symmetry_space_group_name_H-M   'P 1'
_cell_length_a   6.69987831
_cell_length_b   14.35288628
_cell_length_c   12.98043176
_cell_angle_alpha   90.00243576
_cell_angle_beta   89.99962346
_cell_angle_gamma   89.99827577
_symmetry_Int_Tables_number   1
_chemical_formula_structural   H10Pd(C6S)2
_chemical_formula_sum   'H40 Pd4 C48 S8'
_cell_volume   1248.23195424
_cell_formula_units_Z   4
loop_
 _symmetry_equiv_pos_site_id
 _symmetry_equiv_pos_as_xyz
  1  'x, y, z'
loop_
 _atom_site_type_symbol
 _atom_site_label
 _atom_site_symmetry_multiplicity
 _atom_site_fract_x
 _atom_site_fract_y
 _atom_site_fract_z
 _atom_site_occupancy
 _atom_site_hle17_bader_spin_density
 _atom_site_hle17_ddec_charge
 _atom_site_hle17_ddec_spin_density
 _atom_site_hle17_ddec_sum_bond_order
 _atom_site_hle17_magmom
 _atom_site_hse06_10hf_bader_spin_density
 _atom_site_hse06_10hf_ddec_charge
 _atom_site_hse06_10hf_ddec_spin_density
 _atom_site_hse06_10hf_ddec_sum_bond_order
 _atom_site_hse06_10hf_magmom
 _atom_site_hse06_bader_spin_density
 _atom_site_hse06_ddec_charge
 _atom_site_hse06_ddec_spin_density
 _atom_site_hse06_ddec_sum_bond_order
 _atom_site_hse06_magmom
 _atom_site_pbe_bader_spin_density
 _atom_site_pbe_cm5_charge
 _atom_site_pbe_ddec_charge
 _atom_site_pbe_ddec_spin_density
 _atom_site_pbe_ddec_sum_bond_order
 _atom_site_pbe_magmom
H  H0  1  0.34616616  0.88037810  0.17676703  1  0  0.087496  0  0.963598  0  0  0.093958  0  1.033673  0  0  0.097915  0  1.029962  0  0  0.086331  0.091009  0  1.036497  0
H  H1  1  0.34621881  0.11963703  0.17677507  1  0  0.087468  0  0.963837  0  0  0.094008  0  1.033808  0  0  0.097965  0  1.030098  0  0  0.086369  0.091059  0  1.036632  0
H  H2  1  0.84616871  0.88038300  0.82323394  1  0  0.08748  0  0.963761  0  0  0.093977  0  1.033779  0  0  0.097934  0  1.030067  0  0  0.086333  0.091036  0  1.036592  0
H  H3  1  0.84616912  0.11962173  0.82322040  1  0  0.087401  0  0.963753  0  0  0.093926  0  1.033761  0  0  0.097883  0  1.030051  0  0  0.086341  0.090988  0  1.036571  0
H  H4  1  0.34920370  0.74446754  0.29590027  1  0  0.090001  0  0.971307  0  0  0.100124  0  1.033858  0  0  0.101786  0  1.035143  0  0  0.094067  0.098903  0  1.033089  0
H  H5  1  0.34925407  0.25554915  0.29590968  1  0  0.09004  0  0.971284  0  0  0.100198  0  1.033762  0  0  0.101859  0  1.035049  0  0  0.094135  0.098978  0  1.032992  0
H  H6  1  0.84917833  0.74447642  0.70409158  1  0  0.090124  0  0.971392  0  0  0.100105  0  1.034077  0  0  0.101766  0  1.035363  0  0  0.09409  0.098879  0  1.033306  0
H  H7  1  0.84914512  0.25552389  0.70408481  1  0  0.090191  0  0.971336  0  0  0.100193  0  1.03402  0  0  0.101856  0  1.035304  0  0  0.094112  0.098975  0  1.033251  0
H  H8  1  0.22994523  0.59040131  0.23634176  1  0  0.080373  0  0.971674  0  0  0.091393  0  1.0352  0  0  0.09391  0  1.034003  0  0  0.089212  0.089557  0  1.036133  0
H  H9  1  0.22990395  0.40961537  0.23638581  1  0  0.08025  0  0.971808  0  0  0.091379  0  1.035232  0  0  0.093836  0  1.034094  0  0  0.089161  0.089539  0  1.03617  0
H  H10  1  0.72985546  0.59040750  0.76362618  1  0  0.080317  0  0.971536  0  0  0.091367  0  1.035037  0  0  0.093866  0  1.033859  0  0  0.08923  0.089525  0  1.03598  0
H  H11  1  0.72986941  0.40959718  0.76363711  1  0  0.080325  0  0.971607  0  0  0.091387  0  1.03509  0  0  0.093881  0  1.033918  0  0  0.089261  0.089548  0  1.036029  0
H  H12  1  0.10304763  0.57199488  0.05569092  1  0  0.078998  0  0.971087  0  0  0.092495  0  1.027387  0  0  0.095025  0  1.026184  0  0  0.096174  0.090653  0  1.028309  0
H  H13  1  0.10298563  0.42801687  0.05574208  1  0  0.079001  0  0.971228  0  0  0.092445  0  1.027569  0  0  0.094974  0  1.026374  0  0  0.096143  0.090605  0  1.028488  0
H  H14  1  0.60297813  0.57200828  0.94428614  1  0  0.079041  0  0.97097  0  0  0.092558  0  1.027244  0  0  0.095096  0  1.02604  0  0  0.09616  0.09071  0  1.028172  0
H  H15  1  0.60301165  0.42801216  0.94429338  1  0  0.079044  0  0.971121  0  0  0.092536  0  1.027415  0  0  0.095064  0  1.026217  0  0  0.096208  0.090696  0  1.028334  0
H  H16  1  0.10783887  0.70594415  0.93590947  1  0  0.097691  0  0.963037  0  0  0.109511  0  1.022643  0  0  0.111533  0  1.023381  0  0  0.099185  0.10804  0  1.022238  0
H  H17  1  0.10776558  0.29406532  0.93596260  1  0  0.097657  0  0.963331  0  0  0.109429  0  1.022959  0  0  0.111447  0  1.023702  0  0  0.099178  0.107961  0  1.022553  0
H  H18  1  0.60780731  0.70595768  0.06407326  1  0  0.097705  0  0.963123  0  0  0.109384  0  1.022878  0  0  0.111404  0  1.02362  0  0  0.099107  0.107913  0  1.022483  0
H  H19  1  0.60782506  0.29406561  0.06407554  1  0  0.097751  0  0.963056  0  0  0.109468  0  1.022758  0  0  0.111489  0  1.023498  0  0  0.099173  0.108001  0  1.022356  0
H  H20  1  0.84588578  0.38027242  0.32325768  1  0  0.0873  0  0.963628  0  0  0.093764  0  1.033721  0  0  0.097722  0  1.030001  0  0  0.086228  0.090842  0  1.036516  0
H  H21  1  0.84587421  0.61968281  0.32322067  1  0  0.087203  0  0.963716  0  0  0.093712  0  1.033737  0  0  0.09767  0  1.030019  0  0  0.08621  0.090782  0  1.036539  0
H  H22  1  0.34584614  0.38031145  0.67675675  1  0  0.087285  0  0.963397  0  0  0.093807  0  1.033449  0  0  0.097768  0  1.029725  0  0  0.08619  0.090876  0  1.036256  0
H  H23  1  0.34585845  0.61970441  0.67675517  1  0  0.08744  0  0.963583  0  0  0.093909  0  1.033654  0  0  0.097867  0  1.029931  0  0  0.086251  0.090985  0  1.036452  0
H  H24  1  0.84906407  0.24428084  0.20422318  1  0  0.090697  0  0.971115  0  0  0.100386  0  1.034093  0  0  0.102058  0  1.035395  0  0  0.094129  0.099167  0  1.03332  0
H  H25  1  0.84908901  0.75567624  0.20419834  1  0  0.090591  0  0.971153  0  0  0.100437  0  1.033886  0  0  0.10211  0  1.03518  0  0  0.09406  0.099216  0  1.033116  0
H  H26  1  0.34906727  0.24431937  0.79578906  1  0  0.09054  0  0.971193  0  0  0.100387  0  1.033925  0  0  0.102059  0  1.035221  0  0  0.094066  0.099163  0  1.033153  0
H  H27  1  0.34907878  0.75569805  0.79577808  1  0  0.090492  0  0.971131  0  0  0.100267  0  1.033979  0  0  0.101938  0  1.035278  0  0  0.094059  0.099044  0  1.033206  0
H  H28  1  0.73031583  0.09017917  0.26392187  1  0  0.080553  0  0.971172  0  0  0.091449  0  1.034808  0  0  0.093995  0  1.03358  0  0  0.089221  0.089612  0  1.035751  0
H  H29  1  0.73034764  0.90978924  0.26389469  1  0  0.080748  0  0.971348  0  0  0.09158  0  1.03501  0  0  0.094125  0  1.033793  0  0  0.089278  0.089741  0  1.035951  0
H  H30  1  0.23035060  0.09020785  0.73609341  1  0  0.080722  0  0.971378  0  0  0.091527  0  1.035071  0  0  0.094074  0  1.033844  0  0  0.089289  0.089686  0  1.036013  0
H  H31  1  0.23029733  0.90980259  0.73608241  1  0  0.080662  0  0.971295  0  0  0.091535  0  1.034915  0  0  0.094078  0  1.033689  0  0  0.089298  0.089697  0  1.035857  0
H  H32  1  0.60377732  0.07181060  0.44466117  1  0  0.07917  0  0.96971  0  0  0.092639  0  1.026216  0  0  0.095196  0  1.024981  0  0  0.096072  0.0908  0  1.027148  0
H  H33  1  0.60381079  0.92817843  0.44462414  1  0  0.079406  0  0.969588  0  0  0.092693  0  1.026259  0  0  0.095248  0  1.025033  0  0  0.09617  0.090851  0  1.0272  0
H  H34  1  0.10382464  0.07181118  0.55536091  1  0  0.079377  0  0.969654  0  0  0.092728  0  1.026254  0  0  0.095283  0  1.025028  0  0  0.096156  0.090889  0  1.02719  0
H  H35  1  0.10379394  0.92818040  0.55534238  1  0  0.079286  0  0.969613  0  0  0.092655  0  1.026202  0  0  0.095211  0  1.024977  0  0  0.096124  0.090819  0  1.02713  0
H  H36  1  0.60825745  0.20585618  0.56430025  1  0  0.097876  0  0.96304  0  0  0.109813  0  1.022485  0  0  0.11183  0  1.023224  0  0  0.099082  0.10834  0  1.022101  0
H  H37  1  0.60827815  0.79413786  0.56425594  1  0  0.097747  0  0.963299  0  0  0.109558  0  1.022884  0  0  0.111578  0  1.023621  0  0  0.099107  0.108082  0  1.022499  0
H  H38  1  0.10829476  0.20584751  0.43572444  1  0  0.097759  0  0.963103  0  0  0.109623  0  1.02265  0  0  0.111643  0  1.023384  0  0  0.099098  0.108148  0  1.022268  0
H  H39  1  0.10825277  0.79412919  0.43572558  1  0  0.0978  0  0.963231  0  0  0.109662  0  1.022783  0  0  0.11168  0  1.02352  0  0  0.099086  0.10819  0  1.022401  0
Pd  Pd40  1  0.98588677  0.00000784  0.99846141  1  0  0.128179  0  2.828161  0  0  0.120458  0  3.393346  0  0  0.134588  0  3.358565  0  0  0.486872  0.113622  0  3.416896  0
Pd  Pd41  1  0.48589242  0.00000600  0.00154160  1  0  0.12824  0  2.828139  0  0  0.120526  0  3.393332  0  0  0.134652  0  3.358546  0  0  0.486905  0.113687  0  3.416883  0
Pd  Pd42  1  0.98600679  0.49999368  0.49836537  1  0  0.128267  0  2.828071  0  0  0.120482  0  3.393485  0  0  0.134607  0  3.358688  0  0  0.486775  0.113645  0  3.417018  0
Pd  Pd43  1  0.48601118  0.49999326  0.50161877  1  0  0.128293  0  2.828111  0  0  0.120504  0  3.393551  0  0  0.134634  0  3.358749  0  0  0.486773  0.113665  0  3.417098  0
C  C44  1  0.22792965  0.80164280  0.04878444  1  0  0.063643  0  3.767495  0  0  0.090256  0  4.008394  0  0  0.090995  0  4.033619  0  0  -0.024068  0.089692  0  3.991313  0
C  C45  1  0.22792292  0.19837459  0.04880771  1  0  0.064101  0  3.766904  0  0  0.090463  0  4.008158  0  0  0.091201  0  4.033386  0  0  -0.023996  0.089899  0  3.99108  0
C  C46  1  0.72793344  0.80165040  0.95120893  1  0  0.063606  0  3.767417  0  0  0.090297  0  4.008239  0  0  0.091038  0  4.033457  0  0  -0.024048  0.089731  0  3.991163  0
C  C47  1  0.72793566  0.19836338  0.95121140  1  0  0.063539  0  3.767463  0  0  0.090138  0  4.00841  0  0  0.090876  0  4.033631  0  0  -0.024161  0.089573  0  3.991332  0
C  C48  1  0.29357482  0.81252630  0.15075363  1  0  -0.111408  0  3.755797  0  0  -0.13016  0  3.999813  0  0  -0.133383  0  4.021663  0  0  -0.099179  -0.127822  0  3.984907  0
C  C49  1  0.29361664  0.18747711  0.15077005  1  0  -0.111523  0  3.755881  0  0  -0.130322  0  4.000045  0  0  -0.133526  0  4.021853  0  0  -0.099272  -0.127987  0  3.985148  0
C  C50  1  0.79358390  0.81254497  0.84924423  1  0  -0.111517  0  3.756002  0  0  -0.130338  0  4.000035  0  0  -0.133559  0  4.021879  0  0  -0.099323  -0.128006  0  3.98513  0
C  C51  1  0.79357795  0.18747278  0.84923830  1  0  -0.111335  0  3.755688  0  0  -0.130145  0  3.999735  0  0  -0.133368  0  4.021588  0  0  -0.099168  -0.127817  0  3.984823  0
C  C52  1  0.29564845  0.73625899  0.21714149  1  0  -0.064809  0  3.774287  0  0  -0.075848  0  4.018823  0  0  -0.07806  0  4.042734  0  0  -0.093387  -0.074176  0  4.002379  0
C  C53  1  0.29568778  0.26374566  0.21714970  1  0  -0.064894  0  3.774651  0  0  -0.07592  0  4.019161  0  0  -0.078129  0  4.043065  0  0  -0.093554  -0.074248  0  4.002715  0
C  C54  1  0.79563074  0.73628196  0.78285608  1  0  -0.06466  0  3.77434  0  0  -0.075614  0  4.01889  0  0  -0.077822  0  4.042799  0  0  -0.093305  -0.073938  0  4.002439  0
C  C55  1  0.79563126  0.26373659  0.78284965  1  0  -0.064943  0  3.774595  0  0  -0.075911  0  4.019113  0  0  -0.078123  0  4.043016  0  0  -0.093474  -0.074242  0  4.002673  0
C  C56  1  0.22903806  0.64919316  0.18317338  1  0  -0.074314  0  3.779114  0  0  -0.087007  0  4.022156  0  0  -0.089251  0  4.044844  0  0  -0.095839  -0.085337  0  4.006557  0
C  C57  1  0.22903981  0.35081276  0.18320411  1  0  -0.074269  0  3.779004  0  0  -0.087038  0  4.022027  0  0  -0.089226  0  4.044746  0  0  -0.095691  -0.085365  0  4.006423  0
C  C58  1  0.72900316  0.64920943  0.81681406  1  0  -0.074517  0  3.779013  0  0  -0.087188  0  4.022026  0  0  -0.08941  0  4.044722  0  0  -0.095863  -0.085517  0  4.006414  0
C  C59  1  0.72901684  0.35080464  0.81681243  1  0  -0.074312  0  3.779262  0  0  -0.087036  0  4.022299  0  0  -0.08926  0  4.044995  0  0  -0.095855  -0.085367  0  4.006696  0
C  C60  1  0.15898384  0.63897712  0.08258942  1  0  -0.074796  0  3.79371  0  0  -0.084305  0  4.036244  0  0  -0.086963  0  4.058838  0  0  -0.095151  -0.082412  0  4.020736  0
C  C61  1  0.15895053  0.36103790  0.08261536  1  0  -0.074673  0  3.794309  0  0  -0.084194  0  4.036834  0  0  -0.08685  0  4.059408  0  0  -0.095091  -0.082305  0  4.021329  0
C  C62  1  0.65894512  0.63898794  0.91740291  1  0  -0.074721  0  3.794039  0  0  -0.08426  0  4.036497  0  0  -0.086926  0  4.0591  0  0  -0.095082  -0.082366  0  4.020985  0
C  C63  1  0.65896852  0.36103130  0.91739881  1  0  -0.074853  0  3.794005  0  0  -0.084362  0  4.036514  0  0  -0.08702  0  4.059103  0  0  -0.095184  -0.082473  0  4.021008  0
C  C64  1  0.15959087  0.71450104  0.01492033  1  0  -0.102995  0  3.739411  0  0  -0.121875  0  3.980373  0  0  -0.124543  0  4.003378  0  0  -0.0938  -0.119902  0  3.964858  0
C  C65  1  0.15956446  0.28551067  0.01495381  1  0  -0.1032  0  3.740831  0  0  -0.121884  0  3.981746  0  0  -0.124556  0  4.004766  0  0  -0.09389  -0.119911  0  3.966228  0
C  C66  1  0.65958493  0.71450890  0.98507061  1  0  -0.102931  0  3.739903  0  0  -0.121731  0  3.980881  0  0  -0.124397  0  4.003883  0  0  -0.093787  -0.119765  0  3.965375  0
C  C67  1  0.65959733  0.28550459  0.98507328  1  0  -0.102995  0  3.739971  0  0  -0.121769  0  3.980876  0  0  -0.12443  0  4.00387  0  0  -0.093784  -0.119804  0  3.965376  0
C  C68  1  0.72800424  0.30156560  0.45132127  1  0  0.064129  0  3.767401  0  0  0.090974  0  4.008176  0  0  0.091719  0  4.033384  0  0  -0.023691  0.090406  0  3.9911  0
C  C69  1  0.72800942  0.69841191  0.45127484  1  0  0.063614  0  3.768309  0  0  0.090395  0  4.009099  0  0  0.091141  0  4.034309  0  0  -0.023976  0.08983  0  3.992017  0
C  C70  1  0.22799172  0.30156988  0.54870405  1  0  0.063712  0  3.767633  0  0  0.090614  0  4.008252  0  0  0.091358  0  4.033468  0  0  -0.023712  0.09005  0  3.991169  0
C  C71  1  0.22799242  0.69841689  0.54869844  1  0  0.063709  0  3.767734  0  0  0.090727  0  4.008183  0  0  0.09147  0  4.033396  0  0  -0.0238  0.090161  0  3.991104  0
C  C72  1  0.79342634  0.31243161  0.34931497  1  0  -0.111297  0  3.756029  0  0  -0.130072  0  3.999812  0  0  -0.133306  0  4.021686  0  0  -0.099323  -0.127756  0  3.984906  0
C  C73  1  0.79343080  0.68753177  0.34927324  1  0  -0.110901  0  3.756246  0  0  -0.129689  0  3.999948  0  0  -0.132923  0  4.021821  0  0  -0.099064  -0.127369  0  3.985035  0
C  C74  1  0.29340107  0.31245826  0.65071023  1  0  -0.111193  0  3.755759  0  0  -0.130028  0  3.999463  0  0  -0.133262  0  4.021331  0  0  -0.099162  -0.127706  0  3.984552  0
C  C75  1  0.29342494  0.68753961  0.65070778  1  0  -0.111401  0  3.756028  0  0  -0.13025  0  3.999749  0  0  -0.133486  0  4.02162  0  0  -0.099276  -0.127931  0  3.984839  0
C  C76  1  0.79555527  0.23615327  0.28297844  1  0  -0.065104  0  3.774274  0  0  -0.075844  0  4.018862  0  0  -0.078087  0  4.042812  0  0  -0.093306  -0.074174  0  4.002429  0
C  C77  1  0.79556620  0.76381996  0.28295161  1  0  -0.065162  0  3.774576  0  0  -0.075934  0  4.018927  0  0  -0.078171  0  4.042862  0  0  -0.093395  -0.074261  0  4.002493  0
C  C78  1  0.29553142  0.23617562  0.71703722  1  0  -0.064878  0  3.774485  0  0  -0.075691  0  4.018928  0  0  -0.077925  0  4.042861  0  0  -0.093345  -0.074019  0  4.002488  0
C  C79  1  0.29555429  0.76383186  0.71702272  1  0  -0.064754  0  3.774355  0  0  -0.075492  0  4.018794  0  0  -0.077731  0  4.042735  0  0  -0.093243  -0.073822  0  4.002356  0
C  C80  1  0.72932920  0.14904868  0.31700882  1  0  -0.074369  0  3.777733  0  0  -0.086901  0  4.020578  0  0  -0.089171  0  4.043267  0  0  -0.09553  -0.085233  0  4.004987  0
C  C81  1  0.72936075  0.85093051  0.31697833  1  0  -0.074851  0  3.778383  0  0  -0.087378  0  4.021208  0  0  -0.089653  0  4.04388  0  0  -0.095653  -0.085704  0  4.005623  0
C  C82  1  0.22931656  0.14906659  0.68301132  1  0  -0.074699  0  3.778595  0  0  -0.087163  0  4.021374  0  0  -0.089434  0  4.044047  0  0  -0.09564  -0.085489  0  4.005785  0
C  C83  1  0.22932572  0.85094075  0.68300086  1  0  -0.074695  0  3.778019  0  0  -0.087215  0  4.020842  0  0  -0.089484  0  4.043524  0  0  -0.095685  -0.085547  0  4.005251  0
C  C84  1  0.65950250  0.13882650  0.41765622  1  0  -0.075506  0  3.792243  0  0  -0.084944  0  4.035001  0  0  -0.087631  0  4.057614  0  0  -0.095371  -0.083053  0  4.019504  0
C  C85  1  0.65952586  0.86116275  0.41761787  1  0  -0.075245  0  3.791979  0  0  -0.084554  0  4.03461  0  0  -0.087241  0  4.057223  0  0  -0.095298  -0.082665  0  4.019119  0
C  C86  1  0.15949219  0.13882687  0.58237574  1  0  -0.075654  0  3.792249  0  0  -0.085028  0  4.034943  0  0  -0.087714  0  4.057553  0  0  -0.095415  -0.083142  0  4.019459  0
C  C87  1  0.15949465  0.86116381  0.58235587  1  0  -0.075435  0  3.792189  0  0  -0.084807  0  4.034913  0  0  -0.087495  0  4.057528  0  0  -0.095336  -0.082922  0  4.019424  0
C  C88  1  0.65997814  0.21440598  0.48527078  1  0  -0.103204  0  3.740475  0  0  -0.122374  0  3.981627  0  0  -0.12504  0  4.004661  0  0  -0.093831  -0.120402  0  3.966101  0
C  C89  1  0.65998751  0.78558169  0.48522608  1  0  -0.103035  0  3.740628  0  0  -0.122051  0  3.981649  0  0  -0.124707  0  4.00466  0  0  -0.093777  -0.120076  0  3.966114  0
C  C90  1  0.15997086  0.21440512  0.51475674  1  0  -0.102856  0  3.740224  0  0  -0.121954  0  3.981275  0  0  -0.124605  0  4.004279  0  0  -0.093864  -0.119988  0  3.965755  0
C  C91  1  0.15995784  0.78558014  0.51474671  1  0  -0.102929  0  3.740911  0  0  -0.122081  0  3.981924  0  0  -0.124738  0  4.004939  0  0  -0.093804  -0.120114  0  3.966403  0
S  S92  1  0.23672577  0.89329138  0.95705080  1  0  -0.134185  0  2.751933  0  0  -0.138914  0  3.220124  0  0  -0.146399  0  3.20803  0  0  -0.207038  -0.135147  0  3.22854  0
S  S93  1  0.23671815  0.10671648  0.95705940  1  0  -0.134294  0  2.751526  0  0  -0.138948  0  3.219815  0  0  -0.146435  0  3.207722  0  0  -0.207051  -0.135178  0  3.228228  0
S  S94  1  0.73672808  0.89330003  0.04295559  1  0  -0.13417  0  2.751857  0  0  -0.138946  0  3.220062  0  0  -0.146424  0  3.207955  0  0  -0.207045  -0.135184  0  3.228487  0
S  S95  1  0.73670852  0.10672096  0.04295726  1  0  -0.13408  0  2.751767  0  0  -0.138785  0  3.219925  0  0  -0.146271  0  3.207832  0  0  -0.206976  -0.135024  0  3.22835  0
S  S96  1  0.73687970  0.39328006  0.54296534  1  0  -0.134184  0  2.751959  0  0  -0.138999  0  3.220164  0  0  -0.146478  0  3.208055  0  0  -0.206959  -0.135232  0  3.228571  0
S  S97  1  0.73687354  0.60671100  0.54293890  1  0  -0.134091  0  2.752069  0  0  -0.138899  0  3.220308  0  0  -0.146378  0  3.208186  0  0  -0.206994  -0.135133  0  3.228717  0
S  S98  1  0.23688463  0.39327765  0.45703988  1  0  -0.134067  0  2.751879  0  0  -0.138926  0  3.220096  0  0  -0.146403  0  3.207972  0  0  -0.206974  -0.135161  0  3.228511  0
S  S99  1  0.23687996  0.60670440  0.45703424  1  0  -0.134134  0  2.751805  0  0  -0.139034  0  3.220004  0  0  -0.146508  0  3.207883  0  0  -0.206985  -0.135273  0  3.228424  0
