# generated using pymatgen
data_ZnH11C10NO7
_symmetry_space_group_name_H-M   'P 1'
_cell_length_a   6.81752275
_cell_length_b   9.69228596
_cell_length_c   10.39831999
_cell_angle_alpha   110.70518496
_cell_angle_beta   90.00048737
_cell_angle_gamma   89.99993415
_symmetry_Int_Tables_number   1
_chemical_formula_structural   ZnH11C10NO7
_chemical_formula_sum   'Zn2 H22 C20 N2 O14'
_cell_volume   642.71575767
_cell_formula_units_Z   2
loop_
 _symmetry_equiv_pos_site_id
 _symmetry_equiv_pos_as_xyz
  1  'x, y, z'
loop_
 _atom_site_type_symbol
 _atom_site_label
 _atom_site_symmetry_multiplicity
 _atom_site_fract_x
 _atom_site_fract_y
 _atom_site_fract_z
 _atom_site_occupancy
 _atom_site_pbe_bader_charge
 _atom_site_pbe_bader_spin_density
 _atom_site_pbe_cm5_charge
 _atom_site_pbe_ddec_charge
 _atom_site_pbe_ddec_spin_density
 _atom_site_pbe_ddec_sum_bond_order
 _atom_site_pbe_magmom
Zn  Zn0  1  0.74999587  0.57215426  0.64145817  1  1.3192  0  0.686375  0.990946  0  2.215075  0
Zn  Zn1  1  0.25000175  0.42784652  0.35854220  1  1.319175  0  0.686386  0.990972  0  2.215088  0
H  H2  1  0.74999901  0.82849031  0.01915202  1  0.47824  0  0.334397  0.298133  0  0.902519  0
H  H3  1  0.24999715  0.17150925  0.98084510  1  0.478248  0  0.334415  0.298125  0  0.902544  0
H  H4  1  0.75000016  0.72035350  0.18483181  1  0.136436  0  0.119299  0.135146  0  0.97567  0
H  H5  1  0.24999012  0.27964728  0.81516856  1  0.136407  0  0.119298  0.135156  0  0.975739  0
H  H6  1  0.74999703  0.19608199  0.30439940  1  0.142691  0  0.106171  0.111699  0  1.082889  0
H  H7  1  0.25001965  0.80391328  0.69559932  1  0.142659  0  0.106164  0.111686  0  1.082878  0
H  H8  1  0.74999966  0.99901313  0.61179150  1  0.093893  0  0.107896  0.114356  0  1.028515  0
H  H9  1  0.24999649  0.00098320  0.38820658  1  0.093909  0  0.107901  0.114378  0  1.02851  0
H  H10  1  0.07278425  0.52762249  0.73544323  1  0.652259  0  0.301163  0.404742  0  0.927715  0
H  H11  1  0.57278991  0.47237582  0.26455635  1  0.652202  0  0.30116  0.404733  0  0.927721  0
H  H12  1  0.92721924  0.47237916  0.26455163  1  0.652222  0  0.301147  0.404737  0  0.927741  0
H  H13  1  0.42721211  0.52762185  0.73544791  1  0.652251  0  0.301155  0.404734  0  0.92773  0
H  H14  1  0.05731707  0.69959144  0.81224548  1  0.640866  0  0.302433  0.396841  0  0.928922  0
H  H15  1  0.55731770  0.30040901  0.18775368  1  0.640869  0  0.302409  0.396848  0  0.928915  0
H  H16  1  0.94268642  0.30041462  0.18775069  1  0.640753  0  0.302452  0.396862  0  0.928888  0
H  H17  1  0.44268725  0.69958544  0.81225154  1  0.640762  0  0.302455  0.39689  0  0.928842  0
H  H18  1  0.74999819  0.86582792  0.82164567  1  0.012671  0  0.097029  0.147127  0  1.034193  0
H  H19  1  0.24996423  0.13417605  0.17835276  1  0.012644  0  0.097095  0.147161  0  1.03414  0
H  H20  1  0.87833163  0.03089138  0.83523670  1  0.106741  0  0.107868  0.169868  0  1.005396  0
H  H21  1  0.37832373  0.96912514  0.16477103  1  0.106404  0  0.10789  0.169911  0  1.005366  0
H  H22  1  0.12168065  0.96909413  0.16476297  1  0.1068  0  0.107877  0.169864  0  1.005427  0
H  H23  1  0.62168709  0.03089977  0.83523365  1  0.106845  0  0.107889  0.169885  0  1.005419  0
C  C24  1  0.75000015  0.26446944  0.57461922  1  1.572686  0  0.195162  0.566247  0  4.223755  0
C  C25  1  0.25000187  0.73553220  0.42537563  1  1.572977  0  0.195195  0.5663  0  4.22392  0
C  C26  1  0.75000255  0.11158885  0.46697873  1  -0.004187  0  -0.015858  -0.011295  0  3.972083  0
C  C27  1  0.25000387  0.88841083  0.53302132  1  -0.004087  0  -0.015909  -0.011405  0  3.972193  0
C  C28  1  0.75000178  0.71093234  0.43858527  1  1.556153  0  0.228923  0.610393  0  4.152988  0
C  C29  1  0.24999731  0.28906624  0.56141444  1  1.556115  0  0.228988  0.610517  0  4.152943  0
C  C30  1  0.74999994  0.84641494  0.40142189  1  0.016151  0  -0.015431  -0.029738  0  3.983723  0
C  C31  1  0.24999181  0.15358588  0.59857945  1  0.016055  0  -0.015442  -0.029704  0  3.983642  0
C  C32  1  0.75000788  0.83093124  0.26257607  1  0.011798  0  -0.069045  -0.159568  0  3.888728  0
C  C33  1  0.24999854  0.16907178  0.73742594  1  0.011754  0  -0.069098  -0.159713  0  3.888801  0
C  C34  1  0.74999726  0.95656859  0.22583913  1  0.238761  0  0.091697  0.218121  0  4.045752  0
C  C35  1  0.25000623  0.04343333  0.77416254  1  0.238812  0  0.091737  0.218211  0  4.045652  0
C  C36  1  0.74999981  0.03990517  0.02422246  1  1.317916  0  0.245406  0.582026  0  4.067782  0
C  C37  1  0.24999781  0.96009226  0.97577595  1  1.317258  0  0.24543  0.582034  0  4.067575  0
C  C38  1  0.74999729  0.09665293  0.32864369  1  0.00535  0  -0.086537  -0.175262  0  3.915987  0
C  C39  1  0.25000767  0.90334786  0.67135668  1  0.005382  0  -0.086547  -0.175236  0  3.915891  0
C  C40  1  0.75000046  0.98668601  0.50383827  1  -0.008458  0  -0.068621  -0.097767  0  3.920502  0
C  C41  1  0.24999863  0.01331485  0.49616405  1  -0.008455  0  -0.068581  -0.09774  0  3.920417  0
C  C42  1  0.75000571  0.98579543  0.87036533  1  -0.029143  0  -0.242984  -0.530175  0  3.889443  0
C  C43  1  0.24999044  0.01420755  0.12963570  1  -0.028754  0  -0.243036  -0.530187  0  3.889359  0
N  N44  1  0.74999638  0.93571058  0.08389665  1  -1.280828  0  -0.388085  -0.376324  0  3.555847  0
N  N45  1  0.25000271  0.06429130  0.91610405  1  -1.280188  0  -0.388103  -0.376343  0  3.555779  0
O  O46  1  0.74999678  0.36953930  0.52205462  1  -1.155742  0  -0.350119  -0.611129  0  2.354964  0
O  O47  1  0.24999938  0.63046345  0.47794056  1  -1.15595  0  -0.350118  -0.611146  0  2.355022  0
O  O48  1  0.74999652  0.28318460  0.69887515  1  -1.163448  0  -0.326624  -0.525554  0  2.059367  0
O  O49  1  0.25000844  0.71680736  0.30112259  1  -1.16356  0  -0.326642  -0.525576  0  2.05959  0
O  O50  1  0.75000424  0.58506833  0.34374799  1  -1.228583  0  -0.313574  -0.585941  0  2.284793  0
O  O51  1  0.24999485  0.41492592  0.65625236  1  -1.228543  0  -0.313584  -0.585975  0  2.284876  0
O  O52  1  0.75000011  0.17592083  0.09211966  1  -1.192256  0  -0.298636  -0.530462  0  2.197398  0
O  O53  1  0.25000338  0.82408007  0.90788363  1  -1.192272  0  -0.298695  -0.530484  0  2.197346  0
O  O54  1  0.74999818  0.73195885  0.56766188  1  -1.150629  0  -0.313086  -0.561902  0  2.364288  0
O  O55  1  0.24999504  0.26803964  0.43233589  1  -1.150631  0  -0.313115  -0.561975  0  2.364238  0
O  O56  1  0.97644111  0.60969016  0.77611261  1  -1.244233  0  -0.573341  -0.761002  0  2.117375  0
O  O57  1  0.47644242  0.39030991  0.22388885  1  -1.244184  0  -0.573335  -0.761013  0  2.117367  0
O  O58  1  0.02356678  0.39031377  0.22388485  1  -1.244071  0  -0.573362  -0.761016  0  2.117324  0
O  O59  1  0.52356253  0.60968445  0.77611441  1  -1.244114  0  -0.573353  -0.761019  0  2.117319  0
