# generated using pymatgen
data_CoH20C22Se2(N3O)2
_symmetry_space_group_name_H-M   'P 1'
_cell_length_a   7.31561624
_cell_length_b   8.91990784
_cell_length_c   10.09073628
_cell_angle_alpha   110.17857579
_cell_angle_beta   102.51069179
_cell_angle_gamma   98.38164331
_symmetry_Int_Tables_number   1
_chemical_formula_structural   CoH20C22Se2(N3O)2
_chemical_formula_sum   'Co1 H20 C22 Se2 N6 O2'
_cell_volume   585.64889856
_cell_formula_units_Z   1
loop_
 _symmetry_equiv_pos_site_id
 _symmetry_equiv_pos_as_xyz
  1  'x, y, z'
loop_
 _atom_site_type_symbol
 _atom_site_label
 _atom_site_symmetry_multiplicity
 _atom_site_fract_x
 _atom_site_fract_y
 _atom_site_fract_z
 _atom_site_occupancy
 _atom_site_hle17_ddec_charge
 _atom_site_hle17_ddec_spin_density
 _atom_site_hle17_ddec_sum_bond_order
 _atom_site_hle17_magmom
 _atom_site_hse06_10hf_ddec_charge
 _atom_site_hse06_10hf_ddec_spin_density
 _atom_site_hse06_10hf_ddec_sum_bond_order
 _atom_site_hse06_10hf_magmom
 _atom_site_hse06_ddec_charge
 _atom_site_hse06_ddec_spin_density
 _atom_site_hse06_ddec_sum_bond_order
 _atom_site_hse06_magmom
 _atom_site_pbe_cm5_charge
 _atom_site_pbe_ddec_charge
 _atom_site_pbe_ddec_spin_density
 _atom_site_pbe_ddec_sum_bond_order
 _atom_site_pbe_magmom
Co  Co0  1  0.50000577  0.49999947  0.49999797  1  0.77625  1.134645  2.666858  1.025  0.772844  1.033248  3.093546  0.959  0.819015  1.02801  3.031252  0.963  0.738588  0.751227  1.034453  3.127991  0.948
H  H1  1  0.62292620  0.55763134  0.81126697  1  0.087676  -0.000141  0.952271  0.0  0.0956  -0.000204  1.015519  0.0  0.097112  -0.000172  1.013455  0.0  0.120955  0.094136  -0.000234  1.017721  0.0
H  H2  1  0.37707228  0.44236626  0.18873233  1  0.087638  -0.000142  0.95234  0.0  0.095614  -0.000204  1.015523  0.0  0.09713  -0.000172  1.013457  0.0  0.120949  0.094149  -0.000234  1.017727  0.0
H  H3  1  0.83833180  0.77301834  0.03961107  1  0.099069  -0.000219  0.996772  0.0  0.106089  -6e-05  1.065464  0.0  0.109315  -5.5e-05  1.06448  0.0  0.093029  0.10374  -9.3e-05  1.066244  0.0
H  H4  1  0.16165601  0.22698156  0.96039010  1  0.099092  -0.000219  0.996662  0.0  0.106113  -6e-05  1.065366  0.0  0.109339  -5.5e-05  1.06438  0.0  0.093068  0.103763  -9.4e-05  1.066153  0.0
H  H5  1  0.98573524  0.04220339  0.77602522  1  0.098551  -0.000301  0.986479  0.0  0.104778  -7.4e-05  1.056479  0.0  0.108205  -6.9e-05  1.055086  0.0  0.097597  0.102192  -0.000112  1.057878  0.0
H  H6  1  0.01426913  0.95779558  0.22397844  1  0.09852  -0.000301  0.986502  0.0  0.104742  -7.4e-05  1.056506  0.0  0.108172  -6.9e-05  1.055107  0.0  0.097576  0.10215  -0.000112  1.057913  0.0
H  H7  1  0.76162205  0.81450148  0.56013678  1  0.094113  -0.000134  0.935841  0.0  0.104463  -0.0002  0.991958  0.0  0.105742  -0.000157  0.990536  0.0  0.12551  0.10297  -0.000201  0.993974  0.0
H  H8  1  0.23838659  0.18549751  0.43986463  1  0.094098  -0.000134  0.935879  0.0  0.104433  -0.0002  0.992033  0.0  0.10571  -0.000157  0.990609  0.0  0.125493  0.102939  -0.000201  0.994047  0.0
H  H9  1  0.77160268  0.34601416  0.59368767  1  0.360654  -0.000612  0.942661  -0.001  0.335259  -3.7e-05  1.018721  0.0  0.344543  -0.000147  1.005402  0.0  0.25771  0.328578  9.2e-05  1.028344  0.0
H  H10  1  0.22840000  0.65398352  0.40631335  1  0.36069  -0.00061  0.942579  -0.001  0.335293  -3.7e-05  1.018663  0.0  0.344575  -0.000147  1.005346  0.0  0.257727  0.328612  9.2e-05  1.028286  0.0
H  H11  1  0.58582120  0.26727238  0.62264401  1  0.36098  -0.000119  0.962722  0.0  0.321428  0.000269  1.053328  0.001  0.332064  0.000119  1.038542  0.0  0.270451  0.314344  0.000418  1.063059  0.001
H  H12  1  0.41417715  0.73273011  0.37735670  1  0.361014  -0.000118  0.962661  0.0  0.321456  0.000269  1.053286  0.001  0.33209  0.000119  1.038503  0.0  0.270453  0.314372  0.000417  1.063018  0.001
H  H13  1  0.65192477  0.02575578  0.41626676  1  0.079464  0.000175  0.943843  0.0  0.089352  0.000255  1.004786  0.0  0.092844  0.00017  1.001327  0.0  0.112344  0.086702  0.000349  1.0071  0.0
H  H14  1  0.34807679  0.97424315  0.58373642  1  0.079464  0.000175  0.943892  0.0  0.089361  0.000255  1.004817  0.0  0.092858  0.00017  1.001354  0.0  0.112363  0.086723  0.000349  1.00712  0.0
H  H15  1  0.68378875  0.16618262  0.24999398  1  0.116763  -7e-06  0.944234  0.0  0.128287  -1.1e-05  0.999973  0.0  0.13103  -1.4e-05  0.999586  0.0  0.111024  0.126135  -1.7e-05  1.0006  0.0
H  H16  1  0.31621140  0.83381628  0.75000896  1  0.116768  -7e-06  0.944178  0.0  0.128273  -1.1e-05  0.999955  0.0  0.131016  -1.4e-05  0.999568  0.0  0.111007  0.126124  -1.7e-05  1.000579  0.0
H  H17  1  0.28983057  0.73120158  0.89502926  1  0.098563  -8.3e-05  0.990526  0.0  0.104732  -6.1e-05  1.059663  0.0  0.107598  -4.8e-05  1.058971  0.0  0.097754  0.102799  -6.7e-05  1.059977  0.0
H  H18  1  0.71016536  0.26879725  0.10497295  1  0.098665  -8.1e-05  0.990497  0.0  0.104813  -6.1e-05  1.059644  0.0  0.107681  -4.8e-05  1.05895  0.0  0.097799  0.102882  -6.7e-05  1.059959  0.0
H  H19  1  0.27181077  0.61174533  0.07676022  1  0.062858  -4.6e-05  0.972578  0.0  0.06813  -6.9e-05  1.0467  0.0  0.070975  -5.1e-05  1.044223  0.0  0.097918  0.066094  -6.1e-05  1.048428  0.0
H  H20  1  0.72818374  0.38825349  0.92324274  1  0.062815  -4.6e-05  0.972613  0.0  0.068112  -6.9e-05  1.046704  0.0  0.070958  -5.1e-05  1.044225  0.0  0.097909  0.066077  -6.1e-05  1.048424  0.0
C  C21  1  0.70745638  0.66672901  0.80862461  1  0.117732  -0.013847  3.685656  -0.009  0.085728  -0.005758  3.946992  -0.003  0.096233  -0.004506  3.962017  -0.003  0.046127  0.077989  -0.007109  3.938817  -0.004
C  C22  1  0.29253963  0.33326973  0.19137263  1  0.117773  -0.013874  3.685745  -0.009  0.085714  -0.005757  3.947057  -0.003  0.09621  -0.004508  3.962088  -0.003  0.046154  0.077978  -0.00711  3.93888  -0.004
C  C23  1  0.82992627  0.79037448  0.93691729  1  -0.153152  0.001128  3.710121  0.003  -0.171798  -0.000406  3.95996  0.0  -0.179234  0.000298  3.978541  0.001  -0.085171  -0.167493  -0.001407  3.948805  0.0
C  C24  1  0.17006587  0.20962063  0.06308419  1  -0.153169  0.001143  3.710063  0.003  -0.171842  -0.000406  3.95997  0.0  -0.179277  0.000299  3.978554  0.001  -0.085253  -0.167539  -0.001407  3.948822  0.0
C  C25  1  0.93579627  0.93237404  0.93258753  1  0.092633  -0.014721  3.741743  -0.009  0.103743  -0.006276  3.97326  -0.004  0.10978  -0.004004  3.991559  -0.002  0.007909  0.098961  -0.009216  3.962126  -0.005
C  C26  1  0.06419683  0.06762476  0.06741518  1  0.092657  -0.014749  3.741738  -0.009  0.103774  -0.006276  3.973252  -0.004  0.10981  -0.004006  3.991553  -0.002  0.007907  0.098993  -0.009216  3.962115  -0.005
C  C27  1  0.91032705  0.93806637  0.79217018  1  -0.151138  0.001419  3.698989  0.003  -0.168845  -0.000229  3.946746  0.0  -0.176149  0.000388  3.965681  0.001  -0.081818  -0.164802  -0.001249  3.935926  0.0
C  C28  1  0.08967372  0.06193500  0.20783458  1  -0.150976  0.001435  3.698858  0.003  -0.168657  -0.000229  3.946591  0.0  -0.175958  0.000389  3.965527  0.001  -0.0817  -0.164614  -0.001249  3.935766  0.0
C  C29  1  0.78379195  0.81027083  0.66865536  1  0.132492  -0.013589  3.653297  -0.009  0.103929  -0.005621  3.90429  -0.003  0.113905  -0.004454  3.920422  -0.003  0.049718  0.096454  -0.006642  3.895664  -0.004
C  C30  1  0.21621590  0.18973062  0.33134763  1  0.132398  -0.013616  3.653392  -0.009  0.103784  -0.005622  3.904395  -0.003  0.113756  -0.004456  3.92053  -0.003  0.049643  0.096311  -0.006642  3.895762  -0.004
C  C31  1  0.77710846  0.56074880  0.32942206  1  0.216625  -0.026642  3.83581  -0.018  0.21283  -0.010935  4.149255  -0.007  0.237384  -0.01004  4.156453  -0.007  0.10187  0.196636  -0.011192  4.144094  -0.007
C  C32  1  0.22288783  0.43925596  0.67057103  1  0.216882  -0.026672  3.835389  -0.018  0.213111  -0.01094  4.1488  -0.007  0.237672  -0.010046  4.155998  -0.007  0.102071  0.196915  -0.011199  4.143634  -0.007
C  C33  1  0.57611516  0.96234419  0.29910235  1  0.130417  4.7e-05  3.716273  0.0  0.099512  0.000166  3.973839  0.0  0.105537  0.000103  3.989972  0.0  0.045653  0.095847  0.000254  3.96246  0.0
C  C34  1  0.42388502  0.03765468  0.70089860  1  0.13038  7e-05  3.716285  0.0  0.099487  0.000166  3.97385  0.0  0.105508  0.000103  3.989981  0.0  0.045637  0.095811  0.000254  3.962478  0.0
C  C35  1  0.59390486  0.04146796  0.20366967  1  -0.14312  1.4e-05  3.672319  0.0  -0.162229  -2.3e-05  3.921921  0.0  -0.168881  -2.7e-05  3.94342  0.0  -0.079133  -0.157487  4.1e-05  3.906728  0.0
C  C36  1  0.40609247  0.95853091  0.79633377  1  -0.143104  -1.1e-05  3.672246  0.0  -0.16223  -2.2e-05  3.921872  0.0  -0.168881  -2.8e-05  3.943371  0.0  -0.079164  -0.157492  4.1e-05  3.906686  0.0
C  C37  1  0.49279154  0.96117160  0.05331639  1  0.084103  -6.7e-05  3.76117  0.0  0.097572  3.6e-05  3.988956  0.0  0.10047  2.3e-05  4.011827  0.0  0.008992  0.096111  8.7e-05  3.972405  0.0
C  C38  1  0.50720972  0.03882607  0.94668539  1  0.084072  -3.5e-05  3.76119  0.0  0.097589  3.5e-05  3.988946  0.0  0.100484  2.4e-05  4.011817  0.0  0.009014  0.096139  8.7e-05  3.972391  0.0
C  C39  1  0.37523472  0.80302275  0.00872626  1  -0.159257  -8.9e-05  3.724809  0.0  -0.17743  -4.6e-05  3.971908  0.0  -0.185154  -3e-05  3.995275  0.0  -0.08588  -0.17204  -0.000128  3.955519  0.0
C  C40  1  0.62476043  0.19697853  0.99127752  1  -0.159355  -0.000117  3.724865  0.0  -0.177534  -4.5e-05  3.971983  0.0  -0.185258  -3.2e-05  3.99535  0.0  -0.085907  -0.172145  -0.000128  3.955594  0.0
C  C41  1  0.36484687  0.73419276  0.11178831  1  0.116375  -7.5e-05  3.741013  0.0  0.089975  2.2e-05  3.9921  0.0  0.095039  8e-06  4.010754  0.0  0.034676  0.08672  6.7e-05  3.979371  0.0
C  C42  1  0.63514973  0.26580850  0.88821273  1  0.116403  -4.8e-05  3.741068  0.0  0.089996  2.2e-05  3.992153  0.0  0.095059  9e-06  4.010808  0.0  0.034671  0.086745  6.7e-05  3.979423  0.0
Se  Se43  1  0.93395733  0.62003394  0.23316347  1  -0.343417  -0.008873  1.889883  -0.003  -0.333658  -0.003135  2.210934  -0.001  -0.350466  -0.002954  2.198167  -0.001  -0.109692  -0.320702  -0.00272  2.219277  0.0
Se  Se44  1  0.06604191  0.37997072  0.76682116  1  -0.343462  -0.008881  1.890111  -0.003  -0.333737  -0.003139  2.211179  -0.001  -0.350536  -0.002958  2.198394  -0.001  -0.10973  -0.320786  -0.002724  2.219532  0.0
N  N45  1  0.68160387  0.67490581  0.67490422  1  -0.231387  -0.019197  3.340883  -0.013  -0.187239  -0.009673  3.621301  -0.007  -0.212299  -0.00796  3.639834  -0.006  -0.32516  -0.172872  -0.010986  3.609594  -0.008
N  N46  1  0.31840370  0.32509437  0.32509636  1  -0.231406  -0.019179  3.340986  -0.013  -0.187164  -0.009673  3.621325  -0.007  -0.212215  -0.007959  3.639862  -0.006  -0.325143  -0.172797  -0.010986  3.609612  -0.008
N  N47  1  0.67168162  0.52242569  0.39210926  1  -0.453999  -0.000354  3.227583  0.007  -0.430537  -0.001514  3.533669  0.001  -0.450012  -0.001526  3.533804  0.001  -0.40199  -0.41941  -0.000635  3.532964  0.002
N  N48  1  0.32833369  0.47758176  0.60788185  1  -0.454255  -0.000344  3.227112  0.007  -0.430799  -0.001513  3.533205  0.001  -0.450278  -0.001524  3.533334  0.001  -0.402197  -0.419671  -0.000634  3.532504  0.002
N  N49  1  0.46386222  0.81098019  0.25517328  1  -0.309779  0.000353  3.186795  0.001  -0.247408  0.000494  3.434155  0.001  -0.261134  0.000299  3.45107  0.001  -0.309114  -0.238533  0.000696  3.422934  0.001
N  N50  1  0.53613512  0.18901866  0.74482917  1  -0.309705  0.000333  3.186805  0.001  -0.247346  0.000494  3.434171  0.001  -0.261074  0.000298  3.451089  0.001  -0.309063  -0.238469  0.000696  3.422954  0.001
O  O51  1  0.63050101  0.30742921  0.54945806  1  -0.791952  0.028681  2.032005  0.052  -0.7587  0.02647  2.254227  0.046  -0.783975  0.020807  2.22501  0.037  -0.570563  -0.738702  0.032844  2.272423  0.055
O  O52  1  0.36950122  0.69257214  0.45054395  1  -0.792014  0.028681  2.031913  0.052  -0.758761  0.026472  2.254162  0.046  -0.784036  0.020809  2.224962  0.037  -0.570587  -0.738764  0.032847  2.272359  0.055
