# generated using pymatgen
data_ZnH21C28N2O7
_symmetry_space_group_name_H-M   'P 1'
_cell_length_a   9.56470448
_cell_length_b   10.84592829
_cell_length_c   28.12808115
_cell_angle_alpha   89.92588580
_cell_angle_beta   90.23076920
_cell_angle_gamma   90.14811139
_symmetry_Int_Tables_number   1
_chemical_formula_structural   ZnH21C28N2O7
_chemical_formula_sum   'Zn2 H42 C56 N4 O14'
_cell_volume   2917.91784572
_cell_formula_units_Z   2
loop_
 _symmetry_equiv_pos_site_id
 _symmetry_equiv_pos_as_xyz
  1  'x, y, z'
loop_
 _atom_site_type_symbol
 _atom_site_label
 _atom_site_symmetry_multiplicity
 _atom_site_fract_x
 _atom_site_fract_y
 _atom_site_fract_z
 _atom_site_occupancy
 _atom_site_pbe_bader_charge
 _atom_site_pbe_bader_spin_density
 _atom_site_pbe_cm5_charge
 _atom_site_pbe_ddec_charge
 _atom_site_pbe_ddec_spin_density
 _atom_site_pbe_ddec_sum_bond_order
 _atom_site_pbe_magmom
Zn  Zn0  1  0.35301323  0.49967163  0.50003538  1  1.255979  0  0.667856  0.811468  0  2.36678  0
Zn  Zn1  1  0.64685962  0.50062330  0.49949516  1  1.246549  0  0.67094  0.812599  0  2.408359  0
H  H2  1  0.72152533  0.49966793  0.34645187  1  0.081233  0  0.103588  0.104512  0  1.006795  0
H  H3  1  0.71896654  0.49612814  0.25713202  1  0.066365  0  0.108251  0.11465  0  0.980776  0
H  H4  1  0.72810852  0.50258036  0.65150524  1  0.102517  0  0.104716  0.106541  0  1.006494  0
H  H5  1  0.73321621  0.49683616  0.74088713  1  0.076982  0  0.108931  0.115777  0  0.980644  0
H  H6  1  0.49289118  0.17467087  0.96624327  1  0.084139  0  0.109666  0.115358  0  1.004759  0
H  H7  1  0.41488614  0.18671265  0.03267721  1  0.058774  0  0.104938  0.108915  0  1.011271  0
H  H8  1  0.27343062  0.49533781  0.34770686  1  0.123445  0  0.103442  0.104013  0  1.006461  0
H  H9  1  0.26960627  0.49138329  0.25837389  1  0.083338  0  0.108501  0.115191  0  0.981869  0
H  H10  1  0.58989732  0.78651671  0.12235551  1  0.113843  0  0.115367  0.122507  0  0.981675  0
H  H11  1  0.54284259  0.79872886  0.96543712  1  0.051785  0  0.108002  0.108095  0  1.00208  0
H  H12  1  0.28030816  0.48854038  0.65334514  1  0.085806  0  0.105077  0.106653  0  1.003123  0
H  H13  1  0.54076791  0.79503850  0.87775528  1  0.122311  0  0.111763  0.114802  0  1.004692  0
H  H14  1  0.28409475  0.48227811  0.74271139  1  0.041719  0  0.109774  0.116842  0  0.979626  0
H  H15  1  0.59282036  0.79137865  0.03407538  1  0.044268  0  0.106419  0.105348  0  1.005411  0
H  H16  1  0.32100879  0.10759684  0.54553541  1  -0.00289  0  0.088606  0.085258  0  0.992827  0
H  H17  1  0.70666568  0.10880364  0.46801861  1  0.001165  0  0.087272  0.08328  0  0.989249  0
H  H18  1  0.48159518  0.10727114  0.57669382  1  0.018044  0  0.091015  0.087474  0  0.974858  0
H  H19  1  0.70946382  0.10821190  0.53056053  1  0.037698  0  0.086051  0.080829  0  0.991695  0
H  H20  1  0.48196353  0.89233901  0.57667166  1  0.016023  0  0.091038  0.087451  0  0.974932  0
H  H21  1  0.71000859  0.89269254  0.53028444  1  0.000305  0  0.086002  0.080951  0  0.990928  0
H  H22  1  0.32131984  0.89117930  0.54554744  1  0.047066  0  0.088394  0.085129  0  0.993134  0
H  H23  1  0.70648594  0.89331929  0.46774918  1  0.011801  0  0.086999  0.082724  0  0.990991  0
H  H24  1  0.31724721  0.10817937  0.45580277  1  0.017963  0  0.089084  0.086333  0  0.992441  0
H  H25  1  0.47526924  0.10776389  0.42359666  1  0.000228  0  0.091201  0.087113  0  0.975657  0
H  H26  1  0.31708022  0.89175390  0.45594097  1  0.016651  0  0.088933  0.085578  0  0.993701  0
H  H27  1  0.47481270  0.89283252  0.42356395  1  0.008559  0  0.091148  0.087257  0  0.975342  0
H  H28  1  0.87380061  0.37814458  0.44136930  1  0.079123  0  0.113369  0.10134  0  0.964624  0
H  H29  1  0.12258400  0.37791777  0.44119267  1  0.073379  0  0.113166  0.100243  0  0.963433  0
H  H30  1  0.87459883  0.30730472  0.49798414  1  0.061748  0  0.112794  0.101947  0  0.983434  0
H  H31  1  0.12313731  0.30678437  0.49775255  1  0.097867  0  0.112086  0.101485  0  0.981026  0
H  H32  1  0.87495206  0.59805837  0.43460580  1  0.044362  0  0.112538  0.100864  0  0.970107  0
H  H33  1  0.12391695  0.59762071  0.43452060  1  0.074457  0  0.112212  0.100109  0  0.969826  0
H  H34  1  0.87720809  0.59526757  0.56373109  1  0.06162  0  0.114307  0.102236  0  0.961038  0
H  H35  1  0.12534838  0.59499014  0.56357517  1  0.084776  0  0.114666  0.10295  0  0.95996  0
H  H36  1  0.87668633  0.43303153  0.56865203  1  0.069019  0  0.11319  0.101459  0  0.966851  0
H  H37  1  0.12448241  0.43273989  0.56861964  1  0.063096  0  0.113518  0.10177  0  0.966301  0
H  H38  1  0.87631799  0.69102291  0.48624910  1  0.067374  0  0.112588  0.10158  0  0.982847  0
H  H39  1  0.12514048  0.69044309  0.48618011  1  0.062271  0  0.111567  0.100723  0  0.982782  0
H  H40  1  0.35516265  0.08291504  0.09667068  1  0.02839  0  0.08783  0.118223  0  1.006856  0
H  H41  1  0.46150786  0.11302573  0.14794515  1  0.073737  0  0.106104  0.156199  0  0.974468  0
H  H42  1  0.28965509  0.16557514  0.14690163  1  0.092917  0  0.104931  0.153753  0  0.977978  0
H  H43  1  0.62523346  0.03763259  0.83540584  1  0.613194  0  0.355289  0.397535  0  0.82998  0
C  C44  1  0.49855867  0.26056619  0.50022287  1  1.542352  0  0.224343  0.591094  0  4.104965  0
C  C45  1  0.50039426  0.49913520  0.40560035  1  1.501045  0  0.213429  0.588941  0  4.180279  0
C  C46  1  0.49913386  0.73968944  0.50008675  1  1.545331  0  0.224282  0.591331  0  4.104131  0
C  C47  1  0.50240293  0.49866218  0.59395439  1  1.609089  0  0.213146  0.586453  0  4.189648  0
C  C48  1  0.45882692  0.37931910  0.17935774  1  1.265715  0  0.24058  0.440659  0  4.092524  0
C  C49  1  0.52913231  0.60224721  0.17881960  1  1.299598  0  0.238122  0.436077  0  4.127479  0
C  C50  1  0.36813397  0.49328658  0.27797202  1  -0.059331  0  -0.084683  -0.152412  0  3.981333  0
C  C51  1  0.37027290  0.49537243  0.32746175  1  -0.012518  0  -0.080329  -0.076307  0  3.976113  0
C  C52  1  0.62330616  0.49768937  0.32673943  1  0.054345  0  -0.080955  -0.07733  0  3.97862  0
C  C53  1  0.62186738  0.49537581  0.27729040  1  -0.09423  0  -0.084069  -0.150285  0  3.979089  0
C  C54  1  0.49414464  0.49307485  0.25324553  1  0.335548  0  0.09048  0.20082  0  4.01852  0
C  C55  1  0.49944253  0.48682440  0.10150487  1  -0.043528  0  0.003561  0.041623  0  4.001046  0
C  C56  1  0.46208785  0.37751609  0.12670373  1  0.044228  0  -0.011699  -0.141167  0  3.926241  0
C  C57  1  0.42865460  0.26934069  0.10143541  1  0.023129  0  0.017574  0.193761  0  3.927172  0
C  C58  1  0.53081323  0.59722722  0.12640993  1  0.021665  0  -0.012551  -0.072157  0  3.998083  0
C  C59  1  0.49770249  0.49749913  0.35219418  1  0.065877  0  -0.016217  -0.032493  0  3.960271  0
C  C60  1  0.50403076  0.49558449  0.64738402  1  -0.028685  0  -0.015677  -0.031657  0  3.957793  0
C  C61  1  0.49781343  0.37294723  0.97400021  1  0.01356  0  0.007266  0.049284  0  3.977211  0
C  C62  1  0.52907496  0.60081973  0.97386727  1  -0.001121  0  0.005933  0.040033  0  3.977308  0
C  C63  1  0.51491391  0.48657173  0.94903781  1  -0.009034  0  0.005351  0.002277  0  3.919802  0
C  C64  1  0.49859002  0.26325267  0.94807674  1  -0.057224  0  -0.074327  -0.145002  0  3.928069  0
C  C65  1  0.50735268  0.26151197  0.89828866  1  0.024525  0  0.009614  -0.006845  0  3.926589  0
C  C66  1  0.50851265  0.37249128  0.87293329  1  -0.029755  0  -0.002139  -0.085063  0  3.944522  0
C  C67  1  0.51648509  0.48554385  0.89819311  1  0.077066  0  0.005713  0.038612  0  4.000233  0
C  C68  1  0.52731831  0.59860590  0.87306722  1  0.0021  0  -0.010974  -0.074425  0  3.997602  0
C  C69  1  0.53157588  0.60151298  0.82060188  1  1.363753  0  0.240015  0.439881  0  4.113797  0
C  C70  1  0.49243092  0.37320775  0.82053813  1  1.371336  0  0.242639  0.441068  0  4.101636  0
C  C71  1  0.63456232  0.49445606  0.72136693  1  -0.02933  0  -0.084838  -0.153691  0  3.982285  0
C  C72  1  0.63173064  0.49786818  0.67192375  1  -0.067318  0  -0.080144  -0.076659  0  3.976647  0
C  C73  1  0.37877164  0.49008032  0.67294339  1  0.058632  0  -0.078933  -0.075415  0  3.970414  0
C  C74  1  0.38082860  0.48675112  0.72243365  1  -0.039081  0  -0.083504  -0.15074  0  3.977427  0
C  C75  1  0.50893110  0.48888924  0.74623498  1  0.330802  0  0.090965  0.200583  0  4.018118  0
C  C76  1  0.48097964  0.37532464  0.02569233  1  -0.010922  0  0.003944  0.04984  0  3.999966  0
C  C77  1  0.50530067  0.48777156  0.05068000  1  0.042938  0  0.001265  -0.00626  0  3.929638  0
C  C78  1  0.53452496  0.59984464  0.02585600  1  -0.133894  0  0.004468  0.041183  0  3.979727  0
C  C79  1  0.44066977  0.27158819  0.05153601  1  -0.03419  0  -0.083804  -0.188329  0  3.920606  0
C  C80  1  0.56495328  0.70420722  0.10173956  1  0.039542  0  -0.070106  -0.070161  0  3.978142  0
C  C81  1  0.53685485  0.71001568  0.94746038  1  -0.001203  0  -0.078457  -0.116437  0  3.959668  0
C  C82  1  0.53575270  0.70911129  0.89783437  1  -0.053182  0  -0.06479  -0.05666  0  3.957696  0
C  C83  1  0.56598903  0.70578956  0.05218445  1  -0.013513  0  -0.08377  -0.125839  0  3.983677  0
C  C84  1  0.42801697  0.07110015  0.54492226  1  -0.051309  0  -0.158113  -0.168836  0  3.858544  0
C  C85  1  0.65308838  0.07180251  0.49946480  1  0.040859  0  -0.166588  -0.175871  0  3.898039  0
C  C86  1  0.42823503  0.92836925  0.54491502  1  0.024762  0  -0.158549  -0.169596  0  3.859014  0
C  C87  1  0.65321401  0.92940242  0.49933990  1  -0.042634  0  -0.166984  -0.176492  0  3.898883  0
C  C88  1  0.42421555  0.07152711  0.45572399  1  0.075701  0  -0.158112  -0.168951  0  3.858011  0
C  C89  1  0.50236082  0.12030255  0.50006708  1  0.048712  0  -0.018146  0.022066  0  3.811996  0
C  C90  1  0.50257449  0.87999198  0.50002569  1  0.045253  0  -0.017819  0.023145  0  3.810337  0
C  C91  1  0.42411983  0.92872482  0.45573941  1  -0.062719  0  -0.158134  -0.16896  0  3.858056  0
C  C92  1  0.91801417  0.38411915  0.47736794  1  0.278756  0  -0.068745  -0.092042  0  3.819129  0
C  C93  1  0.07973981  0.38383984  0.47726492  1  0.153659  0  -0.068701  -0.090129  0  3.819515  0
C  C94  1  0.91908755  0.60672967  0.47052668  1  0.193805  0  -0.068559  -0.091841  0  3.817175  0
C  C95  1  0.08094476  0.60639340  0.47047438  1  0.304936  0  -0.068446  -0.090342  0  3.817746  0
C  C96  1  0.91994303  0.51052084  0.54834733  1  0.185803  0  -0.068387  -0.089406  0  3.829949  0
C  C97  1  0.08134868  0.51027248  0.54829355  1  0.291575  0  -0.068641  -0.090417  0  3.828587  0
C  C98  1  0.38113190  0.15111843  0.12415971  1  -0.074223  0  -0.234526  -0.41939  0  3.962841  0
C  C99  1  0.51417363  0.13583786  0.87584427  1  1.570296  0  0.234974  0.58734  0  4.132665  0
N  N100  1  0.49333471  0.49183796  0.20192401  1  -1.223154  0  -0.232856  -0.228817  0  3.600904  0
N  N101  1  0.51287302  0.48729692  0.79757766  1  -1.189109  0  -0.230435  -0.225279  0  3.593858  0
N  N102  1  0.86570750  0.50056547  0.49884121  1  -0.958921  0  -0.34064  -0.102096  0  3.454239  0
N  N103  1  0.13401547  0.50000016  0.49874889  1  -0.967548  0  -0.34029  -0.101143  0  3.45288  0
O  O104  1  0.37901576  0.31179186  0.50046388  1  -1.183274  0  -0.316212  -0.553734  0  2.359852  0
O  O105  1  0.61543209  0.31682923  0.50011196  1  -1.170854  0  -0.31383  -0.546896  0  2.39871  0
O  O106  1  0.38276725  0.49979666  0.42676259  1  -1.170272  0  -0.318986  -0.557492  0  2.327544  0
O  O107  1  0.62009126  0.49952676  0.42557901  1  -1.170528  0  -0.31833  -0.556575  0  2.326432  0
O  O108  1  0.37971553  0.68763514  0.50083041  1  -1.179036  0  -0.316689  -0.554211  0  2.35388  0
O  O109  1  0.61617781  0.68423281  0.49935365  1  -1.174237  0  -0.314282  -0.546517  0  2.393568  0
O  O110  1  0.38345352  0.49845666  0.57349649  1  -1.170606  0  -0.316356  -0.555127  0  2.347253  0
O  O111  1  0.62048849  0.50099908  0.57334609  1  -1.17598  0  -0.317155  -0.55812  0  2.353014  0
O  O112  1  0.42937992  0.28883527  0.20389292  1  -1.096501  0  -0.269251  -0.428452  0  2.102187  0
O  O113  1  0.46048558  0.28058534  0.79774566  1  -1.086531  0  -0.26844  -0.424975  0  2.09534  0
O  O114  1  0.55708140  0.69619660  0.20150047  1  -1.104543  0  -0.286566  -0.446154  0  2.062409  0
O  O115  1  0.54839631  0.69695441  0.79761600  1  -1.098942  0  -0.283743  -0.442663  0  2.060827  0
O  O116  1  0.42936864  0.05413629  0.88402680  1  -1.131733  0  -0.294112  -0.486551  0  2.041826  0
O  O117  1  0.63204009  0.11936730  0.85018296  1  -1.104579  0  -0.332199  -0.478732  0  2.214444  0
