# generated using pymatgen
data_CdH10(C5N4)3
_symmetry_space_group_name_H-M   'P 1'
_cell_length_a   7.42480771
_cell_length_b   8.09152800
_cell_length_c   15.59641882
_cell_angle_alpha   74.70041948
_cell_angle_beta   76.72559158
_cell_angle_gamma   76.47861420
_symmetry_Int_Tables_number   1
_chemical_formula_structural   CdH10(C5N4)3
_chemical_formula_sum   'Cd2 H20 C30 N24'
_cell_volume   864.54245617
_cell_formula_units_Z   2
loop_
 _symmetry_equiv_pos_site_id
 _symmetry_equiv_pos_as_xyz
  1  'x, y, z'
loop_
 _atom_site_type_symbol
 _atom_site_label
 _atom_site_symmetry_multiplicity
 _atom_site_fract_x
 _atom_site_fract_y
 _atom_site_fract_z
 _atom_site_occupancy
 _atom_site_hle17_bader_spin_density
 _atom_site_hle17_ddec_charge
 _atom_site_hle17_ddec_spin_density
 _atom_site_hle17_ddec_sum_bond_order
 _atom_site_hle17_magmom
 _atom_site_hse06_10hf_bader_spin_density
 _atom_site_hse06_10hf_ddec_charge
 _atom_site_hse06_10hf_ddec_spin_density
 _atom_site_hse06_10hf_ddec_sum_bond_order
 _atom_site_hse06_10hf_magmom
 _atom_site_hse06_bader_spin_density
 _atom_site_hse06_ddec_charge
 _atom_site_hse06_ddec_spin_density
 _atom_site_hse06_ddec_sum_bond_order
 _atom_site_hse06_magmom
 _atom_site_pbe_bader_spin_density
 _atom_site_pbe_cm5_charge
 _atom_site_pbe_ddec_charge
 _atom_site_pbe_ddec_spin_density
 _atom_site_pbe_ddec_sum_bond_order
 _atom_site_pbe_magmom
Cd  Cd0  1  0.75960447  0.19771761  0.20535881  1  0  1.12189  0  1.886093  0  0  0.930762  0  2.37388  0  0  0.978361  0  2.3284  0  0  0.833341  0.897385  0  2.404752  0
Cd  Cd1  1  0.24038486  0.80228545  0.79464741  1  0  1.121933  0  1.886078  0  0  0.930793  0  2.37388  0  0  0.978392  0  2.328398  0  0  0.833365  0.897407  0  2.404751  0
H  H2  1  0.39471676  0.29811745  0.10135545  1  0  0.079794  0  0.945618  0  0  0.086858  0  1.012269  0  0  0.089101  0  1.01071  0  0  0.114577  0.085221  0  1.013431  0
H  H3  1  0.60526365  0.70188949  0.89864729  1  0  0.079844  0  0.945599  0  0  0.086977  0  1.012187  0  0  0.089224  0  1.010624  0  0  0.114595  0.085333  0  1.013359  0
H  H4  1  0.12420757  0.54315364  0.07091149  1  0  0.112046  0  0.972157  0  0  0.119385  0  1.035613  0  0  0.121981  0  1.035358  0  0  0.104372  0.117517  0  1.035917  0
H  H5  1  0.87578697  0.45686018  0.92908193  1  0  0.112045  0  0.972115  0  0  0.119373  0  1.035578  0  0  0.121969  0  1.035322  0  0  0.104361  0.117505  0  1.035884  0
H  H6  1  0.11321992  0.82483029  0.11553923  1  0  0.091268  0  0.944438  0  0  0.103181  0  1.002885  0  0  0.104746  0  1.00243  0  0  0.105656  0.101975  0  1.003338  0
H  H7  1  0.88678848  0.17518374  0.88445153  1  0  0.091299  0  0.944413  0  0  0.103187  0  1.002894  0  0  0.104754  0  1.002441  0  0  0.105644  0.101981  0  1.003347  0
H  H8  1  0.37503580  0.84717759  0.18534167  1  0  0.1055  0  0.963055  0  0  0.114259  0  1.0261  0  0  0.116559  0  1.02646  0  0  0.106353  0.112611  0  1.025955  0
H  H9  1  0.62496806  0.15282455  0.81465428  1  0  0.105434  0  0.96298  0  0  0.114195  0  1.026042  0  0  0.116497  0  1.0264  0  0  0.10632  0.112546  0  1.025896  0
H  H10  1  0.66615667  0.71120707  0.24597439  1  0  0.095355  0  0.922617  0  0  0.107495  0  0.984496  0  0  0.110198  0  0.981206  0  0  0.122255  0.105618  0  0.986805  0
H  H11  1  0.33383825  0.28879752  0.75402403  1  0  0.095316  0  0.922658  0  0  0.107452  0  0.984536  0  0  0.110166  0  0.981235  0  0  0.122253  0.105576  0  0.986846  0
H  H12  1  0.18599936  0.55518070  0.32477898  1  0  0.088699  0  0.955076  0  0  0.092048  0  1.025925  0  0  0.094932  0  1.024736  0  0  0.112006  0.089958  0  1.026868  0
H  H13  1  0.81400437  0.44480829  0.67522189  1  0  0.088698  0  0.955101  0  0  0.092014  0  1.026013  0  0  0.094895  0  1.024828  0  0  0.111988  0.089942  0  1.026895  0
H  H14  1  0.46073898  0.36138803  0.54508840  1  0  0.083185  0  0.969039  0  0  0.082947  0  1.04614  0  0  0.087238  0  1.042272  0  0  0.110163  0.079806  0  1.049024  0
H  H15  1  0.53928144  0.63860124  0.45490823  1  0  0.083206  0  0.969099  0  0  0.082989  0  1.046204  0  0  0.087248  0  1.042364  0  0  0.110135  0.07985  0  1.049092  0
H  H16  1  0.23359212  0.15255565  0.61471290  1  0  0.083973  0  0.972185  0  0  0.090121  0  1.039109  0  0  0.092674  0  1.037858  0  0  0.108145  0.088287  0  1.040114  0
H  H17  1  0.76644054  0.84742205  0.38528275  1  0  0.084042  0  0.972171  0  0  0.090195  0  1.039073  0  0  0.092743  0  1.037828  0  0  0.10819  0.08836  0  1.040077  0
H  H18  1  0.69727102  0.21863879  0.40206376  1  0  0.337059  0  0.89811  0  0  0.318074  0  0.963976  0  0  0.324646  0  0.959319  0  0  0.307601  0.313437  0  0.967256  0
H  H19  1  0.30273923  0.78136465  0.59793589  1  0  0.336915  0  0.898267  0  0  0.317947  0  0.964087  0  0  0.324519  0  0.959434  0  0  0.307543  0.31331  0  0.967368  0
H  H20  1  0.83386634  0.15273161  0.48830412  1  0  0.333429  0  0.906876  0  0  0.303561  0  0.994707  0  0  0.311486  0  0.988  0  0  0.30349  0.297956  0  0.999413  0
H  H21  1  0.16615761  0.84726684  0.51169163  1  0  0.333428  0  0.906808  0  0  0.303555  0  0.994647  0  0  0.311478  0  0.987942  0  0  0.303478  0.297952  0  0.999355  0
C  C22  1  0.11937625  0.20266819  0.03850794  1  0  0.497858  0  3.97738  0  0  0.463095  0  4.254242  0  0  0.488576  0  4.266089  0  0  0.306536  0.445748  0  4.245903  0
C  C23  1  0.88060186  0.79734915  0.96149497  1  0  0.497947  0  3.977376  0  0  0.46325  0  4.254233  0  0  0.488736  0  4.266076  0  0  0.306683  0.445895  0  4.245888  0
C  C24  1  0.28700702  0.04713711  0.93236658  1  0  0.513879  0  3.999888  0  0  0.471659  0  4.291248  0  0  0.498209  0  4.302943  0  0  0.311682  0.453616  0  4.282916  0
C  C25  1  0.71296764  0.95286823  0.06764720  1  0  0.513977  0  3.999933  0  0  0.471824  0  4.29131  0  0  0.498379  0  4.303001  0  0  0.311731  0.453781  0  4.282987  0
C  C26  1  0.12500190  0.99662453  0.30820593  1  0  0.530956  0  3.965206  0  0  0.484937  0  4.254121  0  0  0.512784  0  4.263852  0  0  0.315084  0.46586  0  4.247278  0
C  C27  1  0.87501297  0.00336608  0.69178594  1  0  0.530761  0  3.965372  0  0  0.484731  0  4.254295  0  0  0.512575  0  4.264024  0  0  0.315052  0.46568  0  4.247459  0
C  C28  1  0.39533509  0.04509717  0.34007172  1  0  0.514495  0  3.966161  0  0  0.475584  0  4.244325  0  0  0.501394  0  4.256328  0  0  0.307212  0.457971  0  4.23586  0
C  C29  1  0.60466555  0.95488652  0.65993142  1  0  0.514553  0  3.966145  0  0  0.475636  0  4.244323  0  0  0.501444  0  4.256321  0  0  0.307234  0.458052  0  4.235865  0
C  C30  1  0.38307754  0.42194514  0.11968052  1  0  0.139775  0  3.698719  0  0  0.109843  0  3.949921  0  0  0.116345  0  3.968023  0  0  0.049686  0.105581  0  3.937609  0
C  C31  1  0.61690471  0.57805917  0.88032430  1  0  0.139582  0  3.698392  0  0  0.10959  0  3.949587  0  0  0.116093  0  3.967683  0  0  0.04961  0.105329  0  3.937277  0
C  C32  1  0.23334013  0.55958320  0.10235261  1  0  -0.098652  0  3.688393  0  0  -0.115624  0  3.942204  0  0  -0.120566  0  3.961895  0  0  -0.079714  -0.11251  0  3.929052  0
C  C33  1  0.76664982  0.44042524  0.89764580  1  0  -0.098578  0  3.688147  0  0  -0.115532  0  3.941956  0  0  -0.120476  0  3.96165  0  0  -0.079704  -0.112423  0  3.928812  0
C  C34  1  0.22885119  0.71485967  0.12635464  1  0  0.007872  0  3.707183  0  0  -0.011652  0  3.961011  0  0  -0.008121  0  3.97857  0  0  -0.06326  -0.013821  0  3.949084  0
C  C35  1  0.77114710  0.28514892  0.87364166  1  0  0.007819  0  3.707113  0  0  -0.011686  0  3.960918  0  0  -0.008157  0  3.978479  0  0  -0.063244  -0.013856  0  3.948994  0
C  C36  1  0.37292680  0.72754969  0.16640313  1  0  -0.133962  0  3.690135  0  0  -0.155128  0  3.940781  0  0  -0.161076  0  3.961451  0  0  -0.074428  -0.151228  0  3.926896  0
C  C37  1  0.62707028  0.27245098  0.83359687  1  0  -0.133827  0  3.69001  0  0  -0.155004  0  3.940638  0  0  -0.160953  0  3.961308  0  0  -0.074367  -0.151107  0  3.926758  0
C  C38  1  0.51574795  0.58211155  0.18392239  1  0  0.19982  0  3.810563  0  0  0.199934  0  4.055537  0  0  0.205409  0  4.075691  0  0  0.113449  0.196293  0  4.04171  0
C  C39  1  0.48424260  0.41788633  0.81608246  1  0  0.199788  0  3.810397  0  0  0.199913  0  4.055375  0  0  0.205388  0  4.07553  0  0  0.113423  0.196269  0  4.041556  0
C  C40  1  0.65863639  0.58642925  0.23318931  1  0  0.053037  0  3.631714  0  0  0.00683  0  3.891268  0  0  0.015843  0  3.900838  0  0  0.067669  0.00028  0  3.885758  0
C  C41  1  0.34136314  0.41357275  0.76681092  1  0  0.053093  0  3.631883  0  0  0.00689  0  3.89142  0  0  0.015893  0  3.900987  0  0  0.067704  0.000333  0  3.885912  0
C  C42  1  0.91904047  0.34521954  0.38408007  1  0  0.391379  0  3.879652  0  0  0.352352  0  4.158906  0  0  0.373427  0  4.171394  0  0  0.240586  0.338218  0  4.149934  0
C  C43  1  0.08097360  0.65478012  0.61591520  1  0  0.391521  0  3.879733  0  0  0.35252  0  4.158901  0  0  0.373596  0  4.171389  0  0  0.240718  0.338382  0  4.149935  0
C  C44  1  0.07399297  0.34905104  0.42839932  1  0  0.071365  0  3.778752  0  0  0.083615  0  4.017067  0  0  0.082101  0  4.03665  0  0  0.120538  0.084183  0  4.004255  0
C  C45  1  0.92601792  0.65094328  0.57160016  1  0  0.0712  0  3.778821  0  0  0.083485  0  4.017062  0  0  0.081969  0  4.036649  0  0  0.120465  0.084052  0  4.004248  0
C  C46  1  0.19992211  0.46465415  0.38950894  1  0  0.067855  0  3.673362  0  0  0.034987  0  3.933165  0  0  0.038268  0  3.94901  0  0  0.053717  0.032856  0  3.92254  0
C  C47  1  0.80008485  0.53533878  0.61049239  1  0  0.067902  0  3.673226  0  0  0.035053  0  3.932946  0  0  0.038337  0  3.948787  0  0  0.053736  0.032927  0  3.922337  0
C  C48  1  0.34988899  0.35701278  0.51054298  1  0  0.070985  0  3.681762  0  0  0.048461  0  3.94002  0  0  0.051604  0  3.955222  0  0  0.044398  0.046427  0  3.929905  0
C  C49  1  0.65012719  0.64297639  0.48945601  1  0  0.071059  0  3.681764  0  0  0.048444  0  3.940092  0  0  0.051612  0  3.955311  0  0  0.044416  0.046404  0  3.929987  0
C  C50  1  0.22429719  0.24196811  0.54934240  1  0  0.068735  0  3.706132  0  0  0.04662  0  3.960749  0  0  0.047382  0  3.978168  0  0  0.042987  0.045755  0  3.949404  0
C  C51  1  0.77571996  0.75801721  0.45065442  1  0  0.068623  0  3.70617  0  0  0.046543  0  3.960796  0  0  0.047309  0  3.9782  0  0  0.043013  0.045679  0  3.949461  0
N  N52  1  0.98915413  0.28052070  0.08018118  1  0  -0.600561  0  2.790146  0  0  -0.555518  0  3.064812  0  0  -0.576775  0  3.069489  0  0  -0.385843  -0.5409  0  3.061467  0
N  N53  1  0.01080815  0.71951352  0.91981660  1  0  -0.60059  0  2.790584  0  0  -0.555568  0  3.06528  0  0  -0.576819  0  3.069943  0  0  -0.385918  -0.540946  0  3.061933  0
N  N54  1  0.27302900  0.12365766  0.99704979  1  0  -0.449339  0  3.295182  0  0  -0.394783  0  3.554663  0  0  -0.419832  0  3.561622  0  0  -0.302423  -0.377433  0  3.549284  0
N  N55  1  0.72694293  0.87636217  0.00295532  1  0  -0.449437  0  3.294718  0  0  -0.39499  0  3.554264  0  0  -0.420079  0  3.561272  0  0  -0.302431  -0.377627  0  3.548876  0
N  N56  1  0.31805752  0.97652679  0.87182202  1  0  -0.623766  0  2.810471  0  0  -0.573523  0  3.09585  0  0  -0.59673  0  3.099555  0  0  -0.392638  -0.557611  0  3.093095  0
N  N57  1  0.68192443  0.02345775  0.12819244  1  0  -0.623859  0  2.810667  0  0  -0.573636  0  3.096062  0  0  -0.596822  0  3.099729  0  0  -0.392749  -0.55773  0  3.09332  0
N  N58  1  0.00229317  0.00976280  0.26890270  1  0  -0.610294  0  2.796592  0  0  -0.555785  0  3.078634  0  0  -0.579757  0  3.082226  0  0  -0.388447  -0.539287  0  3.076027  0
N  N59  1  0.99771151  0.99024196  0.73109283  1  0  -0.610162  0  2.796706  0  0  -0.5556  0  3.078693  0  0  -0.579576  0  3.082289  0  0  -0.388376  -0.539106  0  3.076077  0
N  N60  1  0.25542885  0.96580403  0.35566502  1  0  -0.453757  0  3.306568  0  0  -0.394216  0  3.570079  0  0  -0.418116  0  3.573207  0  0  -0.298724  -0.377538  0  3.567337  0
N  N61  1  0.74457308  0.03418761  0.64433311  1  0  -0.453673  0  3.306376  0  0  -0.394144  0  3.569898  0  0  -0.418026  0  3.573004  0  0  -0.298769  -0.377533  0  3.567192  0
N  N62  1  0.52864279  0.10638079  0.33457398  1  0  -0.623346  0  2.785587  0  0  -0.577267  0  3.060194  0  0  -0.59855  0  3.065602  0  0  -0.387035  -0.562615  0  3.056397  0
N  N63  1  0.47134967  0.89361962  0.66543613  1  0  -0.623444  0  2.785739  0  0  -0.577372  0  3.060393  0  0  -0.598645  0  3.06577  0  0  -0.38708  -0.562725  0  3.056591  0
N  N64  1  0.51982072  0.43225004  0.15976552  1  0  -0.367902  0  3.243203  0  0  -0.294576  0  3.496336  0  0  -0.313398  0  3.515828  0  0  -0.322988  -0.281534  0  3.482676  0
N  N65  1  0.48016148  0.56774771  0.84024144  1  0  -0.367839  0  3.242888  0  0  -0.29454  0  3.496095  0  0  -0.313367  0  3.515598  0  0  -0.322953  -0.281498  0  3.48243  0
N  N66  1  0.76907278  0.44479950  0.26463667  1  0  -0.171164  0  3.317495  0  0  -0.101539  0  3.594989  0  0  -0.112111  0  3.615015  0  0  -0.208686  -0.094258  0  3.58088  0
N  N67  1  0.23093456  0.55520525  0.73536052  1  0  -0.171045  0  3.317573  0  0  -0.101395  0  3.595038  0  0  -0.111965  0  3.615065  0  0  -0.208674  -0.094113  0  3.580929  0
N  N68  1  0.90217091  0.46020964  0.30753762  1  0  -0.347633  0  3.032122  0  0  -0.322508  0  3.316255  0  0  -0.346601  0  3.340351  0  0  -0.23609  -0.305502  0  3.299003  0
N  N69  1  0.09783984  0.53979259  0.69245764  1  0  -0.347931  0  3.032139  0  0  -0.322844  0  3.316313  0  0  -0.34694  0  3.340409  0  0  -0.236225  -0.305839  0  3.29906  0
N  N70  1  0.08692208  0.23676162  0.50830951  1  0  -0.283267  0  3.084279  0  0  -0.251134  0  3.343858  0  0  -0.257394  0  3.360068  0  0  -0.299516  -0.246598  0  3.333056  0
N  N71  1  0.91309285  0.76322760  0.49168702  1  0  -0.283252  0  3.084346  0  0  -0.251147  0  3.343933  0  0  -0.257405  0  3.360143  0  0  -0.299498  -0.246612  0  3.333135  0
N  N72  1  0.33854793  0.46836953  0.43021539  1  0  -0.26099  0  3.060539  0  0  -0.230797  0  3.339667  0  0  -0.238521  0  3.353906  0  0  -0.306443  -0.225424  0  3.329964  0
N  N73  1  0.66145886  0.53162474  0.56978385  1  0  -0.261008  0  3.060348  0  0  -0.230788  0  3.339483  0  0  -0.238513  0  3.353718  0  0  -0.306507  -0.22542  0  3.329778  0
N  N74  1  0.80596958  0.23084507  0.42809113  1  0  -0.635579  0  3.154844  0  0  -0.592523  0  3.394573  0  0  -0.615683  0  3.394465  0  0  -0.555243  -0.576243  0  3.394263  0
N  N75  1  0.19404947  0.76915073  0.57190415  1  0  -0.635335  0  3.154758  0  0  -0.592342  0  3.394581  0  0  -0.615503  0  3.394478  0  0  -0.555187  -0.57607  0  3.394275  0
