# generated using pymatgen
data_ZnH14C14(NO2)2
_symmetry_space_group_name_H-M   'P 1'
_cell_length_a   7.93813211
_cell_length_b   9.06605175
_cell_length_c   10.65706656
_cell_angle_alpha   109.54823355
_cell_angle_beta   100.17155300
_cell_angle_gamma   100.70366876
_symmetry_Int_Tables_number   1
_chemical_formula_structural   ZnH14C14(NO2)2
_chemical_formula_sum   'Zn2 H28 C28 N4 O8'
_cell_volume   686.16876467
_cell_formula_units_Z   2
loop_
 _symmetry_equiv_pos_site_id
 _symmetry_equiv_pos_as_xyz
  1  'x, y, z'
loop_
 _atom_site_type_symbol
 _atom_site_label
 _atom_site_symmetry_multiplicity
 _atom_site_fract_x
 _atom_site_fract_y
 _atom_site_fract_z
 _atom_site_occupancy
 _atom_site_hle17_bader_spin_density
 _atom_site_hle17_ddec_charge
 _atom_site_hle17_ddec_spin_density
 _atom_site_hle17_ddec_sum_bond_order
 _atom_site_hle17_magmom
 _atom_site_hse06_10hf_bader_spin_density
 _atom_site_hse06_10hf_ddec_charge
 _atom_site_hse06_10hf_ddec_spin_density
 _atom_site_hse06_10hf_ddec_sum_bond_order
 _atom_site_hse06_10hf_magmom
 _atom_site_hse06_bader_spin_density
 _atom_site_hse06_ddec_charge
 _atom_site_hse06_ddec_spin_density
 _atom_site_hse06_ddec_sum_bond_order
 _atom_site_hse06_magmom
 _atom_site_pbe_bader_spin_density
 _atom_site_pbe_cm5_charge
 _atom_site_pbe_ddec_charge
 _atom_site_pbe_ddec_spin_density
 _atom_site_pbe_ddec_sum_bond_order
 _atom_site_pbe_magmom
Zn  Zn0  1  0.16317092  0.98261296  0.65091010  1  0  1.01796  0  1.837062  0  0  0.828613  0  2.2993  0  0  0.8807  0  2.242391  0  0  0.671987  0.792971  0  2.337826  0
Zn  Zn1  1  0.83683051  0.01739077  0.34908998  1  0  1.017939  0  1.837085  0  0  0.828562  0  2.29937  0  0  0.880651  0  2.242461  0  0  0.671952  0.792922  0  2.337897  0
H  H2  1  0.98474859  0.62443664  0.49150318  1  0  0.075122  0  0.958793  0  0  0.086952  0  1.019931  0  0  0.088459  0  1.019451  0  0  0.11707  0.086084  0  1.019924  0
H  H3  1  0.01525084  0.37556467  0.50849876  1  0  0.07514  0  0.958808  0  0  0.086967  0  1.019946  0  0  0.088474  0  1.019468  0  0  0.117076  0.086099  0  1.019939  0
H  H4  1  0.96576148  0.39977568  0.27513883  1  0  0.123514  0  0.987268  0  0  0.129739  0  1.05196  0  0  0.134301  0  1.049216  0  0  0.10781  0.126888  0  1.053224  0
H  H5  1  0.03424013  0.60022438  0.72486397  1  0  0.123518  0  0.987263  0  0  0.129746  0  1.051938  0  0  0.134307  0  1.049197  0  0  0.107819  0.126895  0  1.053202  0
H  H6  1  0.35627012  0.74445576  0.19904910  1  0  0.117424  0  0.962371  0  0  0.126582  0  1.024087  0  0  0.130561  0  1.02152  0  0  0.109861  0.123712  0  1.026265  0
H  H7  1  0.64373058  0.25554554  0.80095206  1  0  0.117385  0  0.962415  0  0  0.126583  0  1.024084  0  0  0.130563  0  1.021517  0  0  0.109856  0.123714  0  1.026261  0
H  H8  1  0.35616509  0.94615980  0.41452351  1  0  0.090231  0  0.946457  0  0  0.099687  0  1.008143  0  0  0.101823  0  1.006361  0  0  0.121478  0.098197  0  1.009274  0
H  H9  1  0.64383143  0.05384033  0.58547489  1  0  0.090215  0  0.946433  0  0  0.099666  0  1.008127  0  0  0.101808  0  1.006339  0  0  0.12146  0.098176  0  1.009257  0
H  H10  1  0.34283258  0.34396916  0.81036702  1  0  0.086837  0  0.954992  0  0  0.094892  0  1.018232  0  0  0.097991  0  1.015463  0  0  0.117379  0.092636  0  1.020405  0
H  H11  1  0.65717231  0.65603331  0.18963597  1  0  0.086799  0  0.955032  0  0  0.094876  0  1.018245  0  0  0.097973  0  1.015481  0  0  0.117378  0.092621  0  1.020415  0
H  H12  1  0.35466956  0.56776874  0.02705219  1  0  0.09767  0  0.980963  0  0  0.109061  0  1.042316  0  0  0.111804  0  1.041898  0  0  0.10656  0.106965  0  1.043178  0
H  H13  1  0.64533460  0.43223129  0.97295188  1  0  0.09769  0  0.980966  0  0  0.109064  0  1.04234  0  0  0.111806  0  1.041914  0  0  0.106567  0.106969  0  1.043202  0
H  H14  1  0.95084462  0.22913746  0.09378244  1  0  0.126503  0  0.971986  0  0  0.13347  0  1.034682  0  0  0.137804  0  1.032288  0  0  0.11128  0.130304  0  1.036605  0
H  H15  1  0.04915755  0.77086017  0.90621974  1  0  0.12652  0  0.971971  0  0  0.133472  0  1.034682  0  0  0.137803  0  1.032293  0  0  0.111281  0.130306  0  1.036604  0
H  H16  1  0.95870851  0.02261930  0.87341872  1  0  0.091788  0  0.934976  0  0  0.10035  0  0.996865  0  0  0.103091  0  0.994596  0  0  0.121653  0.098429  0  0.998483  0
H  H17  1  0.04129147  0.97737958  0.12657978  1  0  0.091774  0  0.934985  0  0  0.100337  0  0.996878  0  0  0.103077  0  0.994608  0  0  0.121654  0.098416  0  0.998495  0
H  H18  1  0.67549248  0.64147734  0.61442891  1  0  0.12178  0  0.969144  0  0  0.138748  0  1.032642  0  0  0.140863  0  1.032455  0  0  0.089179  0.137363  0  1.03249  0
H  H19  1  0.32450859  0.35852519  0.38556797  1  0  0.121774  0  0.96923  0  0  0.138796  0  1.032652  0  0  0.140916  0  1.032469  0  0  0.089209  0.137409  0  1.032505  0
H  H20  1  0.50514489  0.70595032  0.52952613  1  0  0.140618  0  0.949043  0  0  0.159795  0  1.007418  0  0  0.161692  0  1.008489  0  0  0.09933  0.158347  0  1.007016  0
H  H21  1  0.49485546  0.29404978  0.47047183  1  0  0.14063  0  0.949053  0  0  0.159797  0  1.007438  0  0  0.161696  0  1.00851  0  0  0.099348  0.158348  0  1.007037  0
H  H22  1  0.60161932  0.56272427  0.43002974  1  0  0.13234  0  0.939467  0  0  0.155317  0  0.993051  0  0  0.15746  0  0.992632  0  0  0.097028  0.153593  0  0.993748  0
H  H23  1  0.39838359  0.43727583  0.56996479  1  0  0.132335  0  0.939508  0  0  0.155301  0  0.993097  0  0  0.157443  0  0.992682  0  0  0.097038  0.153576  0  0.993795  0
H  H24  1  0.42786923  0.71633885  0.89296310  1  0  0.121388  0  0.956345  0  0  0.139563  0  1.01846  0  0  0.141948  0  1.017549  0  0  0.087179  0.137412  0  1.019948  0
H  H25  1  0.57212692  0.28366005  0.10703677  1  0  0.121415  0  0.956337  0  0  0.139586  0  1.018445  0  0  0.141974  0  1.01753  0  0  0.087184  0.137436  0  1.019933  0
H  H26  1  0.59650539  0.90390628  0.96030740  1  0  0.138322  0  0.953552  0  0  0.158941  0  1.010268  0  0  0.160795  0  1.010819  0  0  0.098402  0.157478  0  1.010141  0
H  H27  1  0.40349168  0.09609141  0.03969036  1  0  0.13831  0  0.953598  0  0  0.158923  0  1.010318  0  0  0.160777  0  1.01087  0  0  0.098398  0.157461  0  1.010191  0
H  H28  1  0.59071975  0.75398377  0.80247767  1  0  0.125371  0  0.964038  0  0  0.145266  0  1.025833  0  0  0.147181  0  1.025916  0  0  0.092076  0.1438  0  1.025919  0
H  H29  1  0.40927604  0.24601393  0.19752087  1  0  0.12539  0  0.963982  0  0  0.145287  0  1.025774  0  0  0.147202  0  1.025859  0  0  0.09208  0.14382  0  1.025863  0
C  C30  1  0.06426506  0.64405566  0.42224994  1  0  0.12644  0  3.71774  0  0  0.095931  0  3.966437  0  0  0.101925  0  3.986695  0  0  0.041841  0.092087  0  3.952572  0
C  C31  1  0.93573401  0.35594443  0.57775066  1  0  0.126396  0  3.717796  0  0  0.095888  0  3.966491  0  0  0.101881  0  3.986747  0  0  0.041838  0.092043  0  3.952626  0
C  C32  1  0.05513408  0.51879804  0.30064229  1  0  -0.165656  0  3.689647  0  0  -0.182188  0  3.937099  0  0  -0.189992  0  3.957782  0  0  -0.083634  -0.176837  0  3.922345  0
C  C33  1  0.94486498  0.48120205  0.69935924  1  0  -0.165652  0  3.689663  0  0  -0.182168  0  3.937121  0  0  -0.18997  0  3.957807  0  0  -0.083651  -0.176818  0  3.922367  0
C  C34  1  0.15951763  0.54898122  0.21353877  1  0  0.087739  0  3.74946  0  0  0.098595  0  3.981468  0  0  0.102004  0  4.00385  0  0  0.01065  0.096343  0  3.965964  0
C  C35  1  0.84048363  0.45101763  0.78646364  1  0  0.08781  0  3.749336  0  0  0.098625  0  3.981411  0  0  0.102029  0  4.003795  0  0  0.010688  0.096373  0  3.965906  0
C  C36  1  0.26959390  0.70656340  0.25729785  1  0  -0.142446  0  3.664351  0  0  -0.162799  0  3.914403  0  0  -0.169393  0  3.933626  0  0  -0.076864  -0.158132  0  3.90117  0
C  C37  1  0.73040134  0.29343674  0.74269944  1  0  -0.142429  0  3.66422  0  0  -0.162799  0  3.914283  0  0  -0.169389  0  3.933503  0  0  -0.076813  -0.158132  0  3.90105  0
C  C38  1  0.27047405  0.82434557  0.38093429  1  0  0.152087  0  3.673736  0  0  0.118748  0  3.928909  0  0  0.126429  0  3.94571  0  0  0.055685  0.113686  0  3.916937  0
C  C39  1  0.72952119  0.17565458  0.61906301  1  0  0.152068  0  3.673678  0  0  0.118723  0  3.928877  0  0  0.126399  0  3.945676  0  0  0.055646  0.113661  0  3.916905  0
C  C40  1  0.26058350  0.32501285  0.87824024  1  0  0.125111  0  3.716377  0  0  0.094857  0  3.96871  0  0  0.10129  0  3.987393  0  0  0.045385  0.090493  0  3.956294  0
C  C41  1  0.73941939  0.67498721  0.12176085  1  0  0.125182  0  3.716329  0  0  0.094921  0  3.968646  0  0  0.101354  0  3.987326  0  0  0.045373  0.090557  0  3.956232  0
C  C42  1  0.26481422  0.44895584  0.99911909  1  0  -0.16863  0  3.724441  0  0  -0.187629  0  3.973633  0  0  -0.195808  0  3.996224  0  0  -0.084419  -0.182272  0  3.958601  0
C  C43  1  0.73518867  0.55104421  0.00088388  1  0  -0.168701  0  3.724569  0  0  -0.187695  0  3.973784  0  0  -0.195868  0  3.996368  0  0  -0.084438  -0.182337  0  3.958753  0
C  C44  1  0.15477372  0.41969254  0.08259033  1  0  0.096475  0  3.752552  0  0  0.107491  0  3.983806  0  0  0.11143  0  4.006006  0  0  0.012826  0.104997  0  3.968356  0
C  C45  1  0.84522880  0.58030629  0.91741318  1  0  0.09646  0  3.752595  0  0  0.107479  0  3.983868  0  0  0.111421  0  4.006064  0  0  0.012794  0.104986  0  3.968415  0
C  C46  1  0.04195595  0.26236499  0.03610536  1  0  -0.161547  0  3.664458  0  0  -0.178503  0  3.911346  0  0  -0.186436  0  3.931492  0  0  -0.079867  -0.172769  0  3.89732  0
C  C47  1  0.95804567  0.73763509  0.96389557  1  0  -0.161552  0  3.66444  0  0  -0.178487  0  3.911333  0  0  -0.186425  0  3.931481  0  0  -0.079833  -0.172753  0  3.897307  0
C  C48  1  0.04566320  0.14518333  0.91330814  1  0  0.137587  0  3.682233  0  0  0.10683  0  3.934087  0  0  0.113903  0  3.952126  0  0  0.05311  0.102059  0  3.921564  0
C  C49  1  0.95434025  0.85481429  0.08669326  1  0  0.137631  0  3.682364  0  0  0.106868  0  3.93421  0  0  0.113943  0  3.952248  0  0  0.053082  0.102097  0  3.921689  0
C  C50  1  0.76560526  0.80729564  0.51934502  1  0  0.756371  0  3.852172  0  0  0.708211  0  4.154658  0  0  0.743552  0  4.144548  0  0  0.213013  0.684323  0  4.16083  0
C  C51  1  0.23439489  0.19270811  0.48065489  1  0  0.756253  0  3.85203  0  0  0.708108  0  4.154513  0  0  0.743451  0  4.1444  0  0  0.212957  0.684222  0  4.160687  0
C  C52  1  0.62958175  0.67050907  0.52476229  1  0  -0.45849  0  3.673156  0  0  -0.533891  0  3.908819  0  0  -0.541368  0  3.911667  0  0  -0.250639  -0.528771  0  3.907008  0
C  C53  1  0.37041969  0.32949467  0.47523592  1  0  -0.458471  0  3.673257  0  0  -0.533912  0  3.90894  0  0  -0.541401  0  3.911798  0  0  -0.250688  -0.528791  0  3.907132  0
C  C54  1  0.38968193  0.88084956  0.78919388  1  0  0.713085  0  3.89111  0  0  0.675433  0  4.183382  0  0  0.708142  0  4.177709  0  0  0.185875  0.653374  0  4.186532  0
C  C55  1  0.61031223  0.11914694  0.21080316  1  0  0.712993  0  3.891261  0  0  0.675441  0  4.18339  0  0  0.70815  0  4.177719  0  0  0.185863  0.653383  0  4.186541  0
C  C56  1  0.50676962  0.80818972  0.86602609  1  0  -0.445292  0  3.670568  0  0  -0.518789  0  3.89844  0  0  -0.525827  0  3.90198  0  0  -0.250999  -0.513813  0  3.896524  0
C  C57  1  0.49322909  0.19180917  0.13397224  1  0  -0.44531  0  3.670595  0  0  -0.51882  0  3.898438  0  0  -0.525859  0  3.901978  0  0  -0.250997  -0.513844  0  3.896522  0
N  N58  1  0.16861204  0.79538635  0.46264972  1  0  -0.325801  0  3.278078  0  0  -0.247926  0  3.544431  0  0  -0.266487  0  3.561111  0  0  -0.315994  -0.234891  0  3.532351  0
N  N59  1  0.83138611  0.20461497  0.53735205  1  0  -0.325756  0  3.27812  0  0  -0.247874  0  3.544451  0  0  -0.266434  0  3.561132  0  0  -0.315979  -0.234841  0  3.532371  0
N  N60  1  0.15364174  0.17442426  0.83534531  1  0  -0.305929  0  3.248105  0  0  -0.229184  0  3.51131  0  0  -0.247311  0  3.52852  0  0  -0.313146  -0.216519  0  3.499365  0
N  N61  1  0.84636243  0.82557580  0.16465501  1  0  -0.305959  0  3.248072  0  0  -0.229216  0  3.5113  0  0  -0.247342  0  3.528508  0  0  -0.313125  -0.216555  0  3.499364  0
O  O62  1  0.89706377  0.88396406  0.62353353  1  0  -0.654299  0  2.076005  0  0  -0.588854  0  2.352604  0  0  -0.616096  0  2.337393  0  0  -0.322501  -0.570695  0  2.361872  0
O  O63  1  0.10293511  0.11603970  0.37646528  1  0  -0.654263  0  2.075924  0  0  -0.588804  0  2.352509  0  0  -0.616044  0  2.337295  0  0  -0.32245  -0.570645  0  2.361778  0
O  O64  1  0.45905940  0.98533319  0.74563455  1  0  -0.64635  0  1.896413  0  0  -0.590763  0  2.127628  0  0  -0.617156  0  2.119506  0  0  -0.333039  -0.572264  0  2.132971  0
O  O65  1  0.54093694  0.01466208  0.25436243  1  0  -0.646314  0  1.896544  0  0  -0.59076  0  2.127724  0  0  -0.617151  0  2.119606  0  0  -0.333016  -0.572252  0  2.133049  0
O  O66  1  0.22056743  0.83418369  0.76955802  1  0  -0.669369  0  1.973959  0  0  -0.602596  0  2.216322  0  0  -0.631044  0  2.206064  0  0  -0.333917  -0.583189  0  2.222821  0
O  O67  1  0.77942835  0.16581399  0.23044240  1  0  -0.669319  0  1.973867  0  0  -0.602608  0  2.216216  0  0  -0.631069  0  2.205992  0  0  -0.333934  -0.583203  0  2.222716  0
O  O68  1  0.73592443  0.83464239  0.40894641  1  0  -0.657959  0  2.093775  0  0  -0.589923  0  2.373944  0  0  -0.618199  0  2.359225  0  0  -0.321627  -0.571372  0  2.383722  0
O  O69  1  0.26407445  0.16536136  0.59105427  1  0  -0.657897  0  2.093703  0  0  -0.5899  0  2.373903  0  0  -0.618176  0  2.359183  0  0  -0.32163  -0.571339  0  2.383655  0
