# generated using pymatgen
data_ZnH6C12N2(ClO2)2
_symmetry_space_group_name_H-M   'P 1'
_cell_length_a   7.86089694
_cell_length_b   7.86085244
_cell_length_c   11.77971887
_cell_angle_alpha   86.84010695
_cell_angle_beta   86.84027115
_cell_angle_gamma   76.58936589
_symmetry_Int_Tables_number   1
_chemical_formula_structural   ZnH6C12N2(ClO2)2
_chemical_formula_sum   'Zn2 H12 C24 N4 Cl4 O8'
_cell_volume   706.31184722
_cell_formula_units_Z   2
loop_
 _symmetry_equiv_pos_site_id
 _symmetry_equiv_pos_as_xyz
  1  'x, y, z'
loop_
 _atom_site_type_symbol
 _atom_site_label
 _atom_site_symmetry_multiplicity
 _atom_site_fract_x
 _atom_site_fract_y
 _atom_site_fract_z
 _atom_site_occupancy
 _atom_site_hle17_bader_spin_density
 _atom_site_hle17_ddec_charge
 _atom_site_hle17_ddec_spin_density
 _atom_site_hle17_ddec_sum_bond_order
 _atom_site_hle17_magmom
 _atom_site_hse06_10hf_bader_spin_density
 _atom_site_hse06_10hf_ddec_charge
 _atom_site_hse06_10hf_ddec_spin_density
 _atom_site_hse06_10hf_ddec_sum_bond_order
 _atom_site_hse06_10hf_magmom
 _atom_site_hse06_bader_spin_density
 _atom_site_hse06_ddec_charge
 _atom_site_hse06_ddec_spin_density
 _atom_site_hse06_ddec_sum_bond_order
 _atom_site_hse06_magmom
 _atom_site_pbe_bader_spin_density
 _atom_site_pbe_cm5_charge
 _atom_site_pbe_ddec_charge
 _atom_site_pbe_ddec_spin_density
 _atom_site_pbe_ddec_sum_bond_order
 _atom_site_pbe_magmom
Zn  Zn0  1  0.60015686  0.39984094  0.74999717  1  0  0.980704  0  1.829649  0  0  0.794267  0  2.280347  0  0  0.844755  0  2.228294  0  0  0.682472  0.758812  0  2.316101  0
Zn  Zn1  1  0.39984445  0.60016162  0.25000317  1  0  0.980672  0  1.829701  0  0  0.794228  0  2.280406  0  0  0.844716  0  2.228355  0  0  0.682466  0.75877  0  2.316159  0
H  H2  1  0.96975906  0.42995110  0.77886538  1  0  0.098143  0  0.934256  0  0  0.102404  0  1.003736  0  0  0.106279  0  0.999317  0  0  0.119719  0.099585  0  1.00688  0
H  H3  1  0.57004700  0.03023641  0.72112933  1  0  0.098144  0  0.934252  0  0  0.102398  0  1.00375  0  0  0.106277  0  0.999325  0  0  0.11969  0.099577  0  1.006896  0
H  H4  1  0.03024197  0.57005277  0.22113493  1  0  0.0982  0  0.934227  0  0  0.102433  0  1.003723  0  0  0.106308  0  0.999307  0  0  0.119735  0.099614  0  1.006867  0
H  H5  1  0.42995560  0.96976614  0.27886928  1  0  0.098131  0  0.934224  0  0  0.102389  0  1.003727  0  0  0.106267  0  0.999303  0  0  0.119682  0.099568  0  1.006873  0
H  H6  1  0.72011047  0.27143964  0.51493766  1  0  0.12172  0  0.910549  0  0  0.131137  0  0.967624  0  0  0.134825  0  0.96386  0  0  0.129846  0.128395  0  0.97043  0
H  H7  1  0.72855872  0.27988736  0.98505943  1  0  0.121803  0  0.910521  0  0  0.131237  0  0.967574  0  0  0.134919  0  0.963811  0  0  0.129878  0.128495  0  0.970378  0
H  H8  1  0.27988984  0.72856163  0.48506362  1  0  0.121708  0  0.910524  0  0  0.131124  0  0.967607  0  0  0.13481  0  0.963843  0  0  0.129848  0.128383  0  0.97041  0
H  H9  1  0.27143831  0.72011135  0.01494289  1  0  0.121794  0  0.910544  0  0  0.131227  0  0.967591  0  0  0.13491  0  0.963829  0  0  0.129883  0.128467  0  0.970416  0
H  H10  1  0.27646888  0.24991437  0.47528750  1  0  0.147397  0  0.918688  0  0  0.156083  0  0.978306  0  0  0.160242  0  0.974167  0  0  0.119925  0.153008  0  0.981325  0
H  H11  1  0.75008174  0.72352629  0.02470702  1  0  0.147385  0  0.918676  0  0  0.15604  0  0.978323  0  0  0.1602  0  0.974181  0  0  0.119908  0.15297  0  0.981339  0
H  H12  1  0.72353116  0.75008822  0.52471204  1  0  0.14738  0  0.91873  0  0  0.156061  0  0.978351  0  0  0.160221  0  0.97421  0  0  0.119919  0.152987  0  0.981369  0
H  H13  1  0.24991559  0.27647113  0.97529109  1  0  0.147366  0  0.91873  0  0  0.156044  0  0.978358  0  0  0.160204  0  0.974218  0  0  0.119913  0.152973  0  0.981376  0
C  C14  1  0.29843285  0.37566369  0.68927703  1  0  0.621859  0  3.949463  0  0  0.572217  0  4.242244  0  0  0.606382  0  4.237087  0  0  0.192007  0.549196  0  4.244899  0
C  C15  1  0.62432235  0.70156417  0.81072174  1  0  0.621961  0  3.94943  0  0  0.572289  0  4.242236  0  0  0.606476  0  4.237076  0  0  0.192106  0.549267  0  4.244891  0
C  C16  1  0.70157099  0.62432709  0.31072533  1  0  0.621728  0  3.949503  0  0  0.57207  0  4.242325  0  0  0.606236  0  4.237165  0  0  0.191971  0.549048  0  4.244977  0
C  C17  1  0.37567102  0.29843983  0.18927713  1  0  0.621862  0  3.949278  0  0  0.572229  0  4.242044  0  0  0.606409  0  4.236882  0  0  0.192084  0.549207  0  4.244698  0
C  C18  1  0.14236906  0.34214976  0.63431972  1  0  -0.087591  0  3.751477  0  0  -0.060871  0  3.991851  0  0  -0.073269  0  4.015228  0  0  -0.010386  -0.053271  0  3.976572  0
C  C19  1  0.65784428  0.85762644  0.86567702  1  0  -0.08766  0  3.751504  0  0  -0.06088  0  3.991798  0  0  -0.073343  0  4.015267  0  0  -0.010473  -0.053282  0  3.976522  0
C  C20  1  0.85763153  0.65785020  0.36568159  1  0  -0.087581  0  3.751528  0  0  -0.060902  0  3.99194  0  0  -0.0733  0  4.01532  0  0  -0.01041  -0.053301  0  3.97666  0
C  C21  1  0.34215193  0.14237622  0.13432094  1  0  -0.087717  0  3.751642  0  0  -0.060948  0  3.991982  0  0  -0.07339  0  4.015422  0  0  -0.010451  -0.053349  0  3.976706  0
C  C22  1  0.98084896  0.37784574  0.69430047  1  0  0.111442  0  3.679479  0  0  0.060363  0  3.942457  0  0  0.069908  0  3.958588  0  0  0.047684  0.054245  0  3.931596  0
C  C23  1  0.62214717  0.01914907  0.80569693  1  0  0.111482  0  3.67959  0  0  0.06038  0  3.942558  0  0  0.069939  0  3.958716  0  0  0.047764  0.054261  0  3.931695  0
C  C24  1  0.01915191  0.62215290  0.30570173  1  0  0.111343  0  3.679683  0  0  0.060314  0  3.942646  0  0  0.069856  0  3.958783  0  0  0.047649  0.054194  0  3.931783  0
C  C25  1  0.37785415  0.98085350  0.19430256  1  0  0.111526  0  3.679466  0  0  0.060409  0  3.942456  0  0  0.069963  0  3.958606  0  0  0.047762  0.054289  0  3.931593  0
C  C26  1  0.84237268  0.28839127  0.54703628  1  0  0.075536  0  3.656362  0  0  0.029798  0  3.913426  0  0  0.038511  0  3.927259  0  0  0.048745  0.024265  0  3.904114  0
C  C27  1  0.71160706  0.15762601  0.95295917  1  0  0.075246  0  3.656394  0  0  0.029455  0  3.913565  0  0  0.038212  0  3.927318  0  0  0.04862  0.023922  0  3.904251  0
C  C28  1  0.15762919  0.71160868  0.45296413  1  0  0.075545  0  3.656301  0  0  0.029791  0  3.913386  0  0  0.038509  0  3.927208  0  0  0.048736  0.024256  0  3.904073  0
C  C29  1  0.28839484  0.84237395  0.04703785  1  0  0.075287  0  3.656305  0  0  0.029484  0  3.913456  0  0  0.038239  0  3.927213  0  0  0.048638  0.023966  0  3.904147  0
C  C30  1  0.99997219  0.24939815  0.48279375  1  0  0.078504  0  3.811667  0  0  0.092741  0  4.089131  0  0  0.090039  0  4.111914  0  0  0.015608  0.093939  0  4.07392  0
C  C31  1  0.75060187  0.00002440  0.01720207  1  0  0.078708  0  3.811494  0  0  0.092915  0  4.08897  0  0  0.090207  0  4.111762  0  0  0.015658  0.094113  0  4.073761  0
C  C32  1  0.00003068  0.75060308  0.51720744  1  0  0.078525  0  3.811658  0  0  0.092776  0  4.089097  0  0  0.090073  0  4.111882  0  0  0.015591  0.093974  0  4.073887  0
C  C33  1  0.24939958  0.99997165  0.98279679  1  0  0.078608  0  3.811689  0  0  0.092862  0  4.089126  0  0  0.090154  0  4.111921  0  0  0.015621  0.09406  0  4.073912  0
C  C34  1  0.15314543  0.27638890  0.52561063  1  0  -0.064921  0  3.63251  0  0  -0.105862  0  3.881756  0  0  -0.100509  0  3.897169  0  0  -0.060337  -0.108932  0  3.871376  0
C  C35  1  0.72360568  0.84684984  0.97438617  1  0  -0.064988  0  3.6324  0  0  -0.105876  0  3.881616  0  0  -0.100513  0  3.897064  0  0  -0.060325  -0.108949  0  3.871239  0
C  C36  1  0.84685232  0.72361241  0.47439073  1  0  -0.064898  0  3.63249  0  0  -0.105819  0  3.881736  0  0  -0.10046  0  3.897139  0  0  -0.060307  -0.108889  0  3.871356  0
C  C37  1  0.27639265  0.15314887  0.02561271  1  0  -0.064882  0  3.632543  0  0  -0.105824  0  3.881786  0  0  -0.100468  0  3.897228  0  0  -0.060333  -0.1089  0  3.871413  0
N  N38  1  0.83484959  0.35156367  0.65137390  1  0  -0.30475  0  3.317885  0  0  -0.221847  0  3.598327  0  0  -0.242125  0  3.615298  0  0  -0.322734  -0.208237  0  3.586697  0
N  N39  1  0.64843482  0.16514550  0.84862161  1  0  -0.304665  0  3.317898  0  0  -0.221729  0  3.598303  0  0  -0.242015  0  3.61528  0  0  -0.322695  -0.208114  0  3.586665  0
N  N40  1  0.16515045  0.64843891  0.34862564  1  0  -0.304723  0  3.317998  0  0  -0.221814  0  3.598427  0  0  -0.242091  0  3.6154  0  0  -0.322706  -0.208199  0  3.58679  0
N  N41  1  0.35156805  0.83485573  0.15137873  1  0  -0.304656  0  3.317647  0  0  -0.22169  0  3.598023  0  0  -0.241975  0  3.614998  0  0  -0.322682  -0.208071  0  3.586376  0
Cl  Cl42  1  0.00020369  0.17137473  0.34899081  1  0  -0.061826  0  1.413619  0  0  -0.043313  0  1.648429  0  0  -0.049323  0  1.647754  0  0  0.023709  -0.038958  0  1.649077  0
Cl  Cl43  1  0.82862473  0.99979234  0.15100424  1  0  -0.061816  0  1.413599  0  0  -0.043286  0  1.648414  0  0  -0.049304  0  1.647748  0  0  0.023742  -0.038931  0  1.649064  0
Cl  Cl44  1  0.99979562  0.82862525  0.65101054  1  0  -0.06183  0  1.4137  0  0  -0.043317  0  1.648502  0  0  -0.049328  0  1.647828  0  0  0.023727  -0.038963  0  1.649151  0
Cl  Cl45  1  0.17137131  0.00020507  0.84899730  1  0  -0.061784  0  1.413656  0  0  -0.043264  0  1.64845  0  0  -0.049283  0  1.647784  0  0  0.023754  -0.03891  0  1.649099  0
O  O46  1  0.28253038  0.43004284  0.78860550  1  0  -0.60515  0  1.903139  0  0  -0.560361  0  2.129153  0  0  -0.584267  0  2.118766  0  0  -0.31933  -0.543682  0  2.135713  0
O  O47  1  0.56994555  0.71746481  0.71139149  1  0  -0.605211  0  1.903134  0  0  -0.560406  0  2.12915  0  0  -0.584312  0  2.118752  0  0  -0.319397  -0.543732  0  2.135723  0
O  O48  1  0.71747417  0.56995054  0.21139590  1  0  -0.605046  0  1.903115  0  0  -0.560238  0  2.129121  0  0  -0.584144  0  2.118734  0  0  -0.319284  -0.543569  0  2.135701  0
O  O49  1  0.43004938  0.28253786  0.28860737  1  0  -0.605198  0  1.903084  0  0  -0.560397  0  2.129088  0  0  -0.584304  0  2.118693  0  0  -0.31941  -0.543719  0  2.135653  0
O  O50  1  0.44524315  0.34445068  0.63066835  1  0  -0.620742  0  1.977538  0  0  -0.549649  0  2.222746  0  0  -0.579095  0  2.210617  0  0  -0.325697  -0.528981  0  2.230287  0
O  O51  1  0.65554021  0.55475370  0.86933042  1  0  -0.620715  0  1.977496  0  0  -0.549648  0  2.222751  0  0  -0.579101  0  2.210627  0  0  -0.325704  -0.528979  0  2.230289  0
O  O52  1  0.55475956  0.65554533  0.36933302  1  0  -0.620707  0  1.977519  0  0  -0.549614  0  2.222769  0  0  -0.579065  0  2.210644  0  0  -0.325721  -0.528946  0  2.230308  0
O  O53  1  0.34445572  0.44525025  0.13066921  1  0  -0.620651  0  1.977376  0  0  -0.549613  0  2.222637  0  0  -0.579063  0  2.210512  0  0  -0.32568  -0.528944  0  2.230173  0
