# generated using pymatgen
data_CuH18C16(N2Cl)2
_symmetry_space_group_name_H-M   'P 1'
_cell_length_a   8.57948204
_cell_length_b   10.85227868
_cell_length_c   13.00169675
_cell_angle_alpha   106.33177815
_cell_angle_beta   90.11981496
_cell_angle_gamma   113.38659246
_symmetry_Int_Tables_number   1
_chemical_formula_structural   CuH18C16(N2Cl)2
_chemical_formula_sum   'Cu2 H36 C32 N8 Cl4'
_cell_volume   1057.34290152
_cell_formula_units_Z   2
loop_
 _symmetry_equiv_pos_site_id
 _symmetry_equiv_pos_as_xyz
  1  'x, y, z'
loop_
 _atom_site_type_symbol
 _atom_site_label
 _atom_site_symmetry_multiplicity
 _atom_site_fract_x
 _atom_site_fract_y
 _atom_site_fract_z
 _atom_site_occupancy
 _atom_site_hle17_ddec_charge
 _atom_site_hle17_ddec_spin_density
 _atom_site_hle17_ddec_sum_bond_order
 _atom_site_hle17_magmom
 _atom_site_hse06_10hf_ddec_charge
 _atom_site_hse06_10hf_ddec_spin_density
 _atom_site_hse06_10hf_ddec_sum_bond_order
 _atom_site_hse06_10hf_magmom
 _atom_site_hse06_ddec_charge
 _atom_site_hse06_ddec_spin_density
 _atom_site_hse06_ddec_sum_bond_order
 _atom_site_hse06_magmom
 _atom_site_pbe_cm5_charge
 _atom_site_pbe_ddec_charge
 _atom_site_pbe_ddec_spin_density
 _atom_site_pbe_ddec_sum_bond_order
 _atom_site_pbe_magmom
Cu  Cu0  1  0.21171463  0.49460170  0.23975423  1  0.718606  -0.637787  2.054422  -0.452  0.707934  -0.756353  2.483312  -0.588  0.809802  -0.844706  2.399752  -0.689  0.611526  0.649879  -0.696601  2.536978  -0.527
Cu  Cu1  1  0.78827804  0.50539399  0.76024173  1  0.718623  0.637786  2.054432  0.452  0.707954  0.75635  2.483328  0.588  0.809859  0.844707  2.399751  0.689  0.611536  0.649904  0.696607  2.536987  0.527
H  H2  1  0.23529619  0.48590025  0.63519046  1  0.116548  -0.000231  0.969528  0.0  0.129571  -0.000279  1.028119  0.0  0.132155  -0.000196  1.026907  0.0  0.121093  0.127656  -0.000342  1.029082  0.0
H  H3  1  0.76470245  0.51410298  0.36481258  1  0.116481  0.000229  0.969647  0.0  0.129558  0.000279  1.028172  0.0  0.13214  0.000196  1.026959  0.0  0.121088  0.127627  0.000342  1.029154  0.0
H  H4  1  0.38946805  0.61392125  0.47992722  1  0.106871  0.000102  0.97238  0.0  0.115432  -2.7e-05  1.033378  0.0  0.118754  -1.6e-05  1.031404  0.0  0.108051  0.113167  -5.1e-05  1.03465  0.0
H  H5  1  0.61052375  0.38607971  0.52006987  1  0.106845  -0.000103  0.972377  0.0  0.115442  2.7e-05  1.033345  0.0  0.118758  1.7e-05  1.031383  0.0  0.10805  0.113174  5.1e-05  1.034619  0.0
H  H6  1  0.87955820  0.27142540  0.23963874  1  0.131731  0.000189  0.987032  0.0  0.147193  0.000154  1.056139  0.0  0.148963  0.000209  1.056303  0.0  0.089631  0.145733  5.4e-05  1.056391  0.0
H  H7  1  0.12042022  0.72858416  0.76036851  1  0.131635  -0.000191  0.987061  0.0  0.14708  -0.000154  1.056195  0.0  0.14885  -0.000209  1.056359  0.0  0.089599  0.145612  -5.3e-05  1.056452  0.0
H  H8  1  0.75515877  0.22784317  0.34336775  1  0.126182  -1.3e-05  0.933981  0.0  0.148261  7.3e-05  0.990573  0.0  0.150977  7.6e-05  0.989282  0.0  0.100369  0.146446  6.2e-05  0.991436  0.0
H  H9  1  0.24482823  0.77216960  0.65664106  1  0.126073  1.3e-05  0.934045  0.0  0.148172  -7.3e-05  0.990631  0.0  0.150889  -7.6e-05  0.989341  0.0  0.100293  0.146358  -6.2e-05  0.991492  0.0
H  H10  1  0.88338201  0.13611315  0.29166045  1  0.130474  1.8e-05  0.928295  0.0  0.152546  -8e-06  0.983455  0.0  0.15519  8e-06  0.98252  0.0  0.100219  0.150829  -2.5e-05  0.984024  0.0
H  H11  1  0.11659970  0.86389091  0.70833642  1  0.130326  -1.5e-05  0.928326  0.0  0.152484  8e-06  0.983413  0.0  0.15512  -8e-06  0.982487  0.0  0.100221  0.150766  2.5e-05  0.983984  0.0
H  H12  1  0.79471284  0.22310011  0.51848408  1  0.083879  1.6e-05  0.926998  0.0  0.097679  3e-06  0.991334  0.0  0.098985  -8e-06  0.990175  0.0  0.111882  0.096622  1.8e-05  0.992346  0.0
H  H13  1  0.20529130  0.77689800  0.48152253  1  0.08393  -1.1e-05  0.926817  0.0  0.097695  -3e-06  0.991224  0.0  0.09901  8e-06  0.990055  0.0  0.111874  0.096635  -1.8e-05  0.992238  0.0
H  H14  1  0.94719954  0.30421426  0.63547590  1  0.091015  -0.000494  0.946524  0.0  0.099857  -0.000317  1.019686  0.0  0.101225  -0.000231  1.018351  0.0  0.106317  0.098476  -0.000359  1.021233  0.0
H  H15  1  0.05280208  0.69577825  0.36451716  1  0.091036  0.000487  0.946591  0.0  0.099881  0.000317  1.019766  0.0  0.101249  0.000232  1.018433  0.0  0.106334  0.098495  0.000359  1.021314  0.0
H  H16  1  0.21843107  0.23130228  0.61374279  1  0.091411  6.7e-05  0.982201  0.0  0.101756  0.000112  1.047703  0.0  0.10543  9e-05  1.04496  0.0  0.087326  0.098952  0.000112  1.049975  0.0
H  H17  1  0.78157814  0.76870080  0.38625341  1  0.091474  -6.6e-05  0.982211  0.0  0.10182  -0.000112  1.047706  0.0  0.105507  -9e-05  1.044946  0.0  0.087343  0.099015  -0.000112  1.049976  0.0
H  H18  1  0.71789052  0.97712748  0.42776395  1  0.091968  -0.000889  0.957919  0.0  0.102907  -0.000933  1.017942  0.0  0.106527  -0.000665  1.015851  0.0  0.093482  0.100139  -0.001122  1.019811  0.0
H  H19  1  0.28211246  0.02287237  0.57222994  1  0.091938  0.000891  0.958003  0.0  0.102892  0.000933  1.018004  0.0  0.106511  0.000665  1.015913  0.0  0.093473  0.100124  0.001122  1.019873  0.0
H  H20  1  0.29769326  0.29007690  0.84294344  1  0.121838  -0.000158  0.959603  0.0  0.131395  -0.00021  1.021749  0.0  0.135061  -0.000137  1.019157  0.0  0.116493  0.128898  -0.000265  1.023416  0.0
H  H21  1  0.70232004  0.70992529  0.15705799  1  0.121762  0.000161  0.959607  0.0  0.131299  0.000211  1.021789  0.0  0.13496  0.000136  1.019204  0.0  0.116448  0.12881  0.000265  1.023451  0.0
H  H22  1  0.10390789  0.40232499  0.98042965  1  0.107943  0.000417  0.982844  0.0  0.112859  0.000345  1.050854  0.0  0.115934  0.000228  1.04853  0.0  0.102617  0.110831  0.000423  1.052135  0.0
H  H23  1  0.89609212  0.59766445  0.01956658  1  0.107957  -0.000415  0.982907  0.0  0.112898  -0.000345  1.050868  0.0  0.115973  -0.000228  1.048544  0.0  0.102642  0.11087  -0.000423  1.052141  0.0
H  H24  1  0.48000356  0.42820642  0.26878538  1  0.127474  0.000178  0.965161  0.0  0.141715  3.1e-05  1.03411  0.0  0.142805  0.000109  1.034072  0.0  0.092253  0.140691  -8.9e-05  1.034456  0.0
H  H25  1  0.51999204  0.57178836  0.73121503  1  0.127563  -0.00018  0.965093  0.0  0.141811  -3.1e-05  1.034013  0.0  0.1429  -0.000109  1.033975  0.0  0.09227  0.140783  8.8e-05  1.034362  0.0
H  H26  1  0.64992064  0.42901422  0.18933687  1  0.133004  -0.000425  0.977812  0.0  0.151922  -0.00043  1.041221  0.0  0.155811  -0.000317  1.038392  0.0  0.08782  0.14936  -0.000502  1.043044  0.0
H  H27  1  0.35007310  0.57098175  0.81066916  1  0.133163  0.000425  0.977608  0.0  0.152064  0.00043  1.041022  0.0  0.155931  0.000317  1.038217  0.0  0.087888  0.149502  0.000502  1.042851  0.0
H  H28  1  0.49021842  0.26617824  0.19345902  1  0.131547  -0.000161  0.925618  0.0  0.153708  -4.5e-05  0.978984  0.0  0.155653  -1e-06  0.979074  0.0  0.100249  0.152507  -0.000108  0.97878  0.0
H  H29  1  0.50977885  0.73381768  0.80654473  1  0.131569  0.000158  0.925587  0.0  0.153742  4.5e-05  0.978933  0.0  0.155691  1e-06  0.979016  0.0  0.100224  0.152542  0.000109  0.978731  0.0
H  H30  1  0.68247552  0.34533262  0.99959425  1  0.088833  -4e-05  0.940624  0.0  0.100904  -0.000162  1.008732  0.0  0.102084  -0.000133  1.007967  0.0  0.107892  0.099949  -0.000161  1.009402  0.0
H  H31  1  0.31753012  0.65467063  0.00040887  1  0.088882  3.8e-05  0.940613  0.0  0.100974  0.000161  1.00868  0.0  0.102154  0.000133  1.007915  0.0  0.107914  0.100018  0.000161  1.009352  0.0
H  H32  1  0.55623680  0.25345418  0.87195232  1  0.096407  -0.000503  0.950052  0.0  0.109068  -0.000289  1.016166  0.0  0.111045  -0.000203  1.014402  0.0  0.105113  0.107597  -0.000354  1.017708  0.0
H  H33  1  0.44377587  0.74654906  0.12804934  1  0.096416  0.000501  0.95013  0.0  0.109099  0.000289  1.016232  0.0  0.111076  0.000204  1.014467  0.0  0.105117  0.107624  0.000354  1.017785  0.0
H  H34  1  0.25116054  0.03293186  0.93441559  1  0.092446  -4e-06  0.944378  0.0  0.105071  -6e-06  1.000176  0.0  0.10804  -2e-06  0.999137  0.0  0.100415  0.102803  -1.2e-05  1.001131  0.0
H  H35  1  0.74885209  0.96707146  0.06558916  1  0.092529  -0.0  0.944284  0.0  0.105094  7e-06  1.000134  0.0  0.108061  2e-06  0.999098  0.0  0.100428  0.102824  1.2e-05  1.001088  0.0
H  H36  1  0.79250567  0.19246067  0.03261193  1  0.095108  0.00012  0.964099  0.0  0.105371  6.8e-05  1.025459  0.0  0.108298  5.9e-05  1.024287  0.0  0.095997  0.103106  6.8e-05  1.026576  0.0
H  H37  1  0.20750423  0.80753944  0.96739056  1  0.095132  -0.000119  0.964104  0.0  0.105368  -6.8e-05  1.025477  0.0  0.108314  -6e-05  1.024288  0.0  0.096017  0.103101  -6.8e-05  1.026595  0.0
C  C38  1  0.02405002  0.34796627  0.39384444  1  0.3738  -0.003918  3.666141  -0.004  0.353998  -0.003312  3.936304  -0.003  0.372269  -0.002081  3.952002  -0.002  0.218727  0.342531  -0.004299  3.92506  -0.004
C  C39  1  0.97594516  0.65203681  0.60615314  1  0.373892  0.003922  3.666118  0.004  0.354087  0.003315  3.936261  0.003  0.37236  0.002084  3.951954  0.002  0.218794  0.342619  0.004301  3.925018  0.004
C  C40  1  0.19630664  0.46211369  0.55015091  1  -0.050262  -0.008332  3.68446  -0.008  -0.093675  -0.002675  3.943708  -0.003  -0.09196  -0.001723  3.961781  -0.002  0.000512  -0.094313  -0.003549  3.930664  -0.003
C  C41  1  0.80368907  0.53789043  0.44984690  1  -0.050187  0.008318  3.684472  0.008  -0.093646  0.002674  3.943692  0.003  -0.091928  0.001723  3.961759  0.002  0.00046  -0.094269  0.00355  3.930656  0.003
C  C42  1  0.26924565  0.52459416  0.47408338  1  -0.012727  0.004797  3.785144  0.005  -0.044257  0.000502  4.05857  0.001  -0.041028  0.000637  4.080015  0.001  -0.016456  -0.045728  0.000333  4.043835  0.0
C  C43  1  0.73074890  0.47540996  0.52591441  1  -0.012753  -0.004776  3.785143  -0.005  -0.044324  -0.000503  4.058591  -0.001  -0.04109  -0.000638  4.080049  -0.001  -0.016405  -0.045794  -0.000333  4.043849  0.0
C  C44  1  0.87783346  0.23969664  0.31258029  1  -0.395206  0.00036  3.731815  0.0  -0.476902  8.9e-05  3.970493  0.0  -0.482117  0.000177  3.976294  0.0  -0.234441  -0.473348  -5.7e-05  3.966316  0.0
C  C45  1  0.12214819  0.76030758  0.68742276  1  -0.394861  -0.000361  3.731798  0.0  -0.476624  -8.9e-05  3.970435  0.0  -0.481831  -0.000179  3.976241  0.0  -0.234325  -0.473059  5.6e-05  3.966265  0.0
C  C46  1  0.92741682  0.24971421  0.54819950  1  -0.036376  -0.001016  3.641114  -0.001  -0.102251  -0.00078  3.888788  -0.001  -0.098026  -0.000583  3.899392  -0.001  -0.047535  -0.104866  -0.00093  3.881898  -0.001
C  C47  1  0.07258519  0.75028152  0.45179657  1  -0.036441  0.001016  3.641041  0.001  -0.10236  0.000782  3.888775  0.001  -0.098144  0.000581  3.899381  0.001  -0.047499  -0.104964  0.000929  3.881883  0.001
C  C48  1  0.96309425  0.11954244  0.52407012  1  0.063058  0.000763  3.7562  0.001  0.084248  0.000161  3.991804  0.0  0.082278  0.000118  4.018419  0.0  -0.017282  0.085306  0.000126  3.973936  0.0
C  C49  1  0.03691165  0.88045652  0.47592901  1  0.06318  -0.000761  3.756119  -0.001  0.08437  -0.000165  3.991711  0.0  0.0824  -0.000119  4.018327  0.0  -0.017238  0.085425  -0.000126  3.973849  0.0
C  C50  1  0.12110965  0.13019468  0.56401252  1  -0.110551  -0.000298  3.75289  0.0  -0.130883  0.000174  3.995316  0.0  -0.133356  0.000136  4.016895  0.0  -0.09889  -0.129282  0.000196  3.981091  0.0
C  C51  1  0.87889798  0.86980523  0.43598298  1  -0.110774  0.000298  3.752936  0.0  -0.131097  -0.000171  3.995345  0.0  -0.13358  -0.000135  4.016918  0.0  -0.09899  -0.129493  -0.000196  3.981121  0.0
C  C52  1  0.84211293  0.98816325  0.45987612  1  -0.119218  -0.001177  3.772737  -0.001  -0.135948  -0.000828  4.014808  -0.001  -0.139054  -0.000591  4.037169  -0.001  -0.096115  -0.133779  -0.001033  3.999999  -0.001
C  C53  1  0.15789005  0.01183660  0.54011778  1  -0.119233  0.001173  3.772856  0.001  -0.135964  0.00083  4.014904  0.001  -0.139068  0.000591  4.03726  0.001  -0.096097  -0.133795  0.001032  4.000098  0.001
C  C54  1  0.40748152  0.36794280  0.10035735  1  0.375112  -0.007504  3.672826  -0.007  0.353079  -0.004363  3.943147  -0.004  0.370327  -0.002679  3.960195  -0.003  0.21683  0.342319  -0.005833  3.931341  -0.006
C  C55  1  0.59252191  0.63205830  0.89964374  1  0.37526  0.007513  3.672783  0.007  0.353188  0.004364  3.943153  0.004  0.370436  0.002676  3.960197  0.003  0.216904  0.342428  0.005832  3.931345  0.006
C  C56  1  0.30351128  0.32287194  0.93020622  1  -0.053761  -0.01263  3.670284  -0.012  -0.102448  -0.003235  3.937782  -0.003  -0.10159  -0.001979  3.955439  -0.002  -0.002088  -0.102119  -0.004394  3.924507  -0.004
C  C57  1  0.69649853  0.67713023  0.06979518  1  -0.053593  0.01263  3.670051  0.012  -0.102261  0.003236  3.937561  0.003  -0.101403  0.001979  3.955216  0.002  -0.001974  -0.101949  0.004394  3.924291  0.004
C  C58  1  0.21073525  0.37914409  0.99870151  1  -0.002226  0.006656  3.765178  0.007  -0.037232  0.001742  4.047308  0.002  -0.033116  0.001611  4.068817  0.002  -0.014787  -0.038923  0.001739  4.031984  0.002
C  C59  1  0.78926404  0.62084840  0.00129153  1  -0.002302  -0.006658  3.765168  -0.007  -0.037316  -0.001743  4.047341  -0.002  -0.033196  -0.001613  4.068845  -0.002  -0.014848  -0.039005  -0.00174  4.032008  -0.002
C  C60  1  0.51240037  0.37324505  0.19334355  1  -0.399756  -0.000168  3.72254  0.0  -0.478868  -0.000649  3.96063  -0.001  -0.483846  -0.000363  3.966235  -0.001  -0.238842  -0.475282  -0.000974  3.956431  -0.001
C  C61  1  0.48759532  0.62674768  0.80665874  1  -0.400115  0.000168  3.722467  0.0  -0.479191  0.000649  3.960514  0.001  -0.484155  0.000363  3.966138  0.001  -0.238937  -0.475605  0.000974  3.956325  0.001
C  C62  1  0.55627330  0.26424533  0.95869255  1  -0.042862  -0.001346  3.634717  -0.002  -0.106075  -0.001069  3.875957  -0.001  -0.102515  -0.000802  3.886595  -0.001  -0.050234  -0.10832  -0.001219  3.868686  -0.001
C  C63  1  0.44373415  0.73575688  0.04131037  1  -0.043059  0.001346  3.634639  0.002  -0.106354  0.001071  3.875988  0.001  -0.102794  0.0008  3.886625  0.001  -0.050326  -0.108593  0.001219  3.868716  0.001
C  C64  1  0.52546232  0.12730164  0.98016639  1  0.066868  0.00089  3.75983  0.001  0.086996  0.000218  3.998505  0.0  0.08605  0.000148  4.023936  0.0  -0.014126  0.087555  0.000248  3.981283  0.0
C  C65  1  0.47454607  0.87270479  0.01983744  1  0.066966  -0.000889  3.759687  -0.001  0.087129  -0.000221  3.998307  0.0  0.086181  -0.000147  4.023744  0.0  -0.014126  0.087686  -0.000248  3.981086  0.0
C  C66  1  0.36084763  0.01888539  0.96320167  1  -0.115688  -0.000754  3.762162  -0.001  -0.136599  -0.000163  4.009566  0.0  -0.139422  -9.9e-05  4.031813  0.0  -0.096642  -0.134757  -0.00019  3.994646  0.0
C  C67  1  0.63916491  0.98111997  0.03680121  1  -0.115814  0.000757  3.762169  0.001  -0.136669  0.000163  4.009551  0.0  -0.139491  9.9e-05  4.031791  0.0  -0.09667  -0.134824  0.00019  3.994632  0.0
C  C68  1  0.66431532  0.10723262  0.01730103  1  -0.116734  -0.000515  3.763021  -0.001  -0.133904  -3.3e-05  4.005884  0.0  -0.137048  -1.7e-05  4.028537  0.0  -0.093505  -0.131606  -0.000107  3.990762  0.0
C  C69  1  0.33569282  0.89276841  0.98269703  1  -0.116758  0.000517  3.763001  0.001  -0.13391  3.4e-05  4.005863  0.0  -0.137073  1.6e-05  4.028512  0.0  -0.093514  -0.131611  0.000107  3.990739  0.0
N  N70  1  0.16080963  0.45370963  0.37738397  1  -0.422518  -0.052663  3.32486  -0.063  -0.381774  -0.037342  3.640791  -0.046  -0.417704  -0.029637  3.658955  -0.038  -0.388654  -0.360884  -0.041195  3.630635  -0.049
N  N71  1  0.83917973  0.54629338  0.62261199  1  -0.422499  0.052656  3.324843  0.063  -0.381767  0.03734  3.64079  0.046  -0.41771  0.029634  3.658966  0.038  -0.388699  -0.360878  0.041192  3.630628  0.049
N  N72  1  0.04234609  0.35213143  0.49896874  1  -0.100745  -0.001423  3.513991  -0.001  -0.007511  -0.002381  3.724653  -0.003  -0.023153  -0.001812  3.749769  -0.002  -0.236556  0.002924  -0.00277  3.706845  -0.003
N  N73  1  0.95765248  0.64787378  0.50103011  1  -0.100811  0.001428  3.514087  0.001  -0.007551  0.002381  3.724742  0.003  -0.023192  0.001812  3.749858  0.002  -0.236604  0.002879  0.00277  3.706935  0.003
N  N74  1  0.27702994  0.40721013  0.10394361  1  -0.414066  -0.065192  3.338634  -0.078  -0.374154  -0.046306  3.65588  -0.058  -0.411877  -0.036519  3.675849  -0.048  -0.389857  -0.352647  -0.050925  3.644864  -0.061
N  N75  1  0.72296550  0.59277724  0.89605366  1  -0.414139  0.065192  3.33865  0.078  -0.374267  0.046311  3.655985  0.058  -0.412001  0.036524  3.675963  0.048  -0.389926  -0.352764  0.050928  3.644962  0.061
N  N76  1  0.42666692  0.31680139  0.99521311  1  -0.104285  -0.000613  3.523738  0.0  -0.010972  -0.002353  3.736772  -0.003  -0.026231  -0.001806  3.762056  -0.002  -0.237721  -0.000882  -0.002653  3.719058  -0.003
N  N77  1  0.57333673  0.68319554  0.00478862  1  -0.104238  0.000608  3.523578  0.0  -0.010873  0.002352  3.736586  0.003  -0.026129  0.001807  3.761868  0.002  -0.237688  -0.000781  0.002652  3.718875  0.003
Cl  Cl78  1  0.96313868  0.48717522  0.17310609  1  -0.536369  -0.108162  0.935502  -0.122  -0.517626  -0.073107  1.206417  -0.088  -0.551837  -0.052766  1.180145  -0.067  -0.295442  -0.496903  -0.085511  1.224803  -0.099
Cl  Cl79  1  0.03685737  0.51282259  0.82689036  1  -0.536401  0.108158  0.935506  0.122  -0.51765  0.073104  1.206394  0.088  -0.551869  0.052766  1.180118  0.067  -0.295448  -0.496927  0.085505  1.224776  0.099
Cl  Cl80  1  0.46104547  0.68985764  0.30482459  1  -0.528716  -0.126985  0.901852  -0.142  -0.522335  -0.083475  1.162174  -0.1  -0.559727  -0.060201  1.13778  -0.076  -0.305617  -0.500574  -0.096604  1.179558  -0.111
Cl  Cl81  1  0.53895590  0.31013913  0.69517170  1  -0.528711  0.126983  0.901902  0.142  -0.522335  0.083477  1.162234  0.1  -0.559733  0.060203  1.137836  0.076  -0.305627  -0.500577  0.096606  1.179612  0.111
