# generated using pymatgen
data_AlH8C14BrNO5
_symmetry_space_group_name_H-M   'P 1'
_cell_length_a   6.65540075
_cell_length_b   11.17545456
_cell_length_c   17.74654863
_cell_angle_alpha   85.19634208
_cell_angle_beta   79.82039759
_cell_angle_gamma   72.16192491
_symmetry_Int_Tables_number   1
_chemical_formula_structural   AlH8C14BrNO5
_chemical_formula_sum   'Al2 H16 C28 Br2 N2 O10'
_cell_volume   1236.08647643
_cell_formula_units_Z   2
loop_
 _symmetry_equiv_pos_site_id
 _symmetry_equiv_pos_as_xyz
  1  'x, y, z'
loop_
 _atom_site_type_symbol
 _atom_site_label
 _atom_site_symmetry_multiplicity
 _atom_site_fract_x
 _atom_site_fract_y
 _atom_site_fract_z
 _atom_site_occupancy
 _atom_site_pbe_bader_charge
 _atom_site_pbe_bader_spin_density
 _atom_site_pbe_cm5_charge
 _atom_site_pbe_ddec_charge
 _atom_site_pbe_ddec_spin_density
 _atom_site_pbe_ddec_sum_bond_order
 _atom_site_pbe_magmom
Al  Al0  1  0.48752831  0.50292564  0.50328816  1  2.502574  0  0.395429  1.645061  0  2.578863  0
Al  Al1  1  0.98563648  0.50704379  0.50221063  1  2.502962  0  0.39648  1.640645  0  2.576654  0
H  H2  1  0.29092295  0.35298662  0.54064079  1  0.604618  0  0.35166  0.42876  0  0.858742  0
H  H3  1  0.73713112  0.58550710  0.41445540  1  0.619763  0  0.340087  0.412592  0  0.890773  0
H  H4  1  0.69435432  0.44944180  0.27720355  1  0.097702  0  0.101963  0.113259  0  1.007531  0
H  H5  1  0.78358592  0.42889573  0.13494648  1  0.089845  0  0.099501  0.104656  0  1.024379  0
H  H6  1  0.02473275  0.54683484  0.26266414  1  0.075861  0  0.099998  0.113296  0  1.026104  0
H  H7  1  0.91681508  0.54824367  0.73522476  1  0.088811  0  0.111966  0.129803  0  0.996072  0
H  H8  1  0.35799039  0.43418128  0.73094633  1  0.101804  0  0.107486  0.119287  0  1.003397  0
H  H9  1  0.29633233  0.41752009  0.87439426  1  0.072186  0  0.099107  0.102775  0  1.023041  0
H  H10  1  0.23170155  0.23225062  0.39698496  1  0.135306  0  0.110599  0.13461  0  1.014236  0
H  H11  1  0.45770822  0.76542764  0.41511116  1  0.106341  0  0.112399  0.12869  0  1.04133  0
H  H12  1  0.74750009  0.88913964  0.55612692  1  0.089703  0  0.115277  0.1247  0  0.974422  0
H  H13  1  0.63407884  0.12420270  0.54850576  1  0.070415  0  0.109925  0.11374  0  0.986796  0
H  H14  1  0.11827368  0.55849340  0.05314248  1  0.459435  0  0.298392  0.291283  0  0.970535  0
H  H15  1  0.92799197  0.59511042  0.13342517  1  0.450312  0  0.309143  0.30295  0  0.944312  0
H  H16  1  0.82750136  0.55908521  0.94463774  1  0.438713  0  0.298289  0.29156  0  0.972388  0
H  H17  1  0.97993479  0.59222758  0.86150245  1  0.44536  0  0.311822  0.306528  0  0.938675  0
C  C18  1  0.85663129  0.27614892  0.49070655  1  1.576155  0  0.266743  0.646183  0  4.085784  0
C  C19  1  0.67883179  0.50132808  0.64041653  1  1.570828  0  0.26967  0.64035  0  4.092065  0
C  C20  1  0.12501558  0.73063382  0.50594372  1  1.609519  0  0.270827  0.643009  0  4.09276  0
C  C21  1  0.30162920  0.50654034  0.36244062  1  1.579967  0  0.261088  0.635959  0  4.096189  0
C  C22  1  0.35393583  0.50016472  0.27753960  1  -0.022706  0  -0.022371  -0.030685  0  4.030026  0
C  C23  1  0.56894123  0.46853536  0.24200052  1  -0.066487  0  -0.107689  -0.136775  0  4.051121  0
C  C24  1  0.61766289  0.45757257  0.16319473  1  -0.016937  0  -0.093691  -0.12166  0  4.003944  0
C  C25  1  0.45458314  0.48318815  0.11774480  1  0.119556  0  -0.014659  0.028873  0  4.088395  0
C  C26  1  0.23612309  0.51814533  0.15374152  1  0.426086  0  0.10487  0.270143  0  4.049593  0
C  C27  1  0.19025605  0.52322123  0.23386942  1  -0.050515  0  -0.099615  -0.213688  0  3.939249  0
C  C28  1  0.50142689  0.47791943  0.03713271  1  -0.435001  0  -0.050114  -0.108994  0  4.149203  0
C  C29  1  0.52635692  0.47641696  0.96706522  1  0.009926  0  -0.048957  -0.107511  0  4.15298  0
C  C30  1  0.56605739  0.47882667  0.88623218  1  0.070932  0  -0.01632  0.02442  0  4.095686  0
C  C31  1  0.74519652  0.51602868  0.84706302  1  0.439636  0  0.104984  0.268695  0  4.068487  0
C  C32  1  0.78007798  0.52132766  0.76671104  1  0.01624  0  -0.094875  -0.216926  0  3.9351  0
C  C33  1  0.63998438  0.49352418  0.72572965  1  -0.021635  0  -0.016241  -0.025181  0  4.01832  0
C  C34  1  0.46364865  0.45662035  0.76422523  1  -0.122928  0  -0.103121  -0.138043  0  4.030107  0
C  C35  1  0.42995081  0.44795101  0.84356182  1  0.059853  0  -0.092624  -0.122098  0  4.013284  0
C  C36  1  0.93215728  0.13624064  0.48552737  1  -0.014936  0  -0.007573  -0.079552  0  3.932246  0
C  C37  1  0.13995813  0.06905804  0.44754227  1  -0.099299  0  0.000702  0.068  0  3.956508  0
C  C38  1  0.79347757  0.07099037  0.52181839  1  -0.060453  0  -0.079558  -0.087523  0  3.992812  0
C  C39  1  0.27962676  0.13014251  0.40193062  1  0.039107  0  -0.094203  -0.175283  0  3.947333  0
C  C40  1  0.47476634  0.06248250  0.36290176  1  -0.04956  0  -0.022162  0.062308  0  3.996068  0
C  C41  1  0.06213630  0.87055779  0.49513403  1  -0.068983  0  -0.00347  -0.072901  0  3.927863  0
C  C42  1  0.85743807  0.93905374  0.52654192  1  0.073641  0  -0.078255  -0.089958  0  3.987898  0
C  C43  1  0.20561957  0.93385990  0.45259315  1  0.104215  0  0.00265  0.0691  0  3.947054  0
C  C44  1  0.40689773  0.86735956  0.41173585  1  0.035798  0  -0.091573  -0.166461  0  3.947208  0
C  C45  1  0.53872210  0.92923991  0.36784090  1  -0.118375  0  -0.022141  0.0636  0  3.984966  0
Br  Br46  1  0.64913984  0.15166720  0.30220555  1  -0.036262  0  0.038951  -0.041409  0  1.496447  0
Br  Br47  1  0.80396912  0.83122765  0.31438271  1  -0.054919  0  0.033945  -0.056092  0  1.484323  0
N  N48  1  0.07546658  0.54222222  0.10998853  1  -1.262241  0  -0.589227  -0.608431  0  3.343109  0
N  N49  1  0.88305205  0.54200796  0.88832398  1  -1.239106  0  -0.589996  -0.613347  0  3.35661  0
O  O50  1  0.65811374  0.32927635  0.48979358  1  -1.260567  0  -0.237952  -0.602949  0  2.358113  0
O  O51  1  0.85602331  0.51608264  0.60716421  1  -1.267376  0  -0.23281  -0.580229  0  2.335151  0
O  O52  1  0.98178657  0.67814508  0.50347058  1  -1.255794  0  -0.229418  -0.582775  0  2.356577  0
O  O53  1  0.44746741  0.51717712  0.39717636  1  -1.27078  0  -0.242322  -0.607278  0  2.370342  0
O  O54  1  0.31542829  0.67406483  0.51686640  1  -1.266243  0  -0.231511  -0.576134  0  2.345569  0
O  O55  1  0.11666007  0.50117532  0.39427189  1  -1.266126  0  -0.24288  -0.60392  0  2.348091  0
O  O56  1  0.99306938  0.33127531  0.49883016  1  -1.257763  0  -0.23742  -0.598651  0  2.34706  0
O  O57  1  0.53161414  0.49107525  0.60650464  1  -1.262406  0  -0.233066  -0.586988  0  2.354211  0
O  O58  1  0.25235286  0.44354924  0.53248947  1  -1.408325  0  -0.448468  -0.98663  0  2.193114  0
O  O59  1  0.72420498  0.55957473  0.46820781  1  -1.427446  0  -0.449669  -0.98676  0  2.216662  0
