# generated using pymatgen
data_U2H20C14NO10
_symmetry_space_group_name_H-M   'P 1'
_cell_length_a   7.21514132
_cell_length_b   11.37550916
_cell_length_c   12.38831657
_cell_angle_alpha   76.37831485
_cell_angle_beta   74.31004997
_cell_angle_gamma   84.19454515
_symmetry_Int_Tables_number   1
_chemical_formula_structural   U2H20C14NO10
_chemical_formula_sum   'U4 H40 C28 N2 O20'
_cell_volume   950.59889465
_cell_formula_units_Z   2
loop_
 _symmetry_equiv_pos_site_id
 _symmetry_equiv_pos_as_xyz
  1  'x, y, z'
loop_
 _atom_site_type_symbol
 _atom_site_label
 _atom_site_symmetry_multiplicity
 _atom_site_fract_x
 _atom_site_fract_y
 _atom_site_fract_z
 _atom_site_occupancy
 _atom_site_hle17_bader_spin_density
 _atom_site_hle17_ddec_charge
 _atom_site_hle17_ddec_spin_density
 _atom_site_hle17_ddec_sum_bond_order
 _atom_site_hle17_magmom
 _atom_site_hse06_10hf_bader_spin_density
 _atom_site_hse06_10hf_ddec_charge
 _atom_site_hse06_10hf_ddec_spin_density
 _atom_site_hse06_10hf_ddec_sum_bond_order
 _atom_site_hse06_10hf_magmom
 _atom_site_hse06_bader_spin_density
 _atom_site_hse06_ddec_charge
 _atom_site_hse06_ddec_spin_density
 _atom_site_hse06_ddec_sum_bond_order
 _atom_site_hse06_magmom
 _atom_site_pbe_bader_spin_density
 _atom_site_pbe_cm5_charge
 _atom_site_pbe_ddec_charge
 _atom_site_pbe_ddec_spin_density
 _atom_site_pbe_ddec_sum_bond_order
 _atom_site_pbe_magmom
U  U0  1  0.80304240  0.79930808  0.99819905  1  0  2.506984  0  4.147385  0  0  2.578074  0  4.801788  0  0  2.689256  0  4.766252  0  0  2.17153  2.498569  0  4.828631  0
U  U1  1  0.19695956  0.20069328  0.00179887  1  0  2.507013  0  4.147313  0  0  2.578049  0  4.801786  0  0  2.689245  0  4.766222  0  0  2.171501  2.498533  0  4.828648  0
U  U2  1  0.89141294  0.50712143  0.87887388  1  0  2.502301  0  4.176805  0  0  2.585139  0  4.832644  0  0  2.703123  0  4.791087  0  0  2.161121  2.501259  0  4.862739  0
U  U3  1  0.10858475  0.49287902  0.12112651  1  0  2.502213  0  4.176784  0  0  2.585034  0  4.832664  0  0  2.703034  0  4.79108  0  0  2.161104  2.501205  0  4.86266  0
H  H4  1  0.63094956  0.04414874  0.05873181  1  0  0.458918  0  0.830703  0  0  0.435431  0  0.880954  0  0  0.448049  0  0.862807  0  0  0.31843  0.426461  0  0.893803  0
H  H5  1  0.36905107  0.95585081  0.94126751  1  0  0.458885  0  0.83075  0  0  0.435398  0  0.881001  0  0  0.448017  0  0.862855  0  0  0.318413  0.426429  0  0.89385  0
H  H6  1  0.83113290  0.07013362  0.96095769  1  0  0.44764  0  0.849363  0  0  0.422889  0  0.902999  0  0  0.43515  0  0.885438  0  0  0.315323  0.414179  0  0.915431  0
H  H7  1  0.16886629  0.92986592  0.03904267  1  0  0.447632  0  0.849375  0  0  0.42288  0  0.903014  0  0  0.435142  0  0.88545  0  0  0.315321  0.414169  0  0.915445  0
H  H8  1  0.94620973  0.60313643  0.58896874  1  0  0.081536  0  0.942676  0  0  0.090806  0  1.006232  0  0  0.092827  0  1.004638  0  0  0.124844  0.089352  0  1.007498  0
H  H9  1  0.05379217  0.39686584  0.41102981  1  0  0.08157  0  0.942671  0  0  0.090832  0  1.006233  0  0  0.092852  0  1.004641  0  0  0.124856  0.089379  0  1.007501  0
H  H10  1  0.80721199  0.59093858  0.43010467  1  0  0.115544  0  0.981071  0  0  0.123901  0  1.043567  0  0  0.127589  0  1.042275  0  0  0.110793  0.121238  0  1.04462  0
H  H11  1  0.19278271  0.40906368  0.56989499  1  0  0.115519  0  0.981071  0  0  0.12387  0  1.043578  0  0  0.127558  0  1.042287  0  0  0.110779  0.121208  0  1.044631  0
H  H12  1  0.31412484  0.42597488  0.69013867  1  0  0.114602  0  0.980517  0  0  0.121847  0  1.043616  0  0  0.125639  0  1.041591  0  0  0.119109  0.119144  0  1.045184  0
H  H13  1  0.68587153  0.57402375  0.30986313  1  0  0.114648  0  0.980471  0  0  0.121838  0  1.043636  0  0  0.12563  0  1.041612  0  0  0.119123  0.119134  0  1.045205  0
H  H14  1  0.47295516  0.44856095  0.83575027  1  0  0.095415  0  0.944119  0  0  0.101794  0  1.010053  0  0  0.105249  0  1.005925  0  0  0.142684  0.099424  0  1.012883  0
H  H15  1  0.52704553  0.55143769  0.16425086  1  0  0.095432  0  0.944118  0  0  0.101798  0  1.010059  0  0  0.105253  0  1.005931  0  0  0.142688  0.099428  0  1.01289  0
H  H16  1  0.29859137  0.75412414  0.81748208  1  0  0.14457  0  0.91634  0  0  0.163082  0  0.967789  0  0  0.166049  0  0.96592  0  0  0.128865  0.161085  0  0.96925  0
H  H17  1  0.70140783  0.24587541  0.18251747  1  0  0.14457  0  0.916335  0  0  0.163076  0  0.967786  0  0  0.166026  0  0.965938  0  0  0.128868  0.161079  0  0.969247  0
H  H18  1  0.49691966  0.70543688  0.71748493  1  0  0.108845  0  0.961027  0  0  0.124388  0  1.015751  0  0  0.125694  0  1.017532  0  0  0.103771  0.123499  0  1.014587  0
H  H19  1  0.50307955  0.29456267  0.28251381  1  0  0.108864  0  0.96102  0  0  0.124386  0  1.015769  0  0  0.125691  0  1.017545  0  0  0.10379  0.123497  0  1.014605  0
H  H20  1  0.57124344  0.92057980  0.61905570  1  0  0.050689  0  0.950886  0  0  0.070871  0  1.013253  0  0  0.071179  0  1.013963  0  0  0.084998  0.070563  0  1.012843  0
H  H21  1  0.42875871  0.07941885  0.38094197  1  0  0.050691  0  0.950881  0  0  0.070861  0  1.01326  0  0  0.071168  0  1.01397  0  0  0.085016  0.070554  0  1.01285  0
H  H22  1  0.39288267  0.97225364  0.72817327  1  0  0.068509  0  0.928208  0  0  0.088003  0  0.985299  0  0  0.08915  0  0.985268  0  0  0.094844  0.087068  0  0.98549  0
H  H23  1  0.60712229  0.02774591  0.27182457  1  0  0.068488  0  0.928233  0  0  0.087975  0  0.985326  0  0  0.089122  0  0.985295  0  0  0.094817  0.08704  0  0.985515  0
H  H24  1  0.13678222  0.88606823  0.67396522  1  0  0.07806  0  0.948695  0  0  0.100696  0  1.003444  0  0  0.101698  0  1.003413  0  0  0.094694  0.099952  0  1.003617  0
H  H25  1  0.86321986  0.11393132  0.32603388  1  0  0.078097  0  0.94867  0  0  0.10072  0  1.003414  0  0  0.101726  0  1.003379  0  0  0.094699  0.099975  0  1.003589  0
H  H26  1  0.26366281  0.00084097  0.56536677  1  0  0.04366  0  0.961539  0  0  0.058207  0  1.035782  0  0  0.058663  0  1.036194  0  0  0.080409  0.057805  0  1.035577  0
H  H27  1  0.73633921  0.99915948  0.43463134  1  0  0.043674  0  0.96155  0  0  0.058216  0  1.035777  0  0  0.058674  0  1.03619  0  0  0.080403  0.057814  0  1.035572  0
H  H28  1  0.45672069  0.83867638  0.46582878  1  0  0.052875  0  0.93754  0  0  0.072758  0  0.999007  0  0  0.073222  0  0.999782  0  0  0.081738  0.072345  0  0.998534  0
H  H29  1  0.54327989  0.16132407  0.53417036  1  0  0.052891  0  0.937541  0  0  0.072775  0  0.999013  0  0  0.073239  0  0.999789  0  0  0.081745  0.072363  0  0.998541  0
H  H30  1  0.30845964  0.72913879  0.57049541  1  0  0.065749  0  0.948523  0  0  0.087277  0  1.006245  0  0  0.087696  0  1.007596  0  0  0.085044  0.086918  0  1.005431  0
H  H31  1  0.69154089  0.27086257  0.42950274  1  0  0.065753  0  0.948529  0  0  0.087305  0  1.006232  0  0  0.087723  0  1.007582  0  0  0.085051  0.086947  0  1.005418  0
H  H32  1  0.15986379  0.95168975  0.41779150  1  0  0.05474  0  0.940687  0  0  0.073672  0  1.004034  0  0  0.074015  0  1.004937  0  0  0.087051  0.073342  0  1.003497  0
H  H33  1  0.84013529  0.04831161  0.58220848  1  0  0.054711  0  0.940659  0  0  0.073647  0  1.004009  0  0  0.073987  0  1.004915  0  0  0.08702  0.073316  0  1.003471  0
H  H34  1  0.01500194  0.84006574  0.51872548  1  0  0.051549  0  0.933965  0  0  0.071617  0  0.99497  0  0  0.072354  0  0.995135  0  0  0.085374  0.071026  0  0.994924  0
H  H35  1  0.98499863  0.15993471  0.48127446  1  0  0.051573  0  0.933942  0  0  0.071638  0  0.994951  0  0  0.07238  0  0.99511  0  0  0.085366  0.071049  0  0.994906  0
H  H36  1  0.32327688  0.79063146  0.30616384  1  0  0.079629  0  0.92919  0  0  0.102466  0  0.980698  0  0  0.103269  0  0.981048  0  0  0.093972  0.101811  0  0.980668  0
H  H37  1  0.67672219  0.20936989  0.69383614  1  0  0.079677  0  0.929222  0  0  0.102493  0  0.98074  0  0  0.103296  0  0.98109  0  0  0.093985  0.101839  0  0.980709  0
H  H38  1  0.15782505  0.68630493  0.40276512  1  0  0.057644  0  0.96199  0  0  0.07488  0  1.027855  0  0  0.074938  0  1.03025  0  0  0.083974  0.074763  0  1.026273  0
H  H39  1  0.84217403  0.31369643  0.59723406  1  0  0.057656  0  0.962022  0  0  0.074884  0  1.027889  0  0  0.074946  0  1.030276  0  0  0.08398  0.074767  0  1.026306  0
H  H40  1  0.05150978  0.92679138  0.25155328  1  0  0.116152  0  0.931457  0  0  0.13085  0  0.987983  0  0  0.133112  0  0.987194  0  0  0.111138  0.129273  0  0.988623  0
H  H41  1  0.94848929  0.07320997  0.74844751  1  0  0.116163  0  0.931469  0  0  0.130847  0  0.988001  0  0  0.13311  0  0.987211  0  0  0.111153  0.129274  0  0.988635  0
H  H42  1  0.88300461  0.82913099  0.35474195  1  0  0.105473  0  0.916709  0  0  0.123611  0  0.972016  0  0  0.125087  0  0.972006  0  0  0.108081  0.122555  0  0.972116  0
H  H43  1  0.11699303  0.17087037  0.64525826  1  0  0.105479  0  0.916709  0  0  0.123616  0  0.972011  0  0  0.125091  0  0.972003  0  0  0.108081  0.122559  0  0.972114  0
C  C44  1  0.80533173  0.56543842  0.60665004  1  0  0.129414  0  3.730593  0  0  0.101795  0  3.99817  0  0  0.109851  0  4.01551  0  0  0.053092  0.096377  0  3.986337  0
C  C45  1  0.19467329  0.43456023  0.39334799  1  0  0.129411  0  3.730577  0  0  0.101794  0  3.998158  0  0  0.109851  0  4.015497  0  0  0.053157  0.096376  0  3.98633  0
C  C46  1  0.72535967  0.55849495  0.51846128  1  0  -0.164272  0  3.689803  0  0  -0.182387  0  3.939087  0  0  -0.190201  0  3.959595  0  0  -0.079541  -0.177247  0  3.925358  0
C  C47  1  0.27464096  0.44150459  0.48153966  1  0  -0.164288  0  3.689812  0  0  -0.182392  0  3.939106  0  0  -0.190207  0  3.959613  0  0  -0.079555  -0.177253  0  3.925376  0
C  C48  1  0.54491827  0.50639504  0.54520744  1  0  0.094586  0  3.738061  0  0  0.104126  0  3.971097  0  0  0.107619  0  3.993178  0  0  0.018484  0.101962  0  3.955922  0
C  C49  1  0.45508098  0.49360360  0.45479390  1  0  0.094659  0  3.738072  0  0  0.104169  0  3.971127  0  0  0.107663  0  3.993208  0  0  0.018482  0.102007  0  3.955952  0
C  C50  1  0.45386625  0.46646817  0.66168869  1  0  -0.125995  0  3.65088  0  0  -0.142025  0  3.892241  0  0  -0.148206  0  3.90944  0  0  -0.061466  -0.138001  0  3.880756  0
C  C51  1  0.54613157  0.53353047  0.33831208  1  0  -0.126018  0  3.650819  0  0  -0.142007  0  3.892201  0  0  -0.148187  0  3.909398  0  0  -0.061473  -0.137981  0  3.880713  0
C  C52  1  0.54254946  0.47803226  0.74494569  1  0  0.157982  0  3.674193  0  0  0.132366  0  3.933755  0  0  0.141888  0  3.94757  0  0  0.076099  0.126164  0  3.924076  0
C  C53  1  0.45745262  0.52196729  0.25505341  1  0  0.157902  0  3.674221  0  0  0.132316  0  3.93372  0  0  0.14184  0  3.947531  0  0  0.076077  0.126114  0  3.924046  0
C  C54  1  0.56520243  0.78173128  0.84194460  1  0  0.769072  0  3.714253  0  0  0.734068  0  4.007743  0  0  0.773507  0  3.993953  0  0  0.250543  0.706815  0  4.016115  0
C  C55  1  0.43479676  0.21826827  0.15805495  1  0  0.769047  0  3.714261  0  0  0.734015  0  4.00778  0  0  0.773458  0  3.993987  0  0  0.25054  0.706754  0  4.016164  0
C  C56  1  0.44322359  0.77880420  0.76244691  1  0  -0.280949  0  3.634172  0  0  -0.310317  0  3.858877  0  0  -0.317217  0  3.865845  0  0  -0.15344  -0.305737  0  3.854277  0
C  C57  1  0.55677711  0.22119445  0.23755260  1  0  -0.280958  0  3.634218  0  0  -0.310303  0  3.858926  0  0  -0.317191  0  3.865893  0  0  -0.153464  -0.305719  0  3.854328  0
C  C58  1  0.42871781  0.90054161  0.67899542  1  0  -0.06475  0  3.66566  0  0  -0.107588  0  3.927444  0  0  -0.107508  0  3.941559  0  0  -0.159597  -0.107356  0  3.917586  0
C  C59  1  0.57128283  0.09945794  0.32100309  1  0  -0.064723  0  3.665694  0  0  -0.107546  0  3.927447  0  0  -0.107462  0  3.941561  0  0  -0.159585  -0.107313  0  3.917586  0
C  C60  1  0.27710769  0.90634881  0.61208019  1  0  -0.11107  0  3.680061  0  0  -0.152036  0  3.94495  0  0  -0.153394  0  3.960501  0  0  -0.166988  -0.150909  0  3.933987  0
C  C61  1  0.72289295  0.09365074  0.38791914  1  0  -0.111116  0  3.680033  0  0  -0.152036  0  3.944868  0  0  -0.153401  0  3.96043  0  0  -0.166974  -0.150908  0  3.933904  0
C  C62  1  0.31220234  0.82503651  0.52557685  1  0  -0.108504  0  3.68622  0  0  -0.149008  0  3.94815  0  0  -0.150126  0  3.963421  0  0  -0.169387  -0.148037  0  3.937406  0
C  C63  1  0.68779824  0.17496394  0.47442229  1  0  -0.108548  0  3.68623  0  0  -0.149095  0  3.948196  0  0  -0.150211  0  3.963469  0  0  -0.169422  -0.148124  0  3.937453  0
C  C64  1  0.15852671  0.85412051  0.45780579  1  0  -0.103681  0  3.701888  0  0  -0.143556  0  3.969869  0  0  -0.144556  0  3.985136  0  0  -0.164139  -0.142644  0  3.959105  0
C  C65  1  0.84147380  0.14588085  0.54219316  1  0  -0.103681  0  3.701797  0  0  -0.143565  0  3.969788  0  0  -0.144567  0  3.985056  0  0  -0.1641  -0.142656  0  3.959026  0
C  C66  1  0.17770712  0.78321946  0.36458987  1  0  -0.081806  0  3.668629  0  0  -0.123125  0  3.925344  0  0  -0.123619  0  3.940072  0  0  -0.164748  -0.122587  0  3.915017  0
C  C67  1  0.82229052  0.21678189  0.63541034  1  0  -0.081846  0  3.668677  0  0  -0.123141  0  3.925363  0  0  -0.123636  0  3.940095  0  0  -0.164748  -0.122602  0  3.915036  0
C  C68  1  0.02847673  0.83163933  0.29537919  1  0  -0.268762  0  3.655384  0  0  -0.302532  0  3.894712  0  0  -0.309026  0  3.902504  0  0  -0.152651  -0.298035  0  3.889244  0
C  C69  1  0.97152090  0.16836202  0.70462021  1  0  -0.268783  0  3.655393  0  0  -0.302511  0  3.894677  0  0  -0.309005  0  3.902468  0  0  -0.152665  -0.298014  0  3.889214  0
C  C70  1  0.01820754  0.76023952  0.20927682  1  0  0.758803  0  3.752516  0  0  0.721219  0  4.051705  0  0  0.75951  0  4.037842  0  0  0.25718  0.694977  0  4.060005  0
C  C71  1  0.98179159  0.23976093  0.79072335  1  0  0.758708  0  3.752516  0  0  0.721091  0  4.051762  0  0  0.759381  0  4.037903  0  0  0.257112  0.694849  0  4.060059  0
N  N72  1  0.71685360  0.52514239  0.71851192  1  0  -0.390899  0  3.296959  0  0  -0.36153  0  3.589626  0  0  -0.383935  0  3.6135  0  0  -0.377837  -0.345777  0  3.572813  0
N  N73  1  0.28314854  0.47485626  0.28148736  1  0  -0.390838  0  3.297002  0  0  -0.361471  0  3.589645  0  0  -0.383876  0  3.613516  0  0  -0.377857  -0.345725  0  3.572834  0
O  O74  1  0.99175041  0.85478294  0.87080386  1  0  -0.702978  0  1.556434  0  0  -0.715368  0  1.844163  0  0  -0.738517  0  1.830781  0  0  -0.747389  -0.700582  0  1.854051  0
O  O75  1  0.00825434  0.14521932  0.12919827  1  0  -0.702995  0  1.556439  0  0  -0.715372  0  1.844186  0  0  -0.738521  0  1.830799  0  0  -0.747335  -0.700587  0  1.854085  0
O  O76  1  0.60907803  0.76597348  0.12814616  1  0  -0.716708  0  1.513277  0  0  -0.727792  0  1.787882  0  0  -0.750915  0  1.775034  0  0  -0.757813  -0.713033  0  1.797486  0
O  O77  1  0.39092111  0.23402698  0.87185321  1  0  -0.716694  0  1.513257  0  0  -0.727773  0  1.787884  0  0  -0.750892  0  1.775024  0  0  -0.75782  -0.713012  0  1.797491  0
O  O78  1  0.07902147  0.59660589  0.77182215  1  0  -0.709538  0  1.529225  0  0  -0.724207  0  1.816703  0  0  -0.749053  0  1.803499  0  0  -0.747013  -0.708008  0  1.826159  0
O  O79  1  0.92097484  0.40339365  0.22817865  1  0  -0.7095  0  1.529145  0  0  -0.724171  0  1.816617  0  0  -0.749021  0  1.80341  0  0  -0.746976  -0.707984  0  1.82606  0
O  O80  1  0.69210132  0.41607720  0.96986200  1  0  -0.695477  0  1.53024  0  0  -0.713924  0  1.820694  0  0  -0.737486  0  1.805714  0  0  -0.736953  -0.69877  0  1.831446  0
O  O81  1  0.30789649  0.58392144  0.03013957  1  0  -0.695452  0  1.530258  0  0  -0.713899  0  1.820735  0  0  -0.737465  0  1.805753  0  0  -0.73697  -0.698757  0  1.831475  0
O  O82  1  0.90905879  0.60619038  0.01857008  1  0  -1.110576  0  1.73217  0  0  -1.194884  0  2.120666  0  0  -1.263425  0  2.122813  0  0  -0.792293  -1.14465  0  2.11786  0
O  O83  1  0.09093740  0.39381097  0.98143116  1  0  -1.110607  0  1.732228  0  0  -1.194901  0  2.120716  0  0  -1.263448  0  2.122864  0  0  -0.792282  -1.144662  0  2.117908  0
O  O84  1  0.68414894  0.69438999  0.86825734  1  0  -0.737622  0  2.128815  0  0  -0.722477  0  2.411716  0  0  -0.760647  0  2.407211  0  0  -0.371685  -0.694263  0  2.413263  0
O  O85  1  0.31585026  0.30560956  0.13174301  1  0  -0.737617  0  2.128829  0  0  -0.722455  0  2.411738  0  0  -0.760631  0  2.407233  0  0  -0.371697  -0.694242  0  2.413285  0
O  O86  1  0.55614121  0.87303412  0.88743711  1  0  -0.667564  0  2.003448  0  0  -0.63086  0  2.236995  0  0  -0.662845  0  2.227701  0  0  -0.32965  -0.607721  0  2.242407  0
O  O87  1  0.44385799  0.12696543  0.11256163  1  0  -0.667558  0  2.003425  0  0  -0.630834  0  2.236975  0  0  -0.662823  0  2.227682  0  0  -0.329643  -0.607689  0  2.242389  0
O  O88  1  0.02450784  0.81807531  0.10520904  1  0  -0.713721  0  2.098493  0  0  -0.681284  0  2.358472  0  0  -0.714711  0  2.347972  0  0  -0.357465  -0.656907  0  2.364506  0
O  O89  1  0.97549274  0.18192514  0.89479091  1  0  -0.713726  0  2.098509  0  0  -0.681276  0  2.358505  0  0  -0.714705  0  2.348006  0  0  -0.357459  -0.656895  0  2.36454  0
O  O90  1  0.99766461  0.64708831  0.23998812  1  0  -0.668975  0  2.059451  0  0  -0.644614  0  2.328788  0  0  -0.675794  0  2.322019  0  0  -0.329986  -0.62199  0  2.332236  0
O  O91  1  0.00233451  0.35291213  0.76001366  1  0  -0.668876  0  2.059417  0  0  -0.644515  0  2.328782  0  0  -0.675692  0  2.322014  0  0  -0.329946  -0.621896  0  2.33226  0
O  O92  1  0.74235970  0.00498174  0.01003660  1  0  -0.887106  0  1.868031  0  0  -0.866303  0  2.066382  0  0  -0.894193  0  2.033385  0  0  -0.623154  -0.845676  0  2.089144  0
O  O93  1  0.25764094  0.99501781  0.98996272  1  0  -0.887088  0  1.86807  0  0  -0.866275  0  2.066421  0  0  -0.894169  0  2.033423  0  0  -0.623146  -0.845636  0  2.089161  0
