# generated using pymatgen
data_AgH10C13SNO2
_symmetry_space_group_name_H-M   'P 1'
_cell_length_a   9.00744447
_cell_length_b   9.13513276
_cell_length_c   15.71390000
_cell_angle_alpha   97.97864501
_cell_angle_beta   98.42362571
_cell_angle_gamma   107.21652655
_symmetry_Int_Tables_number   1
_chemical_formula_structural   AgH10C13SNO2
_chemical_formula_sum   'Ag4 H40 C52 S4 N4 O8'
_cell_volume   1198.82674594
_cell_formula_units_Z   4
loop_
 _symmetry_equiv_pos_site_id
 _symmetry_equiv_pos_as_xyz
  1  'x, y, z'
loop_
 _atom_site_type_symbol
 _atom_site_label
 _atom_site_symmetry_multiplicity
 _atom_site_fract_x
 _atom_site_fract_y
 _atom_site_fract_z
 _atom_site_occupancy
 _atom_site_pbe_bader_charge
 _atom_site_pbe_bader_spin_density
 _atom_site_pbe_cm5_charge
 _atom_site_pbe_ddec_charge
 _atom_site_pbe_ddec_spin_density
 _atom_site_pbe_ddec_sum_bond_order
 _atom_site_pbe_magmom
Ag  Ag0  1  0.38898687  0.73403524  0.75235449  1  0.552973  0  0.378364  0.366119  0  1.781616  0
Ag  Ag1  1  0.61101487  0.26597025  0.24764177  1  0.552972  0  0.378348  0.366112  0  1.78162  0
Ag  Ag2  1  0.20725897  0.14925270  0.73482531  1  0.482172  0  0.470891  0.24318  0  1.893059  0
Ag  Ag3  1  0.79274241  0.85075512  0.26517684  1  0.482196  0  0.47094  0.243287  0  1.893093  0
H  H4  1  0.50093777  0.88784756  0.03663103  1  0.123431  0  0.100429  0.110491  0  1.03051  0
H  H5  1  0.49905759  0.11215559  0.96336641  1  0.123593  0  0.100459  0.110505  0  1.030504  0
H  H6  1  0.51241092  0.96461590  0.19647172  1  0.057068  0  0.078873  0.064821  0  1.106274  0
H  H7  1  0.48758518  0.03538608  0.80352442  1  0.057224  0  0.07885  0.064779  0  1.106246  0
H  H8  1  0.00862799  0.62378571  0.00065106  1  0.125309  0  0.098591  0.10115  0  1.044375  0
H  H9  1  0.99136622  0.37621394  0.99934792  1  0.124904  0  0.098593  0.101134  0  1.044438  0
H  H10  1  0.02002492  0.69072588  0.16116614  1  0.093078  0  0.097501  0.106125  0  1.027146  0
H  H11  1  0.97997266  0.30927376  0.83883248  1  0.093063  0  0.097486  0.106097  0  1.027202  0
H  H12  1  0.39826476  0.93673496  0.32121226  1  0.113112  0  0.103401  0.124058  0  0.993965  0
H  H13  1  0.60173697  0.06327052  0.67878718  1  0.113756  0  0.103423  0.124059  0  0.993973  0
H  H14  1  0.22227002  0.77534742  0.31346721  1  0.105152  0  0.100673  0.116584  0  1.024578  0
H  H15  1  0.77773133  0.22465690  0.68653338  1  0.105125  0  0.100657  0.116555  0  1.024604  0
H  H16  1  0.06977418  0.22523853  0.41878646  1  0.116127  0  0.113378  0.131199  0  0.994261  0
H  H17  1  0.93022455  0.77476462  0.58121636  1  0.116058  0  0.113333  0.131111  0  0.99427  0
H  H18  1  0.09419766  0.27702358  0.57910376  1  0.152987  0  0.12069  0.108296  0  1.002159  0
H  H19  1  0.90580177  0.72297490  0.42089747  1  0.153003  0  0.120698  0.10831  0  1.002158  0
H  H20  1  0.32282507  0.89223198  0.45125364  1  0.111549  0  0.108332  0.119946  0  1.034679  0
H  H21  1  0.67716498  0.10776182  0.54874388  1  0.111505  0  0.108292  0.11989  0  1.034697  0
H  H22  1  0.32971050  0.95049440  0.60811359  1  0.125734  0  0.110062  0.083319  0  1.048518  0
H  H23  1  0.67029269  0.04950525  0.39188550  1  0.125717  0  0.110056  0.083304  0  1.04858  0
H  H24  1  0.43573579  0.32315934  0.50623531  1  0.103188  0  0.096845  0.101386  0  1.041919  0
H  H25  1  0.56426061  0.67683330  0.49376837  1  0.103047  0  0.096852  0.101399  0  1.041888  0
H  H26  1  0.43241824  0.39854835  0.66436252  1  0.050421  0  0.087796  0.081105  0  1.06803  0
H  H27  1  0.56758564  0.60144312  0.33564360  1  0.05034  0  0.087765  0.081083  0  1.068049  0
H  H28  1  0.94608953  0.49338931  0.56569838  1  0.139522  0  0.100266  0.116142  0  1.055396  0
H  H29  1  0.05390807  0.50661384  0.43429670  1  0.139582  0  0.100222  0.116073  0  1.055458  0
H  H30  1  0.94358262  0.55873526  0.72367574  1  0.128342  0  0.100352  0.122261  0  1.028907  0
H  H31  1  0.05642431  0.44126556  0.27632058  1  0.128363  0  0.100346  0.12224  0  1.029006  0
H  H32  1  0.77532919  0.48894883  0.84027119  1  0.115406  0  0.104572  0.129664  0  1.008273  0
H  H33  1  0.22468566  0.51105900  0.15973081  1  0.115637  0  0.104552  0.129686  0  1.008151  0
H  H34  1  0.56635877  0.45808615  0.81224874  1  0.04637  0  0.094195  0.099212  0  1.018389  0
H  H35  1  0.43365337  0.54190999  0.18775400  1  0.04636  0  0.094202  0.099099  0  1.018462  0
H  H36  1  0.64350854  0.50567949  0.95795909  1  0.101047  0  0.107533  0.115293  0  1.037308  0
H  H37  1  0.35650248  0.49431665  0.04204420  1  0.10106  0  0.107575  0.115371  0  1.037281  0
H  H38  1  0.67513214  0.56588769  0.11768145  1  0.111472  0  0.117182  0.090635  0  1.007402  0
H  H39  1  0.32486582  0.43411313  0.88232239  1  0.111503  0  0.117214  0.090704  0  1.007376  0
H  H40  1  0.84450673  0.00305532  0.96544132  1  0.110743  0  0.105701  0.118845  0  1.034356  0
H  H41  1  0.15548822  0.99694316  0.03455953  1  0.110726  0  0.105681  0.118819  0  1.034362  0
H  H42  1  0.87085358  0.04357331  0.12636900  1  0.123856  0  0.116929  0.092771  0  1.002177  0
H  H43  1  0.12914027  0.95642868  0.87363077  1  0.123864  0  0.116917  0.092768  0  1.002212  0
C  C44  1  0.24422229  0.70756867  0.91115800  1  1.570074  0  0.183156  0.538199  0  4.27351  0
C  C45  1  0.75578317  0.29243448  0.08884030  1  1.56981  0  0.183188  0.538304  0  4.273392  0
C  C46  1  0.25393354  0.75045640  0.00876237  1  -0.033337  0  -0.023594  -0.04255  0  3.966166  0
C  C47  1  0.74606593  0.24954559  0.99123469  1  -0.033409  0  -0.023658  -0.042583  0  3.966162  0
C  C48  1  0.39612022  0.84566059  0.06445796  1  -0.120018  0  -0.088781  -0.083282  0  3.954166  0
C  C49  1  0.60387626  0.15434256  0.93554149  1  -0.120304  0  -0.088817  -0.083315  0  3.954161  0
C  C50  1  0.40146665  0.88827385  0.15376157  1  -0.057283  0  -0.099014  -0.142105  0  3.995744  0
C  C51  1  0.59853131  0.11172696  0.84623782  1  -0.057509  0  -0.098968  -0.142017  0  3.99568  0
C  C52  1  0.11836053  0.69773933  0.04443750  1  -0.075499  0  -0.089963  -0.098495  0  3.981992  0
C  C53  1  0.88163743  0.30226148  0.95555871  1  -0.075206  0  -0.08996  -0.09849  0  3.981889  0
C  C54  1  0.12469023  0.73823396  0.13399699  1  -0.099048  0  -0.096225  -0.138339  0  3.961624  0
C  C55  1  0.87530508  0.26176218  0.86599988  1  -0.099027  0  -0.096184  -0.138283  0  3.961664  0
C  C56  1  0.26647275  0.83525896  0.18969102  1  0.010684  0  -0.017038  0.119443  0  3.976212  0
C  C57  1  0.73352146  0.16474068  0.81030668  1  0.010484  0  -0.017042  0.119403  0  3.976319  0
C  C58  1  0.27511149  0.87879840  0.28641536  1  -0.155563  0  -0.141013  -0.222848  0  3.892083  0
C  C59  1  0.72488907  0.12120008  0.71358278  1  -0.156112  0  -0.141023  -0.22283  0  3.892258  0
C  C60  1  0.19105532  0.05096516  0.41959174  1  -0.193738  0  0.012247  0.098435  0  4.035699  0
C  C61  1  0.80893998  0.94903098  0.58040704  1  -0.193726  0  0.012221  0.098384  0  4.035826  0
C  C62  1  0.12696249  0.16068211  0.45829501  1  -0.002945  0  -0.084799  -0.16438  0  3.936544  0
C  C63  1  0.87303284  0.83931754  0.54170533  1  -0.002915  0  -0.084756  -0.164249  0  3.936519  0
C  C64  1  0.13871765  0.18893562  0.54812543  1  0.436658  0  0.040711  0.084792  0  3.925562  0
C  C65  1  0.86128255  0.81106520  0.45187541  1  0.437377  0  0.040729  0.084806  0  3.925639  0
C  C66  1  0.26853804  0.97713382  0.47540567  1  -0.006529  0  -0.088293  -0.170697  0  3.93553  0
C  C67  1  0.73145543  0.02286699  0.52459524  1  -0.00625  0  -0.088188  -0.170529  0  3.935347  0
C  C68  1  0.27394830  0.01084311  0.56470617  1  0.452375  0  0.039281  0.084093  0  3.946736  0
C  C69  1  0.72604665  0.98915537  0.43529405  1  0.452049  0  0.039204  0.083991  0  3.946757  0
C  C70  1  0.69188372  0.37108553  0.42915703  1  1.557877  0  0.18631  0.550286  0  4.222736  0
C  C71  1  0.30811799  0.62891645  0.57084404  1  1.55787  0  0.18631  0.550309  0  4.222728  0
C  C72  1  0.69008599  0.40391267  0.52527209  1  -0.059241  0  -0.020877  -0.033058  0  3.971148  0
C  C73  1  0.30991493  0.59608347  0.47472971  1  -0.058991  0  -0.020826  -0.033115  0  3.971319  0
C  C74  1  0.54613337  0.37498293  0.55414401  1  -0.115331  0  -0.090519  -0.090164  0  3.968702  0
C  C75  1  0.45386755  0.62501321  0.44585715  1  -0.115181  0  -0.090531  -0.090169  0  3.968812  0
C  C76  1  0.54512123  0.41710099  0.64272482  1  0.024693  0  -0.099571  -0.141757  0  3.982048  0
C  C77  1  0.45488264  0.58289048  0.35727749  1  0.024584  0  -0.099526  -0.141655  0  3.982089  0
C  C78  1  0.83281199  0.47171478  0.58688957  1  -0.069091  0  -0.092353  -0.110341  0  3.976462  0
C  C79  1  0.16719049  0.52828954  0.41311048  1  -0.06941  0  -0.09232  -0.110184  0  3.976459  0
C  C80  1  0.83185055  0.50948579  0.67587796  1  -0.085105  0  -0.0951  -0.142638  0  3.937903  0
C  C81  1  0.16815297  0.49050802  0.32412260  1  -0.08512  0  -0.09513  -0.142696  0  3.938116  0
C  C82  1  0.68709957  0.48303674  0.70440955  1  -0.04825  0  -0.018723  0.120646  0  3.98057  0
C  C83  1  0.31290438  0.51696524  0.29559107  1  -0.048061  0  -0.018735  0.120486  0  3.980782  0
C  C84  1  0.68343675  0.52025999  0.80003290  1  -0.126711  0  -0.14214  -0.227437  0  3.909764  0
C  C85  1  0.31657279  0.47973849  0.19996854  1  -0.12688  0  -0.142125  -0.227215  0  3.909537  0
C  C86  1  0.74011194  0.75038515  0.94632507  1  -0.186578  0  0.017687  0.113407  0  3.998786  0
C  C87  1  0.25988750  0.24961333  0.05367616  1  -0.186571  0  0.017665  0.113524  0  3.99855  0
C  C88  1  0.69282519  0.62706644  0.99145947  1  -0.011013  0  -0.086562  -0.166971  0  3.92868  0
C  C89  1  0.30717873  0.37293204  0.00854278  1  -0.010999  0  -0.086665  -0.167279  0  3.928857  0
C  C90  1  0.71006163  0.66033506  0.08173738  1  0.448669  0  0.042253  0.086665  0  3.941536  0
C  C91  1  0.28993181  0.33966225  0.91826262  1  0.448726  0  0.042228  0.086639  0  3.941638  0
C  C92  1  0.80461038  0.90299100  0.99655508  1  0.029699  0  -0.083723  -0.15929  0  3.932007  0
C  C93  1  0.19539130  0.09700748  0.00344570  1  0.029566  0  -0.083671  -0.159249  0  3.931968  0
C  C94  1  0.81915150  0.92632983  0.08652133  1  0.420989  0  0.038781  0.080189  0  3.935671  0
C  C95  1  0.18084158  0.07366981  0.91347946  1  0.421451  0  0.038735  0.080121  0  3.935781  0
S  S96  1  0.16679047  0.01568186  0.30644436  1  0.157654  0  0.04749  0.046617  0  2.86301  0
S  S97  1  0.83320673  0.98431662  0.69355541  1  0.157687  0  0.047457  0.046607  0  2.863111  0
S  S98  1  0.72633674  0.72964964  0.83408183  1  0.183084  0  0.053266  0.059013  0  2.874878  0
S  S99  1  0.27366305  0.27034650  0.16592115  1  0.182963  0  0.053294  0.059005  0  2.874548  0
N  N100  1  0.20963501  0.11393436  0.60131433  1  -1.21335  0  -0.375564  -0.20036  0  3.698318  0
N  N101  1  0.79036555  0.88606412  0.39868636  1  -1.21399  0  -0.375535  -0.200369  0  3.698442  0
N  N102  1  0.77183470  0.80706853  0.12954328  1  -1.205778  0  -0.376148  -0.202386  0  3.696616  0
N  N103  1  0.22816025  0.19292995  0.87045821  1  -1.206214  0  -0.37604  -0.202233  0  3.696544  0
O  O104  1  0.37863158  0.75955344  0.88693553  1  -1.12111  0  -0.351923  -0.535622  0  2.423397  0
O  O105  1  0.62137470  0.24045905  0.11306550  1  -1.120986  0  -0.352006  -0.535724  0  2.423394  0
O  O106  1  0.11407031  0.62895149  0.86219162  1  -1.193874  0  -0.337248  -0.565807  0  2.149874  0
O  O107  1  0.88593808  0.37104349  0.13780308  1  -1.193688  0  -0.337164  -0.565823  0  2.149966  0
O  O108  1  0.80321887  0.45562064  0.40025063  1  -1.177563  0  -0.326069  -0.552181  0  2.196768  0
O  O109  1  0.19678432  0.54437900  0.59975165  1  -1.17754  0  -0.326058  -0.552171  0  2.196631  0
O  O110  1  0.57474387  0.25675992  0.38032121  1  -1.124295  0  -0.348514  -0.533721  0  2.323287  0
O  O111  1  0.42525712  0.74324674  0.61967826  1  -1.124343  0  -0.348543  -0.533746  0  2.32341  0
