# generated using pymatgen
data_NdH10C9S3N3O8
_symmetry_space_group_name_H-M   'P 1'
_cell_length_a   8.70598898
_cell_length_b   13.19524248
_cell_length_c   14.40306176
_cell_angle_alpha   90.00009775
_cell_angle_beta   89.99990192
_cell_angle_gamma   94.10289036
_symmetry_Int_Tables_number   1
_chemical_formula_structural   NdH10C9S3N3O8
_chemical_formula_sum   'Nd4 H40 C36 S12 N12 O32'
_cell_volume   1650.34925736
_cell_formula_units_Z   4
loop_
 _symmetry_equiv_pos_site_id
 _symmetry_equiv_pos_as_xyz
  1  'x, y, z'
loop_
 _atom_site_type_symbol
 _atom_site_label
 _atom_site_symmetry_multiplicity
 _atom_site_fract_x
 _atom_site_fract_y
 _atom_site_fract_z
 _atom_site_occupancy
 _atom_site_hle17_bader_spin_density
 _atom_site_hle17_ddec_charge
 _atom_site_hle17_ddec_spin_density
 _atom_site_hle17_ddec_sum_bond_order
 _atom_site_hle17_magmom
 _atom_site_hse06_10hf_bader_spin_density
 _atom_site_hse06_10hf_ddec_charge
 _atom_site_hse06_10hf_ddec_spin_density
 _atom_site_hse06_10hf_ddec_sum_bond_order
 _atom_site_hse06_10hf_magmom
 _atom_site_hse06_bader_spin_density
 _atom_site_hse06_ddec_charge
 _atom_site_hse06_ddec_spin_density
 _atom_site_hse06_ddec_sum_bond_order
 _atom_site_hse06_magmom
 _atom_site_pbe_bader_spin_density
 _atom_site_pbe_cm5_charge
 _atom_site_pbe_ddec_charge
 _atom_site_pbe_ddec_spin_density
 _atom_site_pbe_ddec_sum_bond_order
 _atom_site_pbe_magmom
Nd  Nd0  1  0.24938614  0.49838614  0.50094306  1  0  2.304845  0  1.565499  0  0  2.139465  0  2.021489  0  0  2.243452  0  1.868374  0  0  1.466257  2.105449  0  2.05367  0
Nd  Nd1  1  0.25061330  0.00161416  0.00094273  1  0  2.304829  0  1.565516  0  0  2.139455  0  2.021509  0  0  2.243435  0  1.868399  0  0  1.466256  2.10544  0  2.053703  0
Nd  Nd2  1  0.75061482  0.50161218  0.49905778  1  0  2.304836  0  1.565548  0  0  2.139441  0  2.021548  0  0  2.243433  0  1.868423  0  0  1.466265  2.105428  0  2.053745  0
Nd  Nd3  1  0.74938443  0.99838644  0.99905672  1  0  2.304835  0  1.565498  0  0  2.139441  0  2.021503  0  0  2.243437  0  1.868374  0  0  1.466238  2.105423  0  2.053696  0
H  H4  1  0.24521826  0.37924972  0.83077839  1  0  0.138638  0  0.92531  0  0  0.153646  0  0.980748  0  0  0.155484  0  0.980039  0  0  0.113612  0.152413  0  0.981201  0
H  H5  1  0.25478138  0.12075040  0.33077755  1  0  0.138617  0  0.925319  0  0  0.153629  0  0.980755  0  0  0.155467  0  0.980046  0  0  0.113613  0.152399  0  0.981209  0
H  H6  1  0.75477933  0.62074936  0.16922453  1  0  0.138635  0  0.92523  0  0  0.153635  0  0.980674  0  0  0.155473  0  0.979964  0  0  0.113625  0.152404  0  0.981126  0
H  H7  1  0.74521880  0.87925172  0.66922190  1  0  0.13865  0  0.925326  0  0  0.153657  0  0.980756  0  0  0.155495  0  0.980047  0  0  0.113626  0.152425  0  0.981208  0
H  H8  1  0.09258944  0.46173660  0.82427158  1  0  0.123506  0  0.949955  0  0  0.130753  0  1.018852  0  0  0.132935  0  1.017614  0  0  0.102069  0.129285  0  1.019624  0
H  H9  1  0.40741144  0.03826427  0.32427046  1  0  0.123484  0  0.949957  0  0  0.130736  0  1.018866  0  0  0.132916  0  1.01763  0  0  0.102068  0.129271  0  1.019634  0
H  H10  1  0.90740829  0.53826399  0.17572926  1  0  0.12349  0  0.949909  0  0  0.130715  0  1.018842  0  0  0.132897  0  1.017605  0  0  0.102061  0.129248  0  1.019613  0
H  H11  1  0.59258860  0.96173633  0.67572830  1  0  0.123507  0  0.949913  0  0  0.130749  0  1.018827  0  0  0.13293  0  1.017591  0  0  0.102066  0.12928  0  1.019604  0
H  H12  1  0.62634695  0.79394116  0.16888731  1  0  0.136196  0  0.941633  0  0  0.145274  0  1.006891  0  0  0.148209  0  1.004973  0  0  0.111193  0.143153  0  1.00847  0
H  H13  1  0.87365018  0.70606143  0.66888774  1  0  0.136209  0  0.941597  0  0  0.145268  0  1.006867  0  0  0.148201  0  1.00495  0  0  0.111201  0.143151  0  1.008451  0
H  H14  1  0.37364849  0.20605942  0.83111145  1  0  0.136246  0  0.941672  0  0  0.145326  0  1.006919  0  0  0.14826  0  1.005002  0  0  0.111254  0.143211  0  1.008501  0
H  H15  1  0.12635100  0.29393918  0.33111171  1  0  0.136235  0  0.941701  0  0  0.145293  0  1.00697  0  0  0.148227  0  1.005053  0  0  0.111238  0.143182  0  1.008555  0
H  H16  1  0.58012050  0.71794684  0.07011313  1  0  0.16426  0  0.921274  0  0  0.173095  0  0.983598  0  0  0.177012  0  0.98017  0  0  0.122948  0.170417  0  0.985914  0
H  H17  1  0.91987782  0.78205330  0.57011156  1  0  0.164252  0  0.921294  0  0  0.173082  0  0.983595  0  0  0.176999  0  0.980167  0  0  0.122958  0.17041  0  0.985914  0
H  H18  1  0.41987724  0.28205375  0.92988632  1  0  0.16424  0  0.921258  0  0  0.173062  0  0.983593  0  0  0.176979  0  0.980164  0  0  0.122936  0.170388  0  0.985915  0
H  H19  1  0.08012428  0.21794503  0.42988650  1  0  0.16421  0  0.921301  0  0  0.173034  0  0.983625  0  0  0.176952  0  0.980194  0  0  0.122942  0.170369  0  0.985942  0
H  H20  1  0.85815939  0.26114905  0.04950868  1  0  0.145381  0  0.938533  0  0  0.152234  0  1.005385  0  0  0.155166  0  1.004046  0  0  0.112684  0.15006  0  1.006593  0
H  H21  1  0.64184024  0.23885264  0.54950941  1  0  0.145411  0  0.938603  0  0  0.152288  0  1.00541  0  0  0.155219  0  1.00407  0  0  0.112712  0.150111  0  1.006626  0
H  H22  1  0.14184294  0.73885156  0.95048869  1  0  0.145428  0  0.938619  0  0  0.152299  0  1.005473  0  0  0.15523  0  1.004132  0  0  0.112721  0.150125  0  1.006684  0
H  H23  1  0.35816102  0.76114873  0.45049143  1  0  0.145402  0  0.938665  0  0  0.152261  0  1.005484  0  0  0.155192  0  1.004143  0  0  0.112685  0.150089  0  1.006688  0
H  H24  1  0.99873544  0.33194246  0.97964353  1  0  0.152967  0  0.917586  0  0  0.165254  0  0.971804  0  0  0.168369  0  0.96997  0  0  0.119548  0.163077  0  0.973044  0
H  H25  1  0.50126641  0.16805923  0.47964233  1  0  0.152994  0  0.917558  0  0  0.165296  0  0.971753  0  0  0.168407  0  0.969923  0  0  0.119565  0.16312  0  0.972998  0
H  H26  1  0.00126811  0.66805891  0.02035592  1  0  0.152983  0  0.917505  0  0  0.165295  0  0.971733  0  0  0.168411  0  0.969898  0  0  0.11957  0.163117  0  0.972977  0
H  H27  1  0.49873584  0.83194063  0.52035781  1  0  0.152991  0  0.9176  0  0  0.165296  0  0.971782  0  0  0.1684  0  0.969964  0  0  0.119565  0.16312  0  0.973032  0
H  H28  1  0.23082774  0.64473111  0.32543675  1  0  0.399788  0  0.89432  0  0  0.37072  0  0.961844  0  0  0.37934  0  0.949246  0  0  0.293373  0.364642  0  0.970875  0
H  H29  1  0.26917089  0.85526970  0.82543544  1  0  0.399784  0  0.894286  0  0  0.370713  0  0.961842  0  0  0.379333  0  0.949243  0  0  0.293359  0.364638  0  0.970872  0
H  H30  1  0.76917345  0.35526950  0.67456479  1  0  0.399807  0  0.894305  0  0  0.37074  0  0.961814  0  0  0.37936  0  0.949217  0  0  0.29338  0.364664  0  0.970846  0
H  H31  1  0.73082684  0.14473089  0.17456331  1  0  0.399808  0  0.894286  0  0  0.370741  0  0.961808  0  0  0.379361  0  0.949211  0  0  0.293391  0.364667  0  0.970837  0
H  H32  1  0.06098014  0.61435558  0.35988435  1  0  0.455401  0  0.835666  0  0  0.42518  0  0.896528  0  0  0.437001  0  0.8793  0  0  0.305241  0.416812  0  0.90884  0
H  H33  1  0.43901939  0.88564378  0.85988291  1  0  0.455386  0  0.835703  0  0  0.425158  0  0.896577  0  0  0.436981  0  0.879346  0  0  0.305225  0.416794  0  0.908885  0
H  H34  1  0.93902204  0.38564351  0.64011649  1  0  0.455457  0  0.835591  0  0  0.425218  0  0.896494  0  0  0.437044  0  0.879254  0  0  0.305248  0.416853  0  0.908803  0
H  H35  1  0.56097835  0.11435682  0.14011584  1  0  0.455434  0  0.835621  0  0  0.425197  0  0.896521  0  0  0.437023  0  0.879282  0  0  0.305246  0.416828  0  0.908837  0
H  H36  1  0.29014883  0.46508672  0.28161534  1  0  0.40365  0  0.904834  0  0  0.367174  0  0.97978  0  0  0.378084  0  0.963748  0  0  0.284072  0.35949  0  0.991189  0
H  H37  1  0.20984872  0.03491406  0.78161498  1  0  0.403675  0  0.904806  0  0  0.3672  0  0.979749  0  0  0.378111  0  0.963717  0  0  0.284078  0.359515  0  0.991158  0
H  H38  1  0.70985121  0.53491388  0.71838550  1  0  0.403619  0  0.904885  0  0  0.367142  0  0.979832  0  0  0.378053  0  0.963799  0  0  0.284053  0.359458  0  0.99124  0
H  H39  1  0.79014672  0.96508652  0.21838516  1  0  0.403656  0  0.904817  0  0  0.367178  0  0.979769  0  0  0.378089  0  0.963735  0  0  0.284056  0.359491  0  0.99118  0
H  H40  1  0.44860345  0.45538384  0.33168793  1  0  0.448663  0  0.843013  0  0  0.41857  0  0.905041  0  0  0.429597  0  0.888974  0  0  0.303056  0.410705  0  0.916658  0
H  H41  1  0.05139512  0.04461703  0.83168776  1  0  0.448733  0  0.842919  0  0  0.418611  0  0.904989  0  0  0.429638  0  0.88892  0  0  0.303054  0.410745  0  0.916606  0
H  H42  1  0.55139789  0.54461829  0.66831221  1  0  0.448669  0  0.843002  0  0  0.418568  0  0.905046  0  0  0.429596  0  0.888976  0  0  0.303053  0.410701  0  0.916664  0
H  H43  1  0.94860132  0.95538204  0.16831169  1  0  0.448718  0  0.842932  0  0  0.41862  0  0.904972  0  0  0.429647  0  0.888903  0  0  0.303068  0.410753  0  0.916589  0
C  C44  1  0.29462000  0.53155315  0.97507003  1  0  0.387405  0  3.811504  0  0  0.365096  0  4.112151  0  0  0.387101  0  4.120231  0  0  0.250839  0.350418  0  4.106415  0
C  C45  1  0.20538168  0.96844793  0.47506909  1  0  0.387543  0  3.811269  0  0  0.365264  0  4.111866  0  0  0.387266  0  4.119945  0  0  0.250919  0.350596  0  4.106111  0
C  C46  1  0.70537988  0.46844593  0.02493151  1  0  0.387471  0  3.811427  0  0  0.365181  0  4.112036  0  0  0.387186  0  4.120116  0  0  0.250895  0.350509  0  4.106287  0
C  C47  1  0.79461843  0.03155343  0.52492967  1  0  0.387503  0  3.811393  0  0  0.365216  0  4.112007  0  0  0.387219  0  4.120086  0  0  0.250882  0.350544  0  4.106259  0
C  C48  1  0.34144377  0.58341849  0.12214931  1  0  0.392571  0  3.833055  0  0  0.368206  0  4.129914  0  0  0.38997  0  4.138252  0  0  0.249979  0.353721  0  4.123815  0
C  C49  1  0.15855670  0.91658350  0.62214821  1  0  0.392513  0  3.833173  0  0  0.368139  0  4.13005  0  0  0.389903  0  4.138388  0  0  0.249958  0.353646  0  4.123962  0
C  C50  1  0.65855727  0.41658060  0.87785084  1  0  0.392589  0  3.833088  0  0  0.368239  0  4.129911  0  0  0.390004  0  4.138247  0  0  0.249994  0.353752  0  4.123813  0
C  C51  1  0.84144463  0.08341863  0.37785054  1  0  0.392501  0  3.833185  0  0  0.368159  0  4.13001  0  0  0.389923  0  4.138348  0  0  0.24998  0.353668  0  4.123921  0
C  C52  1  0.17830049  0.44536055  0.09380115  1  0  0.405202  0  3.795238  0  0  0.381891  0  4.090581  0  0  0.40488  0  4.096605  0  0  0.253958  0.366489  0  4.086241  0
C  C53  1  0.32169986  0.05463992  0.59380070  1  0  0.405214  0  3.795259  0  0  0.381909  0  4.090586  0  0  0.404897  0  4.09661  0  0  0.253961  0.366507  0  4.086244  0
C  C54  1  0.82170054  0.55463854  0.90619900  1  0  0.405165  0  3.795316  0  0  0.381853  0  4.090667  0  0  0.404841  0  4.096691  0  0  0.253915  0.36645  0  4.08632  0
C  C55  1  0.67830010  0.94535993  0.40619944  1  0  0.405199  0  3.795319  0  0  0.381869  0  4.09068  0  0  0.404858  0  4.096703  0  0  0.25394  0.366463  0  4.086342  0
C  C56  1  0.21322054  0.45357263  0.80590875  1  0  -0.306893  0  3.656529  0  0  -0.340938  0  3.911846  0  0  -0.34435  0  3.916656  0  0  -0.148116  -0.338494  0  3.90814  0
C  C57  1  0.28678146  0.04642746  0.30590776  1  0  -0.306825  0  3.656491  0  0  -0.340876  0  3.9118  0  0  -0.344286  0  3.916609  0  0  -0.148103  -0.338435  0  3.908099  0
C  C58  1  0.78677705  0.54642645  0.19409209  1  0  -0.306862  0  3.656393  0  0  -0.34082  0  3.911673  0  0  -0.344231  0  3.916482  0  0  -0.148099  -0.338373  0  3.90797  0
C  C59  1  0.71322087  0.95357315  0.69409169  1  0  -0.30687  0  3.656514  0  0  -0.340904  0  3.911815  0  0  -0.344315  0  3.916623  0  0  -0.148101  -0.338457  0  3.90811  0
C  C60  1  0.23311134  0.45947441  0.70175728  1  0  0.719048  0  3.867319  0  0  0.670641  0  4.167983  0  0  0.702957  0  4.165281  0  0  0.204498  0.6482  0  4.172663  0
C  C61  1  0.26688856  0.04052472  0.20175700  1  0  0.719076  0  3.867396  0  0  0.670667  0  4.168067  0  0  0.702984  0  4.165364  0  0  0.204491  0.648219  0  4.172759  0
C  C62  1  0.76688724  0.54052315  0.29824425  1  0  0.718974  0  3.867323  0  0  0.670459  0  4.168171  0  0  0.702774  0  4.165471  0  0  0.20437  0.648013  0  4.172855  0
C  C63  1  0.73311132  0.95947436  0.79824315  1  0  0.718998  0  3.867405  0  0  0.670588  0  4.168074  0  0  0.702904  0  4.165373  0  0  0.204483  0.648146  0  4.172758  0
C  C64  1  0.53033316  0.75778972  0.12869726  1  0  -0.315483  0  3.623711  0  0  -0.346461  0  3.873604  0  0  -0.350993  0  3.877242  0  0  -0.143352  -0.343332  0  3.870939  0
C  C65  1  0.96966393  0.74221128  0.62869627  1  0  -0.31541  0  3.623763  0  0  -0.346332  0  3.873567  0  0  -0.35086  0  3.877204  0  0  -0.14335  -0.343224  0  3.870935  0
C  C66  1  0.46966335  0.24221011  0.87130219  1  0  -0.315451  0  3.623652  0  0  -0.34638  0  3.873466  0  0  -0.350905  0  3.877097  0  0  -0.143371  -0.34327  0  3.870832  0
C  C67  1  0.03033710  0.25778780  0.37130249  1  0  -0.315306  0  3.623734  0  0  -0.346246  0  3.87356  0  0  -0.350772  0  3.877192  0  0  -0.143359  -0.34317  0  3.870962  0
C  C68  1  0.43301283  0.83834536  0.08884682  1  0  0.752376  0  3.834084  0  0  0.708463  0  4.127619  0  0  0.74153  0  4.125066  0  0  0.216357  0.685811  0  4.132597  0
C  C69  1  0.06698068  0.66165502  0.58884750  1  0  0.752144  0  3.834206  0  0  0.708203  0  4.127769  0  0  0.741269  0  4.125221  0  0  0.216208  0.685553  0  4.132748  0
C  C70  1  0.56698139  0.16165446  0.91115263  1  0  0.752136  0  3.834067  0  0  0.708165  0  4.12769  0  0  0.741229  0  4.125145  0  0  0.216229  0.685518  0  4.13266  0
C  C71  1  0.93302157  0.33834484  0.41115334  1  0  0.752042  0  3.834284  0  0  0.708114  0  4.127831  0  0  0.741178  0  4.125286  0  0  0.216231  0.685476  0  4.132802  0
C  C72  1  0.98144751  0.28079499  0.03955311  1  0  -0.299523  0  3.578888  0  0  -0.329841  0  3.826294  0  0  -0.33397  0  3.829442  0  0  -0.142416  -0.326781  0  3.823617  0
C  C73  1  0.51855329  0.21920669  0.53955324  1  0  -0.299636  0  3.579013  0  0  -0.32997  0  3.826394  0  0  -0.334092  0  3.829538  0  0  -0.14246  -0.326906  0  3.823728  0
C  C74  1  0.01855597  0.71920563  0.96044565  1  0  -0.299447  0  3.57874  0  0  -0.32987  0  3.826239  0  0  -0.333995  0  3.829383  0  0  -0.142432  -0.326809  0  3.823569  0
C  C75  1  0.48144674  0.78079391  0.46044760  1  0  -0.299596  0  3.579161  0  0  -0.329915  0  3.826526  0  0  -0.334035  0  3.829682  0  0  -0.142437  -0.326862  0  3.823865  0
C  C76  1  0.06877019  0.18667338  0.02321809  1  0  0.744001  0  3.839399  0  0  0.703071  0  4.128382  0  0  0.73628  0  4.12561  0  0  0.215202  0.680297  0  4.133571  0
C  C77  1  0.43123042  0.31332773  0.52321864  1  0  0.744106  0  3.839387  0  0  0.703181  0  4.128358  0  0  0.73639  0  4.125585  0  0  0.21528  0.6804  0  4.133556  0
C  C78  1  0.93122755  0.81332722  0.97677997  1  0  0.743834  0  3.839637  0  0  0.702958  0  4.128588  0  0  0.736166  0  4.12582  0  0  0.215155  0.680184  0  4.133774  0
C  C79  1  0.56877192  0.68667288  0.47678151  1  0  0.743962  0  3.839639  0  0  0.703016  0  4.128637  0  0  0.736224  0  4.125865  0  0  0.215165  0.680233  0  4.133839  0
S  S80  1  0.33567909  0.55364070  0.85882807  1  0  0.085917  0  2.391366  0  0  0.077631  0  2.722982  0  0  0.073184  0  2.719924  0  0  0.072795  0.080921  0  2.724861  0
S  S81  1  0.16432174  0.94636018  0.35882714  1  0  0.085887  0  2.391371  0  0  0.077599  0  2.722969  0  0  0.073152  0  2.719911  0  0  0.072797  0.080883  0  2.72484  0
S  S82  1  0.66431964  0.44635838  0.14117207  1  0  0.085906  0  2.391393  0  0  0.077603  0  2.722976  0  0  0.073158  0  2.719918  0  0  0.072779  0.080888  0  2.724854  0
S  S83  1  0.83567844  0.05364194  0.64117162  1  0  0.085889  0  2.391331  0  0  0.077599  0  2.72293  0  0  0.073154  0  2.719872  0  0  0.072788  0.080885  0  2.724794  0
S  S84  1  0.43100221  0.66584102  0.20347995  1  0  0.037172  0  2.470042  0  0  0.034864  0  2.817847  0  0  0.031296  0  2.812245  0  0  0.063042  0.037584  0  2.821574  0
S  S85  1  0.06899567  0.83416033  0.70347882  1  0  0.037199  0  2.470028  0  0  0.034872  0  2.817819  0  0  0.031306  0  2.812213  0  0  0.06305  0.037595  0  2.821562  0
S  S86  1  0.56899660  0.33415882  0.79652019  1  0  0.037187  0  2.470021  0  0  0.034855  0  2.817798  0  0  0.031284  0  2.812194  0  0  0.063044  0.037579  0  2.821539  0
S  S87  1  0.93100437  0.16584027  0.29652063  1  0  0.037162  0  2.470096  0  0  0.034836  0  2.81787  0  0  0.031264  0  2.812268  0  0  0.063043  0.037571  0  2.821625  0
S  S88  1  0.05054170  0.35119824  0.14039193  1  0  0.053224  0  2.404259  0  0  0.048123  0  2.747515  0  0  0.04298  0  2.74325  0  0  0.066918  0.051951  0  2.750141  0
S  S89  1  0.44945852  0.14880230  0.64039220  1  0  0.053233  0  2.404181  0  0  0.048125  0  2.747448  0  0  0.042983  0  2.743181  0  0  0.066917  0.051953  0  2.75007  0
S  S90  1  0.94945818  0.64880084  0.85960752  1  0  0.053172  0  2.404139  0  0  0.048109  0  2.747449  0  0  0.042967  0  2.743183  0  0  0.06691  0.051935  0  2.750075  0
S  S91  1  0.55054259  0.85119754  0.35960864  1  0  0.053229  0  2.404233  0  0  0.048124  0  2.747507  0  0  0.042982  0  2.743237  0  0  0.066911  0.051958  0  2.750131  0
N  N92  1  0.36983398  0.59887961  0.03223578  1  0  -0.449623  0  3.024369  0  0  -0.416212  0  3.298723  0  0  -0.435151  0  3.307452  0  0  -0.324643  -0.403708  0  3.292716  0
N  N93  1  0.13016550  0.90112145  0.53223470  1  0  -0.449748  0  3.024384  0  0  -0.416328  0  3.298702  0  0  -0.435267  0  3.30743  0  0  -0.324739  -0.403817  0  3.292678  0
N  N94  1  0.63016468  0.40111871  0.96776505  1  0  -0.449709  0  3.024384  0  0  -0.416279  0  3.298677  0  0  -0.435219  0  3.307405  0  0  -0.324682  -0.403772  0  3.292657  0
N  N95  1  0.86983346  0.09887991  0.46776476  1  0  -0.449648  0  3.024348  0  0  -0.416258  0  3.298696  0  0  -0.435203  0  3.307439  0  0  -0.324694  -0.403743  0  3.292661  0
N  N96  1  0.24825914  0.50697584  0.15833327  1  0  -0.505079  0  3.05423  0  0  -0.453823  0  3.310427  0  0  -0.47333  0  3.315665  0  0  -0.325429  -0.440809  0  3.30669  0
N  N97  1  0.25173985  0.99302392  0.65833220  1  0  -0.505008  0  3.054204  0  0  -0.453746  0  3.310386  0  0  -0.473256  0  3.31563  0  0  -0.325389  -0.44073  0  3.306645  0
N  N98  1  0.75174181  0.49302249  0.84166757  1  0  -0.505051  0  3.05428  0  0  -0.453801  0  3.310467  0  0  -0.473308  0  3.315703  0  0  -0.325419  -0.440791  0  3.306742  0
N  N99  1  0.74825903  0.00697667  0.34166725  1  0  -0.505016  0  3.05422  0  0  -0.453757  0  3.310412  0  0  -0.473261  0  3.315642  0  0  -0.325389  -0.440744  0  3.306687  0
N  N100  1  0.19579221  0.45423249  0.00172142  1  0  -0.455774  0  3.023583  0  0  -0.420853  0  3.295529  0  0  -0.440428  0  3.304756  0  0  -0.3236  -0.407937  0  3.28928  0
N  N101  1  0.30420960  0.04576858  0.50172167  1  0  -0.455839  0  3.023536  0  0  -0.420941  0  3.295488  0  0  -0.440515  0  3.304714  0  0  -0.323636  -0.408032  0  3.289239  0
N  N102  1  0.80420783  0.54576811  0.99827803  1  0  -0.455803  0  3.023585  0  0  -0.420907  0  3.295542  0  0  -0.440482  0  3.30477  0  0  -0.323618  -0.407989  0  3.289284  0
N  N103  1  0.69579051  0.95423278  0.49827778  1  0  -0.455836  0  3.023653  0  0  -0.420932  0  3.295628  0  0  -0.440506  0  3.304854  0  0  -0.32363  -0.40802  0  3.289382  0
O  O104  1  0.35751719  0.49866708  0.66646961  1  0  -0.708696  0  2.066296  0  0  -0.651827  0  2.306421  0  0  -0.682866  0  2.298438  0  0  -0.353521  -0.633734  0  2.311371  0
O  O105  1  0.14248404  0.00133276  0.16647009  1  0  -0.708704  0  2.066386  0  0  -0.651838  0  2.306514  0  0  -0.682877  0  2.298528  0  0  -0.35353  -0.633741  0  2.311468  0
O  O106  1  0.64248017  0.50132972  0.33353192  1  0  -0.708647  0  2.06641  0  0  -0.651738  0  2.306559  0  0  -0.682784  0  2.298591  0  0  -0.353424  -0.633639  0  2.311509  0
O  O107  1  0.85751837  0.99866861  0.83353075  1  0  -0.708722  0  2.06634  0  0  -0.651838  0  2.306458  0  0  -0.682884  0  2.298482  0  0  -0.353535  -0.633742  0  2.311406  0
O  O108  1  0.12250244  0.42521201  0.65054042  1  0  -0.680925  0  2.030235  0  0  -0.620888  0  2.256572  0  0  -0.651495  0  2.247193  0  0  -0.345753  -0.602967  0  2.26249  0
O  O109  1  0.37749768  0.07478780  0.15054008  1  0  -0.680959  0  2.030227  0  0  -0.620919  0  2.25656  0  0  -0.651524  0  2.247181  0  0  -0.345758  -0.602992  0  2.262484  0
O  O110  1  0.87749569  0.57478099  0.34945972  1  0  -0.680914  0  2.030227  0  0  -0.620842  0  2.256601  0  0  -0.651444  0  2.247228  0  0  -0.345756  -0.602917  0  2.262523  0
O  O111  1  0.62250351  0.92521281  0.84945868  1  0  -0.680878  0  2.030259  0  0  -0.620846  0  2.256586  0  0  -0.65145  0  2.247211  0  0  -0.345732  -0.602926  0  2.262513  0
O  O112  1  0.50843903  0.91514350  0.05100628  1  0  -0.811907  0  2.090311  0  0  -0.7486  0  2.346511  0  0  -0.787905  0  2.336031  0  0  -0.440334  -0.729521  0  2.351987  0
O  O113  1  0.99156041  0.58485586  0.55100918  1  0  -0.811812  0  2.090325  0  0  -0.748502  0  2.346533  0  0  -0.787805  0  2.336053  0  0  -0.440293  -0.72943  0  2.35202  0
O  O114  1  0.49155955  0.08485406  0.94898970  1  0  -0.811687  0  2.0902  0  0  -0.748365  0  2.346423  0  0  -0.787665  0  2.335945  0  0  -0.440255  -0.729309  0  2.351938  0
O  O115  1  0.00844177  0.41514323  0.44899235  1  0  -0.811741  0  2.090327  0  0  -0.748429  0  2.346526  0  0  -0.787729  0  2.336048  0  0  -0.440282  -0.729368  0  2.352035  0
O  O116  1  0.28877157  0.83108646  0.09110058  1  0  -0.6547  0  1.944128  0  0  -0.611166  0  2.173944  0  0  -0.6398  0  2.166462  0  0  -0.342551  -0.594707  0  2.177867  0
O  O117  1  0.21122882  0.66891395  0.59110251  1  0  -0.654609  0  1.944041  0  0  -0.611051  0  2.173846  0  0  -0.639688  0  2.166367  0  0  -0.34247  -0.594588  0  2.177764  0
O  O118  1  0.71122746  0.16891566  0.90890026  1  0  -0.65469  0  1.944073  0  0  -0.611122  0  2.173901  0  0  -0.639758  0  2.166422  0  0  -0.342556  -0.594658  0  2.177818  0
O  O119  1  0.78877336  0.33108514  0.40889902  1  0  -0.654629  0  1.944101  0  0  -0.611073  0  2.173896  0  0  -0.639708  0  2.166417  0  0  -0.342521  -0.594613  0  2.177816  0
O  O120  1  0.21341121  0.19312498  0.01922026  1  0  -0.657785  0  1.948574  0  0  -0.614204  0  2.181258  0  0  -0.643456  0  2.172781  0  0  -0.349064  -0.597572  0  2.185774  0
O  O121  1  0.28658825  0.30687612  0.51922094  1  0  -0.657808  0  1.948544  0  0  -0.61424  0  2.18124  0  0  -0.643494  0  2.172762  0  0  -0.349082  -0.597601  0  2.185753  0
O  O122  1  0.78659457  0.80687565  0.98077988  1  0  -0.657664  0  1.948837  0  0  -0.614098  0  2.1815  0  0  -0.643349  0  2.173025  0  0  -0.34898  -0.597466  0  2.186009  0
O  O123  1  0.71340818  0.69312295  0.48078059  1  0  -0.657713  0  1.948669  0  0  -0.614127  0  2.18136  0  0  -0.643378  0  2.172885  0  0  -0.349015  -0.597491  0  2.185876  0
O  O124  1  0.99074315  0.10090442  0.01358765  1  0  -0.807945  0  2.098016  0  0  -0.745146  0  2.353808  0  0  -0.783487  0  2.342281  0  0  -0.432871  -0.72681  0  2.360088  0
O  O125  1  0.50925643  0.39909569  0.51358807  1  0  -0.807955  0  2.097981  0  0  -0.745159  0  2.353778  0  0  -0.783501  0  2.34225  0  0  -0.432909  -0.726827  0  2.360068  0
O  O126  1  0.00926041  0.89909696  0.98641319  1  0  -0.807914  0  2.097953  0  0  -0.745111  0  2.3537  0  0  -0.783455  0  2.342175  0  0  -0.432901  -0.726775  0  2.359977  0
O  O127  1  0.49074346  0.60090339  0.48641346  1  0  -0.807936  0  2.098019  0  0  -0.745134  0  2.353808  0  0  -0.783477  0  2.342285  0  0  -0.432862  -0.726786  0  2.360075  0
O  O128  1  0.17011282  0.62719995  0.38084929  1  0  -0.892431  0  1.856869  0  0  -0.844272  0  2.036346  0  0  -0.868074  0  2.001587  0  0  -0.623455  -0.831977  0  2.057847  0
O  O129  1  0.32988559  0.87280020  0.88084864  1  0  -0.892418  0  1.856845  0  0  -0.844254  0  2.036348  0  0  -0.868056  0  2.001586  0  0  -0.623422  -0.831959  0  2.057846  0
O  O130  1  0.82988714  0.37279989  0.61915155  1  0  -0.892505  0  1.856758  0  0  -0.84434  0  2.036223  0  0  -0.868145  0  2.001468  0  0  -0.623482  -0.832043  0  2.057719  0
O  O131  1  0.67011093  0.12719963  0.11915081  1  0  -0.892481  0  1.856756  0  0  -0.844312  0  2.036235  0  0  -0.868116  0  2.001478  0  0  -0.623483  -0.832012  0  2.057731  0
O  O132  1  0.33594928  0.44317744  0.34084367  1  0  -0.903493  0  1.845892  0  0  -0.855176  0  2.031669  0  0  -0.879581  0  1.995007  0  0  -0.632528  -0.8426  0  2.054529  0
O  O133  1  0.16404925  0.05682345  0.84084340  1  0  -0.903574  0  1.845795  0  0  -0.855243  0  2.031637  0  0  -0.879648  0  1.994973  0  0  -0.632517  -0.842666  0  2.054496  0
O  O134  1  0.66405297  0.55682241  0.65915647  1  0  -0.903464  0  1.845931  0  0  -0.855134  0  2.031703  0  0  -0.879539  0  1.995039  0  0  -0.6325  -0.842559  0  2.054564  0
O  O135  1  0.83594611  0.94317638  0.15915605  1  0  -0.903536  0  1.845812  0  0  -0.855213  0  2.031586  0  0  -0.879621  0  1.994921  0  0  -0.632506  -0.842637  0  2.054445  0
