# generated using pymatgen
data_SnH22C24(NCl)2
_symmetry_space_group_name_H-M   'P 1'
_cell_length_a   9.86899916
_cell_length_b   9.90240196
_cell_length_c   13.29500000
_cell_angle_alpha   71.77672511
_cell_angle_beta   71.71286699
_cell_angle_gamma   73.50429047
_symmetry_Int_Tables_number   1
_chemical_formula_structural   SnH22C24(NCl)2
_chemical_formula_sum   'Sn2 H44 C48 N4 Cl4'
_cell_volume   1146.64368619
_cell_formula_units_Z   2
loop_
 _symmetry_equiv_pos_site_id
 _symmetry_equiv_pos_as_xyz
  1  'x, y, z'
loop_
 _atom_site_type_symbol
 _atom_site_label
 _atom_site_symmetry_multiplicity
 _atom_site_fract_x
 _atom_site_fract_y
 _atom_site_fract_z
 _atom_site_occupancy
 _atom_site_hle17_bader_spin_density
 _atom_site_hle17_ddec_charge
 _atom_site_hle17_ddec_spin_density
 _atom_site_hle17_ddec_sum_bond_order
 _atom_site_hle17_magmom
 _atom_site_hse06_10hf_bader_spin_density
 _atom_site_hse06_10hf_ddec_charge
 _atom_site_hse06_10hf_ddec_spin_density
 _atom_site_hse06_10hf_ddec_sum_bond_order
 _atom_site_hse06_10hf_magmom
 _atom_site_hse06_bader_spin_density
 _atom_site_hse06_ddec_charge
 _atom_site_hse06_ddec_spin_density
 _atom_site_hse06_ddec_sum_bond_order
 _atom_site_hse06_magmom
 _atom_site_pbe_bader_charge
 _atom_site_pbe_bader_spin_density
 _atom_site_pbe_cm5_charge
 _atom_site_pbe_ddec_charge
 _atom_site_pbe_ddec_spin_density
 _atom_site_pbe_ddec_sum_bond_order
 _atom_site_pbe_magmom
Sn  Sn0  1  0.72357740  0.27650976  0.75003558  1  0  1.161784  0  2.916783  0  0  1.004007  0  3.406876  0  0  1.044798  0  3.397302  0  1.699466  0  0.50247  0.978205  0  3.412057  0
Sn  Sn1  1  0.27642238  0.72348886  0.24996449  1  0  1.16176  0  2.916873  0  0  1.003967  0  3.406968  0  0  1.044766  0  3.397382  0  1.699454  0  0.502452  0.978164  0  3.412148  0
H  H2  1  0.44956573  0.41696805  0.64383574  1  0  0.078454  0  0.97044  0  0  0.085165  0  1.038913  0  0  0.087639  0  1.036666  0  0.149437  0  0.108673  0.083346  0  1.040422  0
H  H3  1  0.58330225  0.55012728  0.85633798  1  0  0.078406  0  0.971745  0  0  0.085331  0  1.039859  0  0  0.087848  0  1.037599  0  0.145945  0  0.108587  0.083514  0  1.041357  0
H  H4  1  0.55043298  0.58303058  0.35616534  1  0  0.078487  0  0.970427  0  0  0.085203  0  1.03889  0  0  0.087675  0  1.036644  0  0.149434  0  0.108701  0.083383  0  1.040397  0
H  H5  1  0.41669860  0.44987134  0.14366109  1  0  0.078365  0  0.971674  0  0  0.085276  0  1.039818  0  0  0.087793  0  1.037558  0  0.145959  0  0.108563  0.083459  0  1.041316  0
H  H6  1  0.23440613  0.62393696  0.63994961  1  0  0.109436  0  0.95531  0  0  0.117952  0  1.017603  0  0  0.121307  0  1.016219  0  0.085759  0  0.106842  0.116133  0  1.017589  0
H  H7  1  0.37637358  0.76526552  0.85988650  1  0  0.109427  0  0.955209  0  0  0.118152  0  1.017227  0  0  0.121512  0  1.015828  0  0.085083  0  0.106827  0.116309  0  1.017267  0
H  H8  1  0.76559320  0.37606384  0.36005006  1  0  0.10944  0  0.955319  0  0  0.117959  0  1.017602  0  0  0.121312  0  1.016222  0  0.085754  0  0.10684  0.11614  0  1.017588  0
H  H9  1  0.62362705  0.23473419  0.14011387  1  0  0.109399  0  0.955221  0  0  0.118128  0  1.017233  0  0  0.121488  0  1.015834  0  0.085081  0  0.106827  0.116285  0  1.017273  0
H  H10  1  0.12200571  0.83116771  0.92175632  1  0  0.112023  0  0.983749  0  0  0.118262  0  1.052029  0  0  0.121749  0  1.050728  0  0.104324  0  0.09966  0.115405  0  1.053692  0
H  H11  1  0.16883607  0.87781185  0.57818195  1  0  0.11143  0  0.984021  0  0  0.117886  0  1.052121  0  0  0.121337  0  1.050861  0  0.104189  0  0.099717  0.115071  0  1.053742  0
H  H12  1  0.87799407  0.16883091  0.07824375  1  0  0.11204  0  0.98372  0  0  0.11825  0  1.052032  0  0  0.121738  0  1.050731  0  0.104246  0  0.09965  0.115394  0  1.053694  0
H  H13  1  0.83116456  0.12218785  0.42181767  1  0  0.11144  0  0.984021  0  0  0.117894  0  1.052124  0  0  0.121345  0  1.050864  0  0.104199  0  0.099717  0.115077  0  1.053745  0
H  H14  1  0.91093500  0.04300766  0.91437820  1  0  0.078631  0  0.950852  0  0  0.086934  0  1.016112  0  0  0.089318  0  1.014275  0  0.100606  0  0.114459  0.085189  0  1.017413  0
H  H15  1  0.95716927  0.08909225  0.58561004  1  0  0.078996  0  0.950819  0  0  0.087144  0  1.016191  0  0  0.089544  0  1.014337  0  0.10066  0  0.114431  0.085346  0  1.017566  0
H  H16  1  0.08906479  0.95699097  0.08562187  1  0  0.078612  0  0.950836  0  0  0.086913  0  1.016104  0  0  0.089303  0  1.014251  0  0.100602  0  0.114449  0.085167  0  1.017406  0
H  H17  1  0.04283135  0.91090745  0.41438958  1  0  0.078975  0  0.950845  0  0  0.087122  0  1.016217  0  0  0.089521  0  1.014365  0  0.100661  0  0.114425  0.085325  0  1.017592  0
H  H18  1  0.91987750  0.35921454  0.56315249  1  0  0.126984  0  0.978372  0  0  0.139453  0  1.041315  0  0  0.141717  0  1.04281  0  0.036028  0  0.089935  0.13765  0  1.040921  0
H  H19  1  0.64151377  0.08011023  0.93669548  1  0  0.126919  0  0.979154  0  0  0.139432  0  1.041976  0  0  0.141674  0  1.043495  0  0.079478  0  0.090053  0.137652  0  1.041569  0
H  H20  1  0.08012183  0.64078626  0.43684793  1  0  0.127002  0  0.978366  0  0  0.139474  0  1.0413  0  0  0.141737  0  1.042796  0  0.036028  0  0.089957  0.13767  0  1.040907  0
H  H21  1  0.35848686  0.91988947  0.06330415  1  0  0.126911  0  0.979168  0  0  0.13942  0  1.041991  0  0  0.14166  0  1.043512  0  0.079478  0  0.090055  0.13764  0  1.041583  0
H  H22  1  0.97036737  0.37790001  0.67613072  1  0  0.126067  0  0.97002  0  0  0.139407  0  1.031412  0  0  0.142222  0  1.031717  0  0.060762  0  0.090742  0.137368  0  1.031626  0
H  H23  1  0.62260455  0.02997411  0.82367643  1  0  0.126954  0  0.969718  0  0  0.14006  0  1.031153  0  0  0.142872  0  1.031463  0  0.061581  0  0.091167  0.138023  0  1.03136  0
H  H24  1  0.02963219  0.62209970  0.32386840  1  0  0.126062  0  0.970013  0  0  0.139395  0  1.031409  0  0  0.142207  0  1.031716  0  0.060741  0  0.090732  0.137354  0  1.031622  0
H  H25  1  0.37739478  0.97002668  0.17632399  1  0  0.126948  0  0.969717  0  0  0.140056  0  1.031149  0  0  0.142866  0  1.031461  0  0.061612  0  0.091163  0.138018  0  1.031357  0
H  H26  1  0.72732325  0.55418859  0.48349221  1  0  0.086179  0  0.952072  0  0  0.09995  0  1.010927  0  0  0.102543  0  1.010026  0  0.056552  0  0.094202  0.097729  0  1.01241  0
H  H27  1  0.44623841  0.27243107  0.01646751  1  0  0.086457  0  0.952637  0  0  0.100338  0  1.011454  0  0  0.10294  0  1.010538  0  0.053644  0  0.094287  0.098148  0  1.0129  0
H  H28  1  0.27267502  0.44581221  0.51650846  1  0  0.086161  0  0.95212  0  0  0.099948  0  1.010953  0  0  0.102541  0  1.010052  0  0.056544  0  0.094203  0.097725  0  1.012439  0
H  H29  1  0.55375986  0.72756972  0.98353316  1  0  0.086436  0  0.952625  0  0  0.100321  0  1.01144  0  0  0.10293  0  1.010509  0  0.053633  0  0.094264  0.098116  0  1.012904  0
H  H30  1  0.60700907  0.81479430  0.44629109  1  0  0.082679  0  0.965009  0  0  0.092473  0  1.028454  0  0  0.095468  0  1.02665  0  0.056727  0  0.089925  0.090406  0  1.029654  0
H  H31  1  0.18490822  0.39307285  0.05365051  1  0  0.082726  0  0.964968  0  0  0.09266  0  1.028215  0  0  0.095586  0  1.026483  0  0.056259  0  0.090042  0.090632  0  1.029366  0
H  H32  1  0.39299026  0.18520650  0.55371009  1  0  0.082691  0  0.964982  0  0  0.092473  0  1.02844  0  0  0.095468  0  1.026637  0  0.056724  0  0.089923  0.090406  0  1.029639  0
H  H33  1  0.81509089  0.60692903  0.94634971  1  0  0.082735  0  0.965011  0  0  0.092667  0  1.028252  0  0  0.095595  0  1.02652  0  0.056201  0  0.090047  0.09064  0  1.029403  0
H  H34  1  0.63323036  0.97607626  0.54905462  1  0  0.084956  0  0.97568  0  0  0.094332  0  1.040316  0  0  0.097118  0  1.03925  0  0.067547  0  0.086844  0.091303  0  1.042863  0
H  H35  1  0.02311268  0.36710029  0.95093137  1  0  0.085052  0  0.977601  0  0  0.094282  0  1.042357  0  0  0.097077  0  1.041268  0  0.062766  0  0.086643  0.091222  0  1.044961  0
H  H36  1  0.36676898  0.02392453  0.45094581  1  0  0.084962  0  0.975678  0  0  0.094339  0  1.040313  0  0  0.097125  0  1.039249  0  0.067565  0  0.086848  0.09131  0  1.042862  0
H  H37  1  0.97688514  0.63290268  0.04906815  1  0  0.085063  0  0.977632  0  0  0.094291  0  1.042388  0  0  0.097083  0  1.041304  0  0.06276  0  0.086666  0.091231  0  1.044994  0
H  H38  1  0.77794195  0.87292916  0.68775697  1  0  0.079667  0  0.972741  0  0  0.089321  0  1.036445  0  0  0.091924  0  1.035767  0  0.03268  0  0.090048  0.087673  0  1.036822  0
H  H39  1  0.12631193  0.22242642  0.81233370  1  0  0.079607  0  0.97241  0  0  0.089006  0  1.036595  0  0  0.091535  0  1.03599  0  0.032908  0  0.090029  0.087396  0  1.036935  0
H  H40  1  0.22205845  0.12707163  0.31224320  1  0  0.079644  0  0.972727  0  0  0.08928  0  1.03645  0  0  0.091884  0  1.03577  0  0.032691  0  0.090029  0.087634  0  1.036824  0
H  H41  1  0.87368869  0.77757329  0.18766668  1  0  0.079586  0  0.97239  0  0  0.088978  0  1.036581  0  0  0.091509  0  1.035971  0  0.032913  0  0.090016  0.087364  0  1.036926  0
H  H42  1  0.89586841  0.61012223  0.72636092  1  0  0.087402  0  0.95226  0  0  0.099271  0  1.012578  0  0  0.102444  0  1.01123  0  0.041883  0  0.093097  0.097314  0  1.012989  0
H  H43  1  0.38985042  0.10424446  0.77378359  1  0  0.087821  0  0.952127  0  0  0.09958  0  1.012486  0  0  0.102757  0  1.011131  0  0.044341  0  0.09323  0.097612  0  1.012922  0
H  H44  1  0.10413221  0.38987748  0.27363871  1  0  0.087407  0  0.952251  0  0  0.099274  0  1.012568  0  0  0.102446  0  1.01122  0  0.041884  0  0.093099  0.097317  0  1.012978  0
H  H45  1  0.61015020  0.89575525  0.22621603  1  0  0.087844  0  0.952144  0  0  0.099595  0  1.012503  0  0  0.102771  0  1.011149  0  0.044268  0  0.093241  0.097626  0  1.01294  0
C  C46  1  0.42745657  0.49666976  0.69092742  1  0  0.138874  0  3.694551  0  0  0.103148  0  3.94658  0  0  0.110653  0  3.965182  0  0.429496  0  0.056546  0.098406  0  3.933433  0
C  C47  1  0.50343576  0.57227214  0.80922372  1  0  0.139148  0  3.696383  0  0  0.103358  0  3.948092  0  0  0.110819  0  3.966692  0  0.431087  0  0.056657  0.098612  0  3.934943  0
C  C48  1  0.57254405  0.50332995  0.30907296  1  0  0.138893  0  3.694593  0  0  0.103156  0  3.946637  0  0  0.110663  0  3.965241  0  0.429548  0  0.056558  0.098416  0  3.933486  0
C  C49  1  0.49656509  0.42772648  0.19077610  1  0  0.139251  0  3.696305  0  0  0.103481  0  3.947996  0  0  0.110944  0  3.966595  0  0.431166  0  0.056739  0.098734  0  3.934847  0
C  C50  1  0.30883944  0.61231476  0.68902322  1  0  -0.142409  0  3.693866  0  0  -0.160346  0  3.941661  0  0  -0.167854  0  3.962215  0  0.031801  0  -0.075068  -0.155185  0  3.926572  0
C  C51  1  0.38784622  0.69092021  0.81093103  1  0  -0.143005  0  3.694951  0  0  -0.161145  0  3.942781  0  0  -0.168654  0  3.963345  0  0.035049  0  -0.075178  -0.155997  0  3.927721  0
C  C52  1  0.69116034  0.38768386  0.31097835  1  0  -0.142474  0  3.693848  0  0  -0.160417  0  3.941645  0  0  -0.167923  0  3.962198  0  0.031735  0  -0.075097  -0.155256  0  3.926557  0
C  C53  1  0.61215463  0.30907841  0.18906955  1  0  -0.142938  0  3.694959  0  0  -0.161096  0  3.942767  0  0  -0.168606  0  3.963333  0  0.035013  0  -0.07518  -0.155949  0  3.927708  0
C  C54  1  0.28732303  0.71260331  0.74994668  1  0  0.10319  0  3.748365  0  0  0.115378  0  3.97596  0  0  0.119353  0  3.997169  0  0.00758  0  0.017906  0.112853  0  3.961166  0
C  C55  1  0.71267782  0.28739531  0.25005389  1  0  0.103183  0  3.748319  0  0  0.115403  0  3.975899  0  0  0.119376  0  3.997108  0  0.007602  0  0.017935  0.112879  0  3.961104  0
C  C56  1  0.16279814  0.83713364  0.74995444  1  0  0.103921  0  3.740007  0  0  0.117644  0  3.96282  0  0  0.121888  0  3.983755  0  -0.00931  0  0.018322  0.115053  0  3.948248  0
C  C57  1  0.83720142  0.16286607  0.25004543  1  0  0.104031  0  3.739941  0  0  0.117723  0  3.962782  0  0  0.121968  0  3.983716  0  -0.009318  0  0.018354  0.115129  0  3.948214  0
C  C58  1  0.08974050  0.88574867  0.84524072  1  0  -0.149924  0  3.688401  0  0  -0.166129  0  3.931281  0  0  -0.173844  0  3.952156  0  -0.01499  0  -0.074919  -0.161107  0  3.916941  0
C  C59  1  0.11426871  0.91017516  0.65470538  1  0  -0.148508  0  3.688542  0  0  -0.164878  0  3.931347  0  0  -0.17257  0  3.952256  0  -0.014829  0  -0.075038  -0.159877  0  3.916943  0
C  C60  1  0.91026012  0.11425104  0.15475890  1  0  -0.149938  0  3.688327  0  0  -0.166112  0  3.93122  0  0  -0.173828  0  3.952096  0  -0.01505  0  -0.074909  -0.16109  0  3.91688  0
C  C61  1  0.88573191  0.08982455  0.34529425  1  0  -0.148599  0  3.688559  0  0  -0.164964  0  3.931382  0  0  -0.172658  0  3.95229  0  -0.014843  0  -0.075063  -0.159962  0  3.916979  0
C  C62  1  0.97212874  0.00250002  0.84204587  1  0  0.133292  0  3.704474  0  0  0.100773  0  3.954109  0  0  0.107995  0  3.971928  0  0.45809  0  0.055062  0.096344  0  3.941469  0
C  C63  1  0.99767910  0.02793368  0.65789231  1  0  0.13203  0  3.705793  0  0  0.099597  0  3.955489  0  0  0.10681  0  3.973325  0  0.457286  0  0.054655  0.095205  0  3.942822  0
C  C64  1  0.02787104  0.99749861  0.15795496  1  0  0.133264  0  3.704426  0  0  0.100739  0  3.954064  0  0  0.107965  0  3.971888  0  0.45824  0  0.055058  0.096311  0  3.941423  0
C  C65  1  0.00232152  0.97206603  0.34210731  1  0  0.132037  0  3.705804  0  0  0.099608  0  3.955492  0  0  0.106822  0  3.973328  0  0.457169  0  0.054645  0.095215  0  3.942824  0
C  C66  1  0.88293173  0.40588475  0.63423909  1  0  -0.487081  0  3.629646  0  0  -0.513325  0  3.88253  0  0  -0.5257  0  3.900463  0  -0.309473  0  -0.229434  -0.506427  0  3.872013  0
C  C67  1  0.59460442  0.11700421  0.86572251  1  0  -0.487798  0  3.633018  0  0  -0.514156  0  3.885968  0  0  -0.526478  0  3.903904  0  -0.354975  0  -0.229961  -0.507296  0  3.875453  0
C  C68  1  0.11706867  0.59411604  0.36575957  1  0  -0.487119  0  3.629633  0  0  -0.513327  0  3.882547  0  0  -0.525699  0  3.900482  0  -0.309428  0  -0.229441  -0.506427  0  3.872027  0
C  C69  1  0.40539407  0.88299550  0.13427836  1  0  -0.487799  0  3.632991  0  0  -0.514148  0  3.885989  0  0  -0.526472  0  3.903934  0  -0.354992  0  -0.229972  -0.507288  0  3.875473  0
C  C70  1  0.82038424  0.56381490  0.60725600  1  0  0.147502  0  3.81896  0  0  0.170005  0  4.050437  0  0  0.172694  0  4.076921  0  -0.041424  0  -0.019017  0.168144  0  4.033033  0
C  C71  1  0.43624440  0.17950134  0.89288892  1  0  0.147401  0  3.822536  0  0  0.170632  0  4.052867  0  0  0.173295  0  4.079375  0  -0.042412  0  -0.019109  0.168799  0  4.03544  0
C  C72  1  0.17961532  0.43618481  0.39274387  1  0  0.147551  0  3.818872  0  0  0.169983  0  4.050452  0  0  0.172668  0  4.076942  0  -0.04141  0  -0.019043  0.168123  0  4.033046  0
C  C73  1  0.56375600  0.82049946  0.10711050  1  0  0.147446  0  3.822457  0  0  0.17065  0  4.052814  0  0  0.17331  0  4.079323  0  -0.042435  0  -0.019096  0.168817  0  4.035384  0
C  C74  1  0.73938552  0.62468664  0.52761455  1  0  -0.123774  0  3.719053  0  0  -0.143584  0  3.964679  0  0  -0.147381  0  3.986517  0  -0.035366  0  -0.099077  -0.140534  0  3.95017  0
C  C75  1  0.37540568  0.26048185  0.97245170  1  0  -0.12443  0  3.720976  0  0  -0.144772  0  3.966694  0  0  -0.148585  0  3.988516  0  -0.032096  0  -0.099481  -0.141714  0  3.952141  0
C  C76  1  0.26061275  0.37531416  0.47238612  1  0  -0.123775  0  3.719058  0  0  -0.143572  0  3.964699  0  0  -0.147369  0  3.986538  0  -0.035353  0  -0.099063  -0.14052  0  3.950189  0
C  C77  1  0.62459472  0.73951895  0.02754772  1  0  -0.124406  0  3.720934  0  0  -0.144738  0  3.966633  0  0  -0.148548  0  3.988457  0  -0.032079  0  -0.099463  -0.141666  0  3.952084  0
C  C78  1  0.67206381  0.77132488  0.50669026  1  0  -0.072525  0  3.793853  0  0  -0.083625  0  4.042684  0  0  -0.084791  0  4.064797  0  -0.059372  0  -0.099927  -0.082807  0  4.027222  0
C  C79  1  0.22840090  0.32803333  0.99332285  1  0  -0.072816  0  3.795212  0  0  -0.083961  0  4.044067  0  0  -0.085054  0  4.066159  0  -0.058969  0  -0.10002  -0.08317  0  4.028584  0
C  C80  1  0.32793575  0.22867483  0.49331036  1  0  -0.07253  0  3.793878  0  0  -0.08362  0  4.042703  0  0  -0.084787  0  4.064815  0  -0.059366  0  -0.099923  -0.082804  0  4.027245  0
C  C81  1  0.77160035  0.67196855  0.00667612  1  0  -0.072862  0  3.795241  0  0  -0.084004  0  4.044098  0  0  -0.085101  0  4.066194  0  -0.0589  0  -0.100051  -0.083212  0  4.028609  0
C  C82  1  0.68529305  0.86120701  0.56455535  1  0  -0.090461  0  3.798694  0  0  -0.107065  0  4.049606  0  0  -0.110654  0  4.073441  0  -0.002491  0  -0.106683  -0.103983  0  4.034222  0
C  C83  1  0.13826871  0.31496285  0.93543766  1  0  -0.090697  0  3.801186  0  0  -0.107162  0  4.05182  0  0  -0.110752  0  4.075602  0  -0.031297  0  -0.106927  -0.104039  0  4.036452  0
C  C84  1  0.31470628  0.13879378  0.43544507  1  0  -0.090499  0  3.798798  0  0  -0.107103  0  4.049701  0  0  -0.110691  0  4.073535  0  -0.0025  0  -0.106711  -0.104022  0  4.034317  0
C  C85  1  0.86173023  0.68503469  0.06456511  1  0  -0.090696  0  3.801274  0  0  -0.107169  0  4.051919  0  0  -0.110756  0  4.075704  0  -0.031668  0  -0.106924  -0.104048  0  4.036552  0
C  C86  1  0.76742161  0.80297871  0.64261390  1  0  -0.082995  0  3.819138  0  0  -0.094174  0  4.070112  0  0  -0.096004  0  4.093606  0  -0.065467  0  -0.104314  -0.093305  0  4.054137  0
C  C87  1  0.19648446  0.23285673  0.85745429  1  0  -0.082766  0  3.819686  0  0  -0.093827  0  4.070734  0  0  -0.095578  0  4.094224  0  -0.036154  0  -0.10467  -0.092991  0  4.054763  0
C  C88  1  0.23257902  0.19702100  0.35738648  1  0  -0.082916  0  3.81912  0  0  -0.094076  0  4.070085  0  0  -0.095905  0  4.093576  0  -0.06548  0  -0.104259  -0.093207  0  4.054109  0
C  C89  1  0.80351656  0.76714624  0.14254449  1  0  -0.082698  0  3.819747  0  0  -0.093747  0  4.070782  0  0  -0.095496  0  4.094271  0  -0.035731  0  -0.104631  -0.092906  0  4.054814  0
C  C90  1  0.83407467  0.65586349  0.66392086  1  0  -0.139412  0  3.741029  0  0  -0.158225  0  3.985703  0  0  -0.162725  0  4.007763  0  -0.090677  0  -0.102662  -0.155191  0  3.970266  0
C  C91  1  0.34396468  0.16601472  0.83618679  1  0  -0.140047  0  3.743504  0  0  -0.158893  0  3.987762  0  0  -0.163408  0  4.009838  0  -0.087247  0  -0.102818  -0.15586  0  3.972338  0
C  C92  1  0.16592596  0.34413622  0.33607876  1  0  -0.139459  0  3.741011  0  0  -0.15825  0  3.985704  0  0  -0.162748  0  4.007764  0  -0.090676  0  -0.10267  -0.155216  0  3.970267  0
C  C93  1  0.65603696  0.83399042  0.16380982  1  0  -0.140123  0  3.743555  0  0  -0.158952  0  3.987826  0  0  -0.163466  0  4.0099  0  -0.087212  0  -0.102853  -0.155918  0  3.972402  0
N  N94  1  0.52292560  0.47686520  0.75018434  1  0  -0.312697  0  3.289748  0  0  -0.223635  0  3.525775  0  0  -0.242618  0  3.549837  0  -1.268774  0  -0.284501  -0.210486  0  3.508151  0
N  N95  1  0.47707463  0.52313125  0.24981763  1  0  -0.312817  0  3.289835  0  0  -0.223755  0  3.52586  0  0  -0.242739  0  3.549925  0  -1.268823  0  -0.284588  -0.210604  0  3.508233  0
N  N96  1  0.92744210  0.07289485  0.74994882  1  0  -0.315428  0  3.266247  0  0  -0.231023  0  3.505302  0  0  -0.248697  0  3.526995  0  -1.245767  0  -0.292212  -0.219453  0  3.489779  0
N  N97  1  0.07255875  0.92710377  0.25005100  1  0  -0.315363  0  3.266195  0  0  -0.230945  0  3.505234  0  0  -0.248622  0  3.526932  0  -1.245659  0  -0.292185  -0.219375  0  3.48971  0
Cl  Cl98  1  0.77472185  0.33098424  0.91104207  1  0  -0.553001  0  0.86821  0  0  -0.500223  0  1.107202  0  0  -0.51229  0  1.093363  0  -0.684172  0  -0.24471  -0.491038  0  1.117848  0
Cl  Cl99  1  0.66887689  0.22531322  0.58905251  1  0  -0.55364  0  0.866616  0  0  -0.500789  0  1.105094  0  0  -0.512804  0  1.091151  0  -0.683782  0  -0.245333  -0.491601  0  1.115709  0
Cl  Cl100  1  0.22528030  0.66901329  0.08895770  1  0  -0.552979  0  0.86823  0  0  -0.500185  0  1.107204  0  0  -0.512257  0  1.093367  0  -0.684175  0  -0.244697  -0.491001  0  1.11785  0
Cl  Cl101  1  0.33112244  0.77468757  0.41094716  1  0  -0.553637  0  0.866614  0  0  -0.500786  0  1.105091  0  0  -0.512805  0  1.091154  0  -0.683778  0  -0.245337  -0.491599  0  1.115707  0
