# generated using pymatgen
data_Ca3Sm2H42C42(NO6)6
_symmetry_space_group_name_H-M   'P 1'
_cell_length_a   9.60635276
_cell_length_b   15.46562837
_cell_length_c   23.03442449
_cell_angle_alpha   108.53233352
_cell_angle_beta   89.99944791
_cell_angle_gamma   90.00054291
_symmetry_Int_Tables_number   1
_chemical_formula_structural   Ca3Sm2H42C42(NO6)6
_chemical_formula_sum   'Ca6 Sm4 H84 C84 N12 O72'
_cell_volume   3244.72555663
_cell_formula_units_Z   2
loop_
 _symmetry_equiv_pos_site_id
 _symmetry_equiv_pos_as_xyz
  1  'x, y, z'
loop_
 _atom_site_type_symbol
 _atom_site_label
 _atom_site_symmetry_multiplicity
 _atom_site_fract_x
 _atom_site_fract_y
 _atom_site_fract_z
 _atom_site_occupancy
 _atom_site_pbe_bader_charge
 _atom_site_pbe_bader_spin_density
 _atom_site_pbe_cm5_charge
 _atom_site_pbe_ddec_charge
 _atom_site_pbe_ddec_spin_density
 _atom_site_pbe_ddec_sum_bond_order
 _atom_site_pbe_magmom
Ca  Ca0  1  0.00001091  0.50000044  0.99999816  1  1.646121  0  0.884397  1.425226  0  1.469806  0
Ca  Ca1  1  0.99998559  0.49999731  0.49999572  1  1.646107  0  0.88435  1.425173  0  1.469706  0
Ca  Ca2  1  0.00000506  0.99999834  0.99999813  1  1.658142  0  0.901214  1.448606  0  1.460139  0
Ca  Ca3  1  0.99999248  0.00000692  0.50000646  1  1.658089  0  0.901211  1.448619  0  1.460097  0
Ca  Ca4  1  0.98231293  0.50000146  0.75000238  1  1.65444  0  0.814567  1.392757  0  1.387303  0
Ca  Ca5  1  0.01767623  0.50000355  0.24999749  1  1.65439  0  0.814603  1.392828  0  1.3872  0
Sm  Sm6  1  0.48722320  0.70578647  0.90228464  1  2.163735  0  1.508863  1.869716  0  2.308388  0
Sm  Sm7  1  0.48722979  0.29423710  0.59771729  1  2.163835  0  1.508818  1.869648  0  2.308403  0
Sm  Sm8  1  0.51276596  0.29419877  0.09771100  1  2.16362  0  1.50887  1.869695  0  2.308428  0
Sm  Sm9  1  0.51275313  0.70578155  0.40229157  1  2.163771  0  1.508778  1.869623  0  2.30839  0
H  H10  1  0.65809769  0.40674763  0.96673053  1  0.136111  0  0.118243  0.117156  0  1.044154  0
H  H11  1  0.65803127  0.59329501  0.53326156  1  0.135253  0  0.118355  0.117285  0  1.044083  0
H  H12  1  0.34190292  0.59325124  0.03325847  1  0.136594  0  0.118244  0.117108  0  1.044067  0
H  H13  1  0.34195685  0.40669499  0.46672208  1  0.136246  0  0.118284  0.117115  0  1.044052  0
H  H14  1  0.47181060  0.29763250  0.91096441  1  0.108845  0  0.112409  0.107997  0  0.984802  0
H  H15  1  0.47174096  0.70239641  0.58904379  1  0.108401  0  0.112547  0.108229  0  0.985073  0
H  H16  1  0.52818689  0.70235614  0.08903240  1  0.109018  0  0.112386  0.108  0  0.984708  0
H  H17  1  0.52826486  0.29760656  0.41093610  1  0.108091  0  0.112515  0.108289  0  0.984887  0
H  H18  1  0.29944319  0.34971826  0.84600235  1  0.125398  0  0.120093  0.129157  0  0.979132  0
H  H19  1  0.29942917  0.65030247  0.65401454  1  0.124738  0  0.120044  0.129151  0  0.979184  0
H  H20  1  0.70053035  0.65027379  0.15399909  1  0.125667  0  0.120111  0.129221  0  0.978999  0
H  H21  1  0.70057665  0.34971550  0.34597681  1  0.125086  0  0.120049  0.129113  0  0.979361  0
H  H22  1  0.63842598  0.02918326  0.07625714  1  0.1139  0  0.115961  0.120181  0  1.041393  0
H  H23  1  0.63841742  0.97083351  0.42375948  1  0.114156  0  0.11599  0.120158  0  1.04138  0
H  H24  1  0.36159961  0.97081562  0.92373447  1  0.114125  0  0.116073  0.120361  0  1.041243  0
H  H25  1  0.36158111  0.02918037  0.57626833  1  0.114023  0  0.116024  0.120272  0  1.041309  0
H  H26  1  0.43383069  0.04442114  0.14837055  1  0.106696  0  0.110228  0.107073  0  1.003282  0
H  H27  1  0.43383661  0.95557696  0.35163369  1  0.099837  0  0.110259  0.107115  0  1.003194  0
H  H28  1  0.56620011  0.95557978  0.85161846  1  0.106938  0  0.110103  0.10687  0  1.003406  0
H  H29  1  0.56620356  0.04443214  0.64837356  1  0.106821  0  0.110086  0.106956  0  1.003207  0
H  H30  1  0.25853365  0.91635292  0.12487603  1  0.116516  0  0.119144  0.124885  0  0.989354  0
H  H31  1  0.25852399  0.08364585  0.37512054  1  0.11665  0  0.119146  0.124823  0  0.989285  0
H  H32  1  0.74150027  0.08364527  0.87511544  1  0.116399  0  0.119214  0.124869  0  0.989192  0
H  H33  1  0.74151826  0.91636053  0.62487267  1  0.11686  0  0.119203  0.124807  0  0.989034  0
H  H34  1  0.88480856  0.34014804  0.90998948  1  0.664609  0  0.29512  0.392861  0  0.942596  0
H  H35  1  0.88480157  0.65984525  0.59000622  1  0.664544  0  0.295114  0.392864  0  0.942587  0
H  H36  1  0.11520350  0.65984265  0.09000429  1  0.66453  0  0.295068  0.392717  0  0.942778  0
H  H37  1  0.11518967  0.34014748  0.40999016  1  0.663992  0  0.29507  0.392881  0  0.94259  0
H  H38  1  0.88989565  0.41997313  0.87815290  1  0.639198  0  0.307765  0.401017  0  0.919853  0
H  H39  1  0.88991085  0.58002020  0.62184110  1  0.639287  0  0.307783  0.400924  0  0.919952  0
H  H40  1  0.11010808  0.58001756  0.12183870  1  0.639522  0  0.307827  0.401004  0  0.919832  0
H  H41  1  0.11008559  0.41996844  0.37815353  1  0.639419  0  0.307685  0.400904  0  0.919975  0
H  H42  1  0.16659322  0.62657110  0.95175261  1  0.657412  0  0.29922  0.393112  0  0.949341  0
H  H43  1  0.16659142  0.37342607  0.54824731  1  0.65749  0  0.299237  0.39314  0  0.949285  0
H  H44  1  0.83341051  0.37342641  0.04825130  1  0.657426  0  0.299152  0.393042  0  0.949416  0
H  H45  1  0.83340711  0.62657348  0.45175313  1  0.657416  0  0.299237  0.393128  0  0.949305  0
H  H46  1  0.11857206  0.53847834  0.89744086  1  0.605239  0  0.315909  0.383541  0  0.951941  0
H  H47  1  0.11856156  0.46151709  0.60255975  1  0.605258  0  0.315918  0.383558  0  0.951873  0
H  H48  1  0.88141710  0.46152462  0.10256204  1  0.60517  0  0.315897  0.383568  0  0.951907  0
H  H49  1  0.88142760  0.53848928  0.39743911  1  0.605277  0  0.315911  0.383585  0  0.951857  0
H  H50  1  0.01200578  0.79707713  0.94168729  1  0.616806  0  0.338222  0.420665  0  0.860897  0
H  H51  1  0.01200116  0.20293043  0.55832145  1  0.616031  0  0.338175  0.420568  0  0.860893  0
H  H52  1  0.98801461  0.20292311  0.05831937  1  0.616332  0  0.338192  0.420643  0  0.860766  0
H  H53  1  0.98801611  0.79709436  0.44168263  1  0.61649  0  0.338272  0.420702  0  0.860776  0
H  H54  1  0.16030946  0.83133579  0.92921667  1  0.654754  0  0.298069  0.39418  0  0.945462  0
H  H55  1  0.16031057  0.16867293  0.57078525  1  0.654548  0  0.298016  0.394068  0  0.945599  0
H  H56  1  0.83970468  0.16866649  0.07078609  1  0.654278  0  0.298028  0.394048  0  0.94565  0
H  H57  1  0.83968900  0.83133617  0.42922678  1  0.654727  0  0.298028  0.394047  0  0.945635  0
H  H58  1  0.08909746  0.95970439  0.87043702  1  0.654073  0  0.293088  0.394482  0  0.94274  0
H  H59  1  0.08908454  0.04031604  0.62956747  1  0.654653  0  0.293108  0.394397  0  0.942828  0
H  H60  1  0.91091252  0.04031153  0.12956647  1  0.654687  0  0.29315  0.394467  0  0.942738  0
H  H61  1  0.91090670  0.95968761  0.37044643  1  0.65435  0  0.293183  0.394561  0  0.942613  0
H  H62  1  0.05215361  0.06489491  0.89049696  1  0.598947  0  0.334587  0.410739  0  0.870994  0
H  H63  1  0.05214811  0.93512728  0.60951684  1  0.599313  0  0.334562  0.410819  0  0.870878  0
H  H64  1  0.94786990  0.93512579  0.10951320  1  0.599232  0  0.334588  0.410871  0  0.870832  0
H  H65  1  0.94785979  0.06487568  0.39048780  1  0.599203  0  0.334651  0.410949  0  0.870727  0
H  H66  1  0.73709824  0.72982616  0.69145789  1  0.126017  0  0.117793  0.127062  0  0.997606  0
H  H67  1  0.73709904  0.27016869  0.80853916  1  0.126135  0  0.117811  0.127107  0  0.997545  0
H  H68  1  0.26290966  0.27016589  0.30854008  1  0.126158  0  0.117821  0.127113  0  0.997585  0
H  H69  1  0.26291406  0.72982404  0.19145245  1  0.126314  0  0.117804  0.12716  0  0.99753  0
H  H70  1  0.57369672  0.84399568  0.67100035  1  0.088486  0  0.102445  0.093002  0  1.046038  0
H  H71  1  0.57368350  0.15600675  0.82900097  1  0.088647  0  0.102423  0.093007  0  1.045984  0
H  H72  1  0.42632367  0.15600865  0.32900111  1  0.088481  0  0.102417  0.093001  0  1.046075  0
H  H73  1  0.42636291  0.84397235  0.17098729  1  0.092582  0  0.102466  0.093006  0  1.046058  0
H  H74  1  0.78897744  0.56367446  0.84608663  1  0.632637  0  0.299577  0.385087  0  0.959112  0
H  H75  1  0.78896265  0.43633581  0.65391396  1  0.632622  0  0.299563  0.385021  0  0.959207  0
H  H76  1  0.21102004  0.43631964  0.15391004  1  0.63261  0  0.299544  0.385071  0  0.959143  0
H  H77  1  0.21103380  0.56366716  0.34608634  1  0.632583  0  0.299597  0.38507  0  0.959145  0
H  H78  1  0.92693793  0.57677130  0.88527439  1  0.622994  0  0.312147  0.388021  0  0.936763  0
H  H79  1  0.92692374  0.42322300  0.61472825  1  0.622973  0  0.312162  0.387925  0  0.936896  0
H  H80  1  0.07305644  0.42322893  0.11472446  1  0.622942  0  0.312137  0.388087  0  0.936679  0
H  H81  1  0.07307167  0.57677724  0.38527103  1  0.622881  0  0.312133  0.387838  0  0.936969  0
H  H82  1  0.16819748  0.64769586  0.81452305  1  0.645485  0  0.295554  0.381673  0  0.963021  0
H  H83  1  0.16820065  0.35231020  0.68547877  1  0.645469  0  0.29558  0.381667  0  0.963032  0
H  H84  1  0.83179272  0.35230506  0.18548289  1  0.64523  0  0.29561  0.38164  0  0.963074  0
H  H85  1  0.83179267  0.64770027  0.31450967  1  0.64532  0  0.295649  0.381709  0  0.962983  0
H  H86  1  0.05621150  0.70591367  0.79203533  1  0.601593  0  0.324824  0.405965  0  0.882711  0
H  H87  1  0.05622234  0.29408946  0.70796835  1  0.60157  0  0.324836  0.406017  0  0.882641  0
H  H88  1  0.94378286  0.29408930  0.20797148  1  0.601465  0  0.324869  0.406114  0  0.882502  0
H  H89  1  0.94376682  0.70592714  0.29202748  1  0.601465  0  0.324772  0.405918  0  0.882702  0
H  H90  1  0.35794995  0.88999980  0.73667828  1  0.114938  0  0.113623  0.124922  0  0.98818  0
H  H91  1  0.35793872  0.11000775  0.76332437  1  0.115096  0  0.113638  0.124949  0  0.988246  0
H  H92  1  0.64206419  0.11000999  0.26332652  1  0.115035  0  0.113638  0.124919  0  0.988214  0
H  H93  1  0.64210665  0.88995907  0.23667039  1  0.115395  0  0.113606  0.124871  0  0.988222  0
C  C94  1  0.58462041  0.51362654  0.93352306  1  0.512197  0  0.125099  0.117322  0  3.964678  0
C  C95  1  0.58459848  0.48641416  0.56647780  1  0.511238  0  0.124978  0.11746  0  3.964245  0
C  C96  1  0.41536146  0.48636210  0.06647419  1  0.509821  0  0.125056  0.117107  0  3.965069  0
C  C97  1  0.41540213  0.51359562  0.43352091  1  0.51211  0  0.125147  0.117888  0  3.964432  0
C  C98  1  0.58281960  0.42548101  0.93756932  1  -0.07697  0  -0.066758  -0.126232  0  3.908765  0
C  C99  1  0.58277669  0.57456037  0.56242950  1  -0.075312  0  -0.066853  -0.126245  0  3.908734  0
C  C100  1  0.41717372  0.57450832  0.06241895  1  -0.077275  0  -0.066677  -0.125855  0  3.908396  0
C  C101  1  0.41721872  0.42543987  0.43755632  1  -0.076579  0  -0.066744  -0.126091  0  3.908887  0
C  C102  1  0.47971138  0.36531480  0.90617949  1  0.027539  0  -0.058924  -0.01117  0  3.930861  0
C  C103  1  0.47966825  0.63471348  0.59382471  1  0.026801  0  -0.059225  -0.011839  0  3.931573  0
C  C104  1  0.52026841  0.63467180  0.09381558  1  0.028914  0  -0.058837  -0.011302  0  3.930809  0
C  C105  1  0.52032403  0.36529357  0.40616430  1  0.027709  0  -0.059123  -0.011805  0  3.931907  0
C  C106  1  0.38375251  0.39339778  0.87033790  1  -0.033328  0  -0.059344  -0.104576  0  3.8919  0
C  C107  1  0.38373639  0.60662566  0.62967608  1  -0.032483  0  -0.05921  -0.104132  0  3.891694  0
C  C108  1  0.61621582  0.60658950  0.12966817  1  -0.034623  0  -0.059486  -0.104755  0  3.891867  0
C  C109  1  0.61627776  0.39338890  0.37031757  1  -0.033314  0  -0.059242  -0.104281  0  3.892075  0
C  C110  1  0.39478154  0.48192330  0.86762564  1  0.483943  0  0.12181  0.113769  0  3.971477  0
C  C111  1  0.39474902  0.51809273  0.63237292  1  0.481247  0  0.121739  0.113286  0  3.972132  0
C  C112  1  0.60518992  0.51806466  0.13237146  1  0.482261  0  0.121825  0.113916  0  3.971354  0
C  C113  1  0.60523181  0.48191774  0.36761812  1  0.483432  0  0.121688  0.11335  0  3.9716  0
C  C114  1  0.68521880  0.58727788  0.96916513  1  1.626806  0  0.223758  0.583238  0  4.247713  0
C  C115  1  0.68518571  0.41276907  0.53083582  1  1.627846  0  0.223585  0.582802  0  4.248235  0
C  C116  1  0.31478805  0.41271349  0.03082792  1  1.628405  0  0.22373  0.583297  0  4.248417  0
C  C117  1  0.31479513  0.58722162  0.46915534  1  1.627373  0  0.223663  0.582694  0  4.247559  0
C  C118  1  0.29290061  0.52215186  0.83336706  1  1.585204  0  0.230323  0.561915  0  4.205291  0
C  C119  1  0.29290123  0.47787427  0.66664791  1  1.586207  0  0.230258  0.561883  0  4.204673  0
C  C120  1  0.70706253  0.47784633  0.16663699  1  1.584531  0  0.23034  0.561779  0  4.205045  0
C  C121  1  0.70710250  0.52216893  0.33336315  1  1.585306  0  0.23039  0.562177  0  4.205749  0
C  C122  1  0.56575512  0.90139913  0.01601423  1  0.512861  0  0.123593  0.116218  0  3.968919  0
C  C123  1  0.56575737  0.09862252  0.48398657  1  0.51363  0  0.123745  0.116069  0  3.969007  0
C  C124  1  0.43424341  0.09860520  0.98396943  1  0.513399  0  0.123618  0.116487  0  3.968533  0
C  C125  1  0.43425156  0.90140227  0.51603010  1  0.513402  0  0.123642  0.116537  0  3.968592  0
C  C126  1  0.55882092  0.97688031  0.06883917  1  -0.002553  0  -0.069159  -0.127678  0  3.914038  0
C  C127  1  0.55881430  0.02312287  0.43117068  1  -0.002872  0  -0.069247  -0.1275  0  3.914401  0
C  C128  1  0.44121196  0.02311038  0.93115678  1  -0.002833  0  -0.069313  -0.12808  0  3.914262  0
C  C129  1  0.44119672  0.97689169  0.56884424  1  -0.002879  0  -0.069324  -0.128016  0  3.914613  0
C  C130  1  0.44633352  0.98417896  0.10842364  1  -0.083345  0  -0.060032  -0.014286  0  3.93218  0
C  C131  1  0.44634638  0.01581925  0.39158458  1  -0.076032  0  -0.060095  -0.014451  0  3.93214  0
C  C132  1  0.55368999  0.01581514  0.89156999  1  -0.083482  0  -0.059841  -0.013831  0  3.931805  0
C  C133  1  0.55368337  0.98419804  0.60841920  1  -0.083151  0  -0.059762  -0.014007  0  3.931691  0
C  C134  1  0.34860428  0.91397725  0.09573481  1  0.012291  0  -0.06222  -0.118986  0  3.926222  0
C  C135  1  0.34860082  0.08602291  0.40426770  1  0.011717  0  -0.062204  -0.118834  0  3.925803  0
C  C136  1  0.65143380  0.08601889  0.90426620  1  0.014491  0  -0.062293  -0.119159  0  3.925919  0
C  C137  1  0.65141541  0.91397392  0.59573172  1  0.01153  0  -0.062281  -0.118876  0  3.925446  0
C  C138  1  0.36674563  0.83876143  0.04332425  1  0.503152  0  0.124578  0.116981  0  3.981046  0
C  C139  1  0.36674066  0.16124569  0.45667767  1  0.503031  0  0.124554  0.116798  0  3.981102  0
C  C140  1  0.63328100  0.16122994  0.95667531  1  0.499968  0  0.124723  0.117288  0  3.981041  0
C  C141  1  0.63325891  0.83874977  0.54332797  1  0.502727  0  0.124521  0.116749  0  3.981163  0
C  C142  1  0.67793997  0.89009049  0.96787416  1  1.632608  0  0.228075  0.594243  0  4.231376  0
C  C143  1  0.67794602  0.10992913  0.53213482  1  1.632028  0  0.228342  0.594668  0  4.230848  0
C  C144  1  0.32207001  0.10988656  0.03212278  1  1.63179  0  0.228332  0.59453  0  4.230512  0
C  C145  1  0.32202336  0.89007656  0.46789341  1  1.632441  0  0.228204  0.594286  0  4.230539  0
C  C146  1  0.27472507  0.75547301  0.02840313  1  1.609253  0  0.223555  0.560682  0  4.228777  0
C  C147  1  0.27472676  0.24452793  0.47159659  1  1.609134  0  0.223681  0.5609  0  4.228985  0
C  C148  1  0.72526825  0.24452041  0.97159730  1  1.609543  0  0.223543  0.560649  0  4.228955  0
C  C149  1  0.72528010  0.75547299  0.52840414  1  1.609012  0  0.223679  0.561055  0  4.228943  0
C  C150  1  0.61406944  0.71894875  0.76694410  1  0.562267  0  0.13058  0.129922  0  3.950684  0
C  C151  1  0.61407296  0.28104990  0.73305488  1  0.562026  0  0.130526  0.129819  0  3.950702  0
C  C152  1  0.38591764  0.28103853  0.23304677  1  0.561936  0  0.130603  0.129831  0  3.950636  0
C  C153  1  0.38593910  0.71893738  0.26694251  1  0.562209  0  0.130651  0.130144  0  3.950543  0
C  C154  1  0.64433797  0.75320502  0.71915814  1  -0.033729  0  -0.062136  -0.113021  0  3.901771  0
C  C155  1  0.64434146  0.24678092  0.78083654  1  -0.033614  0  -0.062146  -0.113032  0  3.901749  0
C  C156  1  0.35565431  0.24677135  0.28083084  1  -0.032459  0  -0.062089  -0.112925  0  3.901731  0
C  C157  1  0.35567373  0.75321318  0.21916056  1  -0.033757  0  -0.062234  -0.113406  0  3.901556  0
C  C158  1  0.55284950  0.81624853  0.70805638  1  -0.084492  0  -0.066695  -0.029857  0  3.967242  0
C  C159  1  0.55284372  0.18373669  0.79193682  1  -0.085479  0  -0.066726  -0.0299  0  3.967313  0
C  C160  1  0.44714903  0.18373670  0.29193536  1  -0.08609  0  -0.066809  -0.030054  0  3.967416  0
C  C161  1  0.44718395  0.81625537  0.20806332  1  -0.089136  0  -0.06674  -0.029909  0  3.967138  0
C  C162  1  0.43381779  0.84218247  0.74402801  1  -0.036228  0  -0.070243  -0.131365  0  3.93218  0
C  C163  1  0.43381526  0.15781204  0.75596745  1  -0.03587  0  -0.070358  -0.131637  0  3.932623  0
C  C164  1  0.56618178  0.15780890  0.25596590  1  -0.0358  0  -0.070224  -0.131365  0  3.932453  0
C  C165  1  0.56620304  0.84218684  0.24403892  1  -0.035812  0  -0.070342  -0.131259  0  3.932376  0
C  C166  1  0.41315018  0.80634755  0.79195123  1  0.520527  0  0.120183  0.112625  0  3.984934  0
C  C167  1  0.41315189  0.19366658  0.70805439  1  0.521068  0  0.120193  0.112732  0  3.985149  0
C  C168  1  0.58684835  0.19365542  0.20805254  1  0.520881  0  0.120186  0.112688  0  3.985059  0
C  C169  1  0.58683727  0.80634867  0.29195808  1  0.52028  0  0.120255  0.112587  0  3.985171  0
C  C170  1  0.70332272  0.64808901  0.78167973  1  1.607586  0  0.235757  0.581352  0  4.185038  0
C  C171  1  0.70332447  0.35191171  0.71832491  1  1.607819  0  0.235677  0.58124  0  4.185467  0
C  C172  1  0.29665811  0.35189349  0.21831013  1  1.607681  0  0.235655  0.581399  0  4.185408  0
C  C173  1  0.29666885  0.64809398  0.28167814  1  1.60749  0  0.235689  0.581334  0  4.185796  0
C  C174  1  0.29303556  0.83541907  0.83640760  1  1.601655  0  0.219723  0.549943  0  4.237773  0
C  C175  1  0.29303590  0.16458933  0.66359230  1  1.601015  0  0.219775  0.550163  0  4.237528  0
C  C176  1  0.70697650  0.16458798  0.16359271  1  1.601004  0  0.219558  0.549771  0  4.237882  0
C  C177  1  0.70698345  0.83540954  0.33642362  1  1.602488  0  0.219822  0.55018  0  4.237553  0
N  N178  1  0.49175526  0.54043033  0.89941379  1  -1.249466  0  -0.389407  -0.353698  0  3.540832  0
N  N179  1  0.49173446  0.45960078  0.60059108  1  -1.24832  0  -0.389216  -0.353493  0  3.540714  0
N  N180  1  0.50822037  0.45955422  0.10058345  1  -1.247206  0  -0.389488  -0.353802  0  3.540715  0
N  N181  1  0.50823701  0.54041241  0.39941314  1  -1.249075  0  -0.389362  -0.353803  0  3.540723  0
N  N182  1  0.47065436  0.83463721  0.00368991  1  -1.260829  0  -0.384924  -0.35597  0  3.535175  0
N  N183  1  0.47065483  0.16537551  0.49631025  1  -1.261472  0  -0.384991  -0.355995  0  3.53532  0
N  N184  1  0.52935770  0.16535621  0.99630835  1  -1.260479  0  -0.385057  -0.356349  0  3.535066  0
N  N185  1  0.52932392  0.83462678  0.50370119  1  -1.260419  0  -0.384941  -0.356151  0  3.534812  0
N  N186  1  0.50245575  0.74693199  0.80305130  1  -1.239285  0  -0.376209  -0.343503  0  3.517062  0
N  N187  1  0.50245521  0.25307875  0.69695188  1  -1.239461  0  -0.376105  -0.343375  0  3.517308  0
N  N188  1  0.49754174  0.25306348  0.19694566  1  -1.239322  0  -0.376339  -0.34363  0  3.517173  0
N  N189  1  0.49754020  0.74692217  0.30305363  1  -1.239424  0  -0.376136  -0.343487  0  3.517285  0
O  O190  1  0.65828530  0.66771142  0.96863424  1  -1.179335  0  -0.388106  -0.632209  0  2.233077  0
O  O191  1  0.65826527  0.33234350  0.53137870  1  -1.179501  0  -0.388069  -0.632078  0  2.233236  0
O  O192  1  0.34171427  0.33228609  0.03136142  1  -1.179469  0  -0.388047  -0.632132  0  2.233341  0
O  O193  1  0.34171036  0.66766492  0.46862623  1  -1.179347  0  -0.388143  -0.632142  0  2.232565  0
O  O194  1  0.78450290  0.56443304  0.99690038  1  -1.22299  0  -0.376029  -0.624871  0  2.235865  0
O  O195  1  0.78444314  0.43562015  0.50308937  1  -1.223622  0  -0.375883  -0.62455  0  2.23614  0
O  O196  1  0.21549771  0.43556106  0.00310150  1  -1.223023  0  -0.376023  -0.624912  0  2.236122  0
O  O197  1  0.21553352  0.56437599  0.49690817  1  -1.223341  0  -0.375925  -0.624602  0  2.235848  0
O  O198  1  0.32165633  0.60242460  0.83174923  1  -1.186712  0  -0.36616  -0.621035  0  2.30488  0
O  O199  1  0.32165329  0.39759426  0.66825565  1  -1.185911  0  -0.366117  -0.621103  0  2.304714  0
O  O200  1  0.67832242  0.39756132  0.16824873  1  -1.186165  0  -0.366104  -0.620925  0  2.304818  0
O  O201  1  0.67832338  0.60242712  0.33174597  1  -1.186391  0  -0.366126  -0.621067  0  2.305585  0
O  O202  1  0.18313403  0.47825907  0.81281457  1  -1.194414  0  -0.324667  -0.572798  0  2.192998  0
O  O203  1  0.18312663  0.52176620  0.68720098  1  -1.193797  0  -0.324657  -0.572662  0  2.192444  0
O  O204  1  0.81684992  0.52173094  0.18717776  1  -1.194619  0  -0.324726  -0.572766  0  2.192697  0
O  O205  1  0.81685628  0.47826950  0.31280240  1  -1.194407  0  -0.324782  -0.572887  0  2.192985  0
O  O206  1  0.65951492  0.82653189  0.91760178  1  -1.179151  0  -0.381791  -0.625547  0  2.242473  0
O  O207  1  0.65954544  0.17350395  0.58240405  1  -1.179385  0  -0.382075  -0.625804  0  2.242212  0
O  O208  1  0.34047424  0.17345539  0.08239343  1  -1.178742  0  -0.381939  -0.625781  0  2.241772  0
O  O209  1  0.34043852  0.82651266  0.41762130  1  -1.179222  0  -0.38183  -0.625454  0  2.241997  0
O  O210  1  0.77890442  0.94498251  0.98102163  1  -1.231094  0  -0.381252  -0.630749  0  2.230452  0
O  O211  1  0.77889900  0.05502904  0.51898656  1  -1.230484  0  -0.381254  -0.630809  0  2.230501  0
O  O212  1  0.22110452  0.05500068  0.01897054  1  -1.230687  0  -0.381335  -0.630773  0  2.230619  0
O  O213  1  0.22108704  0.94499030  0.48103460  1  -1.230952  0  -0.381369  -0.630902  0  2.230451  0
O  O214  1  0.29532967  0.69614973  0.97501211  1  -1.202422  0  -0.362443  -0.642118  0  2.315826  0
O  O215  1  0.29532001  0.30384846  0.52498258  1  -1.202457  0  -0.362477  -0.642102  0  2.315946  0
O  O216  1  0.70466366  0.30384369  0.02498701  1  -1.202467  0  -0.362484  -0.642147  0  2.315773  0
O  O217  1  0.70466707  0.69615791  0.47501888  1  -1.202343  0  -0.362462  -0.642187  0  2.316031  0
O  O218  1  0.19210422  0.74796264  0.06853187  1  -1.182191  0  -0.303545  -0.534207  0  2.137465  0
O  O219  1  0.19209759  0.25203356  0.43147163  1  -1.182027  0  -0.303634  -0.534385  0  2.137501  0
O  O220  1  0.80789639  0.25203146  0.93147218  1  -1.182236  0  -0.303596  -0.534239  0  2.137367  0
O  O221  1  0.80789469  0.74795782  0.56853010  1  -1.182226  0  -0.303621  -0.53439  0  2.137477  0
O  O222  1  0.66569461  0.62720092  0.82919101  1  -1.182681  0  -0.370677  -0.626775  0  2.322429  0
O  O223  1  0.66569925  0.37281110  0.67082107  1  -1.18249  0  -0.370563  -0.626684  0  2.322698  0
O  O224  1  0.33427997  0.37278636  0.17080638  1  -1.182761  0  -0.370588  -0.626732  0  2.322825  0
O  O225  1  0.33427533  0.62720823  0.32918707  1  -1.182508  0  -0.370602  -0.62675  0  2.322907  0
O  O226  1  0.80385717  0.61443207  0.74740560  1  -1.186436  0  -0.32372  -0.548676  0  2.186241  0
O  O227  1  0.80386009  0.38555786  0.75259376  1  -1.186819  0  -0.323708  -0.548568  0  2.186369  0
O  O228  1  0.19613824  0.38556067  0.25259338  1  -1.186601  0  -0.323627  -0.548633  0  2.185957  0
O  O229  1  0.19613948  0.61444034  0.24740726  1  -1.186583  0  -0.323714  -0.548638  0  2.186315  0
O  O230  1  0.30104490  0.80975756  0.88436915  1  -1.192489  0  -0.356415  -0.630387  0  2.314049  0
O  O231  1  0.30105553  0.19025773  0.61563053  1  -1.191791  0  -0.356244  -0.630198  0  2.313549  0
O  O232  1  0.69895051  0.19023790  0.11562868  1  -1.192025  0  -0.356308  -0.630207  0  2.3141  0
O  O233  1  0.69894612  0.80975547  0.38438237  1  -1.192548  0  -0.356309  -0.630241  0  2.31389  0
O  O234  1  0.19819920  0.88283567  0.82430451  1  -1.179304  0  -0.312965  -0.544447  0  2.146359  0
O  O235  1  0.19819257  0.11718153  0.67569159  1  -1.179323  0  -0.313105  -0.544653  0  2.146788  0
O  O236  1  0.80180870  0.11717616  0.17569941  1  -1.179287  0  -0.31287  -0.544316  0  2.146541  0
O  O237  1  0.80182574  0.88280643  0.32431289  1  -1.18011  0  -0.313113  -0.544686  0  2.146634  0
O  O238  1  0.93992276  0.39125506  0.90454455  1  -1.313417  0  -0.630876  -0.826633  0  1.945062  0
O  O239  1  0.93993108  0.60874412  0.59545139  1  -1.31344  0  -0.630919  -0.826564  0  1.945149  0
O  O240  1  0.06008514  0.60873632  0.09544633  1  -1.313636  0  -0.63095  -0.826486  0  1.9453  0
O  O241  1  0.06005703  0.39124657  0.40454065  1  -1.313015  0  -0.630729  -0.826547  0  1.945111  0
O  O242  1  0.08830663  0.58113697  0.93682240  1  -1.280136  0  -0.618591  -0.804471  0  2.02195  0
O  O243  1  0.08828996  0.41885141  0.56317828  1  -1.280091  0  -0.618569  -0.804513  0  2.02181  0
O  O244  1  0.91169086  0.41886804  0.06317616  1  -1.280061  0  -0.618514  -0.804493  0  2.022007  0
O  O245  1  0.91170336  0.58114951  0.43681941  1  -1.280086  0  -0.618546  -0.804496  0  2.021834  0
O  O246  1  0.07751959  0.84702917  0.95733444  1  -1.276528  0  -0.616812  -0.814627  0  1.948977  0
O  O247  1  0.07751835  0.15297822  0.54267243  1  -1.27563  0  -0.616719  -0.814443  0  1.949043  0
O  O248  1  0.92249767  0.15297312  0.04266962  1  -1.275616  0  -0.616723  -0.814509  0  1.948916  0
O  O249  1  0.92248122  0.84703634  0.45733946  1  -1.2762  0  -0.61683  -0.81453  0  1.949012  0
O  O250  1  0.02859445  0.00841647  0.89813565  1  -1.257433  0  -0.612975  -0.82246  0  1.938698  0
O  O251  1  0.02858117  0.99160280  0.60187524  1  -1.2583  0  -0.61295  -0.822471  0  1.938674  0
O  O252  1  0.97141137  0.99160081  0.10186597  1  -1.258319  0  -0.613042  -0.822612  0  1.938638  0
O  O253  1  0.97140278  0.00840357  0.39814011  1  -1.257934  0  -0.613135  -0.822761  0  1.93846  0
O  O254  1  0.87471806  0.53122348  0.85319953  1  -1.267831  0  -0.598855  -0.802063  0  2.071089  0
O  O255  1  0.87471792  0.46877996  0.64680480  1  -1.267777  0  -0.59888  -0.801951  0  2.071243  0
O  O256  1  0.12528463  0.46877608  0.14679787  1  -1.267744  0  -0.598818  -0.802135  0  2.071026  0
O  O257  1  0.12527853  0.53121960  0.35318912  1  -1.2677  0  -0.598899  -0.801899  0  2.071429  0
O  O258  1  0.06692730  0.65544532  0.80820000  1  -1.256887  0  -0.608018  -0.809525  0  2.014322  0
O  O259  1  0.06693090  0.34455857  0.69180433  1  -1.256838  0  -0.608032  -0.809543  0  2.014183  0
O  O260  1  0.93306394  0.34455696  0.19180667  1  -1.256468  0  -0.608111  -0.809677  0  2.014063  0
O  O261  1  0.93306346  0.65544780  0.30818367  1  -1.256557  0  -0.60805  -0.809521  0  2.014207  0
