# generated using pymatgen
data_LiH12C7SNO3
_symmetry_space_group_name_H-M   'P 1'
_cell_length_a   8.98439564
_cell_length_b   9.86561105
_cell_length_c   10.78989580
_cell_angle_alpha   90.00021674
_cell_angle_beta   92.92005007
_cell_angle_gamma   90.00009901
_symmetry_Int_Tables_number   1
_chemical_formula_structural   LiH12C7SNO3
_chemical_formula_sum   'Li4 H48 C28 S4 N4 O12'
_cell_volume   955.13739926
_cell_formula_units_Z   4
loop_
 _symmetry_equiv_pos_site_id
 _symmetry_equiv_pos_as_xyz
  1  'x, y, z'
loop_
 _atom_site_type_symbol
 _atom_site_label
 _atom_site_symmetry_multiplicity
 _atom_site_fract_x
 _atom_site_fract_y
 _atom_site_fract_z
 _atom_site_occupancy
 _atom_site_hle17_bader_spin_density
 _atom_site_hle17_ddec_charge
 _atom_site_hle17_ddec_spin_density
 _atom_site_hle17_ddec_sum_bond_order
 _atom_site_hle17_magmom
 _atom_site_hse06_10hf_bader_spin_density
 _atom_site_hse06_10hf_ddec_charge
 _atom_site_hse06_10hf_ddec_spin_density
 _atom_site_hse06_10hf_ddec_sum_bond_order
 _atom_site_hse06_10hf_magmom
 _atom_site_hse06_bader_spin_density
 _atom_site_hse06_ddec_charge
 _atom_site_hse06_ddec_spin_density
 _atom_site_hse06_ddec_sum_bond_order
 _atom_site_hse06_magmom
 _atom_site_pbe_bader_spin_density
 _atom_site_pbe_cm5_charge
 _atom_site_pbe_ddec_charge
 _atom_site_pbe_ddec_spin_density
 _atom_site_pbe_ddec_sum_bond_order
 _atom_site_pbe_magmom
Li  Li0  1  0.15844029  0.08558160  0.17389274  1  0  0.845796  0  0.416987  0  0  0.800572  0  0.529864  0  0  0.810195  0  0.51357  0  0  0.535748  0.79351  0  0.541754  0
Li  Li1  1  0.15843986  0.41441883  0.67389206  1  0  0.845787  0  0.416998  0  0  0.800549  0  0.529884  0  0  0.810174  0  0.513587  0  0  0.535748  0.793488  0  0.541774  0
Li  Li2  1  0.84155972  0.91441912  0.82610721  1  0  0.845768  0  0.417009  0  0  0.800555  0  0.529863  0  0  0.810176  0  0.513573  0  0  0.535755  0.793495  0  0.541752  0
Li  Li3  1  0.84155905  0.58557987  0.32610690  1  0  0.845776  0  0.416986  0  0  0.800552  0  0.529867  0  0  0.810173  0  0.513576  0  0  0.535739  0.793491  0  0.541758  0
H  H4  1  0.90427732  0.23928611  0.81829302  1  0  0.168232  0  0.956796  0  0  0.183246  0  1.016551  0  0  0.186011  0  1.016003  0  0  0.114682  0.181203  0  1.017123  0
H  H5  1  0.90427591  0.26071507  0.31829236  1  0  0.168209  0  0.956813  0  0  0.183227  0  1.016559  0  0  0.18599  0  1.016014  0  0  0.114682  0.181183  0  1.017132  0
H  H6  1  0.09572489  0.76071258  0.18171074  1  0  0.168249  0  0.956809  0  0  0.183255  0  1.016555  0  0  0.186021  0  1.016008  0  0  0.114674  0.181212  0  1.017127  0
H  H7  1  0.09572302  0.73928565  0.68170476  1  0  0.168162  0  0.956801  0  0  0.183176  0  1.016563  0  0  0.185941  0  1.016016  0  0  0.114669  0.181133  0  1.017136  0
H  H8  1  0.01227297  0.32408527  0.93926870  1  0  0.159333  0  0.94426  0  0  0.176054  0  1.003887  0  0  0.178536  0  1.00312  0  0  0.115175  0.174223  0  1.004482  0
H  H9  1  0.01227365  0.17591197  0.43926506  1  0  0.159316  0  0.944213  0  0  0.176035  0  1.003851  0  0  0.178517  0  1.003086  0  0  0.115139  0.174203  0  1.004451  0
H  H10  1  0.98773036  0.67591241  0.06073326  1  0  0.159371  0  0.944228  0  0  0.176063  0  1.003881  0  0  0.178546  0  1.003116  0  0  0.115174  0.174232  0  1.004478  0
H  H11  1  0.98772752  0.82408571  0.56073123  1  0  0.159323  0  0.944272  0  0  0.176037  0  1.003902  0  0  0.178519  0  1.00314  0  0  0.115169  0.174206  0  1.004502  0
H  H12  1  0.06353234  0.15571552  0.89258946  1  0  0.167831  0  0.934118  0  0  0.183116  0  0.994732  0  0  0.186568  0  0.992639  0  0  0.122634  0.180467  0  0.996548  0
H  H13  1  0.06352885  0.34428567  0.39259269  1  0  0.167819  0  0.934172  0  0  0.183115  0  0.994744  0  0  0.186565  0  0.992653  0  0  0.122623  0.180465  0  0.996563  0
H  H14  1  0.93647212  0.84428217  0.10741163  1  0  0.167752  0  0.934186  0  0  0.183044  0  0.99476  0  0  0.186494  0  0.992671  0  0  0.122559  0.180395  0  0.996577  0
H  H15  1  0.93646781  0.65571607  0.60740895  1  0  0.167853  0  0.934117  0  0  0.183135  0  0.994718  0  0  0.186583  0  0.992632  0  0  0.122645  0.180484  0  0.996538  0
H  H16  1  0.49895202  0.22435491  0.21472215  1  0  0.042977  0  0.953998  0  0  0.056345  0  1.021926  0  0  0.056924  0  1.021897  0  0  0.093216  0.05572  0  1.022318  0
H  H17  1  0.49895015  0.27564521  0.71472371  1  0  0.042995  0  0.954068  0  0  0.056327  0  1.02199  0  0  0.056907  0  1.021959  0  0  0.093192  0.055702  0  1.022382  0
H  H18  1  0.50104910  0.77564683  0.78527878  1  0  0.042988  0  0.953974  0  0  0.05634  0  1.021913  0  0  0.05692  0  1.021879  0  0  0.093215  0.055715  0  1.022307  0
H  H19  1  0.50104874  0.72435551  0.28527711  1  0  0.042986  0  0.95405  0  0  0.056343  0  1.021963  0  0  0.056922  0  1.021931  0  0  0.093216  0.055718  0  1.022355  0
H  H20  1  0.39292504  0.18820833  0.34717196  1  0  0.050813  0  0.93916  0  0  0.066259  0  1.003805  0  0  0.066468  0  1.003374  0  0  0.104174  0.066056  0  1.004188  0
H  H21  1  0.39292437  0.31179319  0.84717277  1  0  0.050974  0  0.939184  0  0  0.066402  0  1.003785  0  0  0.066609  0  1.003358  0  0  0.104265  0.066198  0  1.004168  0
H  H22  1  0.60707609  0.81179341  0.65282804  1  0  0.050822  0  0.939208  0  0  0.066293  0  1.003809  0  0  0.066484  0  1.003396  0  0  0.104203  0.066093  0  1.004188  0
H  H23  1  0.60707565  0.68820855  0.15282717  1  0  0.050817  0  0.939244  0  0  0.066283  0  1.003836  0  0  0.066474  0  1.003423  0  0  0.104198  0.066083  0  1.004215  0
H  H24  1  0.53977141  0.43369751  0.33038310  1  0  0.089349  0  0.951809  0  0  0.106799  0  1.012314  0  0  0.107787  0  1.012967  0  0  0.100912  0.105997  0  1.011859  0
H  H25  1  0.53977020  0.06630518  0.83038489  1  0  0.089364  0  0.95182  0  0  0.106816  0  1.012334  0  0  0.107805  0  1.012986  0  0  0.100918  0.106021  0  1.011873  0
H  H26  1  0.46022861  0.56630524  0.66961685  1  0  0.089364  0  0.951806  0  0  0.106809  0  1.012317  0  0  0.1078  0  1.012969  0  0  0.100913  0.106008  0  1.011862  0
H  H27  1  0.46022868  0.93369554  0.16961685  1  0  0.089369  0  0.951796  0  0  0.106813  0  1.012314  0  0  0.107802  0  1.012966  0  0  0.100915  0.106012  0  1.011859  0
H  H28  1  0.35790784  0.42906523  0.38825883  1  0  0.08945  0  0.955065  0  0  0.106352  0  1.013453  0  0  0.108128  0  1.012847  0  0  0.094238  0.104955  0  1.014003  0
H  H29  1  0.35790775  0.07093741  0.88826162  1  0  0.089503  0  0.954959  0  0  0.106397  0  1.01337  0  0  0.108171  0  1.012767  0  0  0.094253  0.104999  0  1.013921  0
H  H30  1  0.64209107  0.57093650  0.61174013  1  0  0.089453  0  0.955057  0  0  0.106359  0  1.013443  0  0  0.108134  0  1.012842  0  0  0.094234  0.104961  0  1.013995  0
H  H31  1  0.64209226  0.92906433  0.11173925  1  0  0.089477  0  0.955008  0  0  0.106376  0  1.013403  0  0  0.108149  0  1.0128  0  0  0.094257  0.104978  0  1.013952  0
H  H32  1  0.31814762  0.58197478  0.21250721  1  0  0.073611  0  0.962329  0  0  0.087152  0  1.033198  0  0  0.087603  0  1.034597  0  0  0.091674  0.086511  0  1.0327  0
H  H33  1  0.31814716  0.91802697  0.71250933  1  0  0.073614  0  0.962309  0  0  0.087143  0  1.033189  0  0  0.087592  0  1.034592  0  0  0.091678  0.086501  0  1.032692  0
H  H34  1  0.68185128  0.41802696  0.78749268  1  0  0.073625  0  0.962326  0  0  0.087148  0  1.033218  0  0  0.087599  0  1.034618  0  0  0.091697  0.086507  0  1.032719  0
H  H35  1  0.68185285  0.08197578  0.28749062  1  0  0.073629  0  0.962294  0  0  0.087163  0  1.033165  0  0  0.087614  0  1.034563  0  0  0.091669  0.086521  0  1.032667  0
H  H36  1  0.44239009  0.48824912  0.12183745  1  0  0.061841  0  0.947297  0  0  0.079426  0  1.009372  0  0  0.079575  0  1.01086  0  0  0.087835  0.079714  0  1.007331  0
H  H37  1  0.44238988  0.01174951  0.62183911  1  0  0.06185  0  0.947298  0  0  0.079437  0  1.009366  0  0  0.079587  0  1.010853  0  0  0.087842  0.079724  0  1.007324  0
H  H38  1  0.55760882  0.51175363  0.87816152  1  0  0.061835  0  0.947286  0  0  0.079422  0  1.009363  0  0  0.079572  0  1.010852  0  0  0.08784  0.07971  0  1.007322  0
H  H39  1  0.55761124  0.98825020  0.37816182  1  0  0.061853  0  0.947297  0  0  0.079437  0  1.009367  0  0  0.079587  0  1.010855  0  0  0.087844  0.079726  0  1.007325  0
H  H40  1  0.12384207  0.41693664  0.18253839  1  0  0.052503  0  0.931957  0  0  0.06525  0  0.997979  0  0  0.065654  0  0.998021  0  0  0.102359  0.065366  0  0.997006  0
H  H41  1  0.12384204  0.08306276  0.68253844  1  0  0.052527  0  0.932018  0  0  0.065252  0  0.99804  0  0  0.065657  0  0.99808  0  0  0.102364  0.065371  0  0.997064  0
H  H42  1  0.87615683  0.58306510  0.81746151  1  0  0.052487  0  0.931917  0  0  0.065228  0  0.997971  0  0  0.065632  0  0.998011  0  0  0.102347  0.065346  0  0.996994  0
H  H43  1  0.87615911  0.91693796  0.31745971  1  0  0.052501  0  0.932076  0  0  0.065279  0  0.998076  0  0  0.065684  0  0.998117  0  0  0.1024  0.0654  0  0.997096  0
H  H44  1  0.21896827  0.38332269  0.04397990  1  0  0.047426  0  0.954882  0  0  0.061519  0  1.020151  0  0  0.061666  0  1.020105  0  0  0.098456  0.061111  0  1.020662  0
H  H45  1  0.21896829  0.11667729  0.54398100  1  0  0.047369  0  0.954951  0  0  0.061463  0  1.020192  0  0  0.061609  0  1.020147  0  0  0.098443  0.061055  0  1.020704  0
H  H46  1  0.78103063  0.61668107  0.95601999  1  0  0.047395  0  0.954914  0  0  0.061523  0  1.020153  0  0  0.06167  0  1.020108  0  0  0.098455  0.061113  0  1.020667  0
H  H47  1  0.78103396  0.88332343  0.45601813  1  0  0.047343  0  0.954931  0  0  0.061465  0  1.020187  0  0  0.061607  0  1.020145  0  0  0.098446  0.061057  0  1.0207  0
H  H48  1  0.61429440  0.25528830  0.99435363  1  0  0.179798  0  0.966647  0  0  0.189255  0  1.021061  0  0  0.19272  0  1.021001  0  0  0.116393  0.186645  0  1.021409  0
H  H49  1  0.61428961  0.24470911  0.49435366  1  0  0.179832  0  0.966532  0  0  0.189266  0  1.020985  0  0  0.192734  0  1.02092  0  0  0.116385  0.186656  0  1.021333  0
H  H50  1  0.38571123  0.74471040  0.00564289  1  0  0.179833  0  0.966513  0  0  0.189261  0  1.020985  0  0  0.192728  0  1.020921  0  0  0.116397  0.186651  0  1.021333  0
H  H51  1  0.38570485  0.75528959  0.50564416  1  0  0.179848  0  0.966542  0  0  0.189281  0  1.020996  0  0  0.192735  0  1.02095  0  0  0.116398  0.186671  0  1.021343  0
C  C52  1  0.71859426  0.26565882  0.04885800  1  0  -0.620896  0  3.764014  0  0  -0.621813  0  4.036683  0  0  -0.639762  0  4.047187  0  0  -0.189122  -0.609354  0  4.029574  0
C  C53  1  0.71859566  0.23434096  0.54885773  1  0  -0.620961  0  3.763992  0  0  -0.62186  0  4.036682  0  0  -0.639809  0  4.04718  0  0  -0.189126  -0.609402  0  4.029575  0
C  C54  1  0.28140240  0.73434190  0.95114270  1  0  -0.620886  0  3.76408  0  0  -0.621793  0  4.036765  0  0  -0.639747  0  4.047266  0  0  -0.189152  -0.609339  0  4.029658  0
C  C55  1  0.28140440  0.76565773  0.45113759  1  0  -0.620896  0  3.764106  0  0  -0.621795  0  4.036803  0  0  -0.639742  0  4.047315  0  0  -0.189114  -0.609342  0  4.029697  0
C  C56  1  0.75837741  0.38121493  0.11381766  1  0  0.40638  0  3.993581  0  0  0.397196  0  4.259785  0  0  0.413985  0  4.277631  0  0  0.169395  0.385923  0  4.246513  0
C  C57  1  0.75837075  0.11878518  0.61381844  1  0  0.406282  0  3.993322  0  0  0.397102  0  4.259537  0  0  0.413889  0  4.277386  0  0  0.169352  0.385828  0  4.246264  0
C  C58  1  0.24162816  0.61879289  0.88618349  1  0  0.406163  0  3.993322  0  0  0.396988  0  4.259533  0  0  0.41378  0  4.277383  0  0  0.169262  0.385714  0  4.246258  0
C  C59  1  0.24162701  0.88120540  0.38618325  1  0  0.406233  0  3.993349  0  0  0.397057  0  4.259558  0  0  0.413851  0  4.277406  0  0  0.169283  0.385783  0  4.246283  0
C  C60  1  0.97076907  0.22581430  0.90519197  1  0  -0.500306  0  3.554277  0  0  -0.577443  0  3.80035  0  0  -0.582753  0  3.800678  0  0  -0.219528  -0.573626  0  3.800487  0
C  C61  1  0.97076656  0.27418432  0.40519315  1  0  -0.500254  0  3.554242  0  0  -0.577402  0  3.800343  0  0  -0.582706  0  3.800657  0  0  -0.219498  -0.573576  0  3.800457  0
C  C62  1  0.02923427  0.77418339  0.09480999  1  0  -0.500257  0  3.554264  0  0  -0.577364  0  3.800358  0  0  -0.582661  0  3.800659  0  0  -0.21944  -0.573542  0  3.80048  0
C  C63  1  0.02923012  0.72581438  0.59480570  1  0  -0.500238  0  3.554241  0  0  -0.577368  0  3.800336  0  0  -0.582661  0  3.800632  0  0  -0.219529  -0.573539  0  3.800448  0
C  C64  1  0.40595016  0.25864071  0.26959856  1  0  0.101298  0  3.6075  0  0  0.045318  0  3.877637  0  0  0.052408  0  3.883079  0  0  -0.068683  0.040519  0  3.874196  0
C  C65  1  0.40594933  0.24136152  0.76960005  1  0  0.101021  0  3.6078  0  0  0.045157  0  3.877851  0  0  0.05225  0  3.883288  0  0  -0.06876  0.040359  0  3.874413  0
C  C66  1  0.59405097  0.74136103  0.73040145  1  0  0.101183  0  3.607541  0  0  0.045225  0  3.877655  0  0  0.05233  0  3.883096  0  0  -0.06875  0.040423  0  3.874217  0
C  C67  1  0.59405068  0.75864022  0.23040083  1  0  0.101213  0  3.607682  0  0  0.045279  0  3.877748  0  0  0.052383  0  3.88319  0  0  -0.068699  0.040479  0  3.874304  0
C  C68  1  0.42322728  0.40636911  0.30755415  1  0  -0.163211  0  3.671969  0  0  -0.201561  0  3.928023  0  0  -0.204303  0  3.941102  0  0  -0.171243  -0.199369  0  3.918701  0
C  C69  1  0.42322725  0.09363229  0.80755517  1  0  -0.163251  0  3.671922  0  0  -0.201653  0  3.928008  0  0  -0.204395  0  3.941088  0  0  -0.171265  -0.199465  0  3.918686  0
C  C70  1  0.57677162  0.59363364  0.69244574  1  0  -0.163222  0  3.671945  0  0  -0.201579  0  3.927984  0  0  -0.204326  0  3.941066  0  0  -0.171234  -0.199388  0  3.918666  0
C  C71  1  0.57677275  0.90636944  0.19244570  1  0  -0.163253  0  3.671935  0  0  -0.20163  0  3.927994  0  0  -0.204371  0  3.94107  0  0  -0.171265  -0.199438  0  3.918673  0
C  C72  1  0.35815025  0.47987972  0.19190080  1  0  -0.144641  0  3.692875  0  0  -0.185565  0  3.955332  0  0  -0.187959  0  3.970325  0  0  -0.168948  -0.183804  0  3.944543  0
C  C73  1  0.35815118  0.02012110  0.69190254  1  0  -0.144575  0  3.692816  0  0  -0.185498  0  3.955274  0  0  -0.187893  0  3.970268  0  0  -0.168944  -0.183736  0  3.944487  0
C  C74  1  0.64184865  0.52012303  0.80809909  1  0  -0.144634  0  3.692845  0  0  -0.185552  0  3.955337  0  0  -0.187947  0  3.970332  0  0  -0.168975  -0.183793  0  3.944547  0
C  C75  1  0.64184994  0.97988064  0.30809838  1  0  -0.144628  0  3.692814  0  0  -0.185532  0  3.955278  0  0  -0.187928  0  3.970272  0  0  -0.168939  -0.183774  0  3.944492  0
C  C76  1  0.23110780  0.38729631  0.14572277  1  0  0.103463  0  3.581155  0  0  0.051272  0  3.845066  0  0  0.058113  0  3.850967  0  0  -0.066021  0.046293  0  3.841176  0
C  C77  1  0.23110670  0.11270412  0.64572381  1  0  0.103402  0  3.58129  0  0  0.051291  0  3.845084  0  0  0.058133  0  3.850985  0  0  -0.066001  0.046311  0  3.841194  0
C  C78  1  0.76889222  0.61270644  0.85427717  1  0  0.103508  0  3.581038  0  0  0.051288  0  3.844975  0  0  0.05813  0  3.850879  0  0  -0.066002  0.046314  0  3.841077  0
C  C79  1  0.76889444  0.88729661  0.35427527  1  0  0.103495  0  3.581222  0  0  0.05124  0  3.84519  0  0  0.058082  0  3.851095  0  0  -0.066054  0.046258  0  3.841299  0
S  S80  1  0.85529479  0.15555215  0.01819240  1  0  1.265898  0  5.317171  0  0  1.206151  0  5.80758  0  0  1.243455  0  5.79666  0  0  0.464153  1.180107  0  5.814639  0
S  S81  1  0.85529524  0.34444164  0.51819987  1  0  1.265871  0  5.317278  0  0  1.206097  0  5.807685  0  0  1.243401  0  5.796773  0  0  0.464071  1.180054  0  5.814753  0
S  S82  1  0.14470636  0.84444452  0.98180575  1  0  1.265961  0  5.317209  0  0  1.206201  0  5.807599  0  0  1.243506  0  5.796679  0  0  0.46416  1.180157  0  5.814663  0
S  S83  1  0.14470695  0.65555098  0.48180574  1  0  1.2659  0  5.317036  0  0  1.206155  0  5.807415  0  0  1.243467  0  5.796482  0  0  0.464176  1.180111  0  5.814485  0
N  N84  1  0.79759473  0.47787812  0.17132552  1  0  -0.628557  0  2.667201  0  0  -0.601049  0  2.912307  0  0  -0.6143  0  2.918419  0  0  -0.447651  -0.591725  0  2.9068  0
N  N85  1  0.79759227  0.02211823  0.67133173  1  0  -0.628465  0  2.666947  0  0  -0.600974  0  2.912075  0  0  -0.614224  0  2.918189  0  0  -0.447612  -0.591649  0  2.906569  0
N  N86  1  0.20240424  0.52211652  0.82866696  1  0  -0.628475  0  2.666773  0  0  -0.600966  0  2.911878  0  0  -0.614219  0  2.917993  0  0  -0.447569  -0.591636  0  2.906368  0
N  N87  1  0.20240106  0.97788147  0.32866788  1  0  -0.628505  0  2.666703  0  0  -0.600993  0  2.911796  0  0  -0.614248  0  2.917914  0  0  -0.447574  -0.591665  0  2.906288  0
O  O88  1  0.95336028  0.13568243  0.13013924  1  0  -0.718943  0  1.951037  0  0  -0.664742  0  2.205006  0  0  -0.684785  0  2.193344  0  0  -0.389491  -0.65062  0  2.212652  0
O  O89  1  0.95335527  0.36431299  0.63013909  1  0  -0.71891  0  1.95135  0  0  -0.664622  0  2.205267  0  0  -0.68467  0  2.19361  0  0  -0.389408  -0.650503  0  2.21291  0
O  O90  1  0.04664080  0.86431424  0.86986540  1  0  -0.718962  0  1.951258  0  0  -0.664725  0  2.205197  0  0  -0.68477  0  2.193535  0  0  -0.389456  -0.650604  0  2.212839  0
O  O91  1  0.04663920  0.63567962  0.36985780  1  0  -0.718973  0  1.950914  0  0  -0.664761  0  2.204883  0  0  -0.68481  0  2.193217  0  0  -0.389523  -0.650641  0  2.212531  0
O  O92  1  0.78643347  0.03314197  0.96305580  1  0  -0.711125  0  1.968929  0  0  -0.663658  0  2.224571  0  0  -0.68216  0  2.210657  0  0  -0.379524  -0.65055  0  2.233931  0
O  O93  1  0.78643248  0.46685761  0.46305772  1  0  -0.711093  0  1.968647  0  0  -0.663661  0  2.224338  0  0  -0.682152  0  2.210403  0  0  -0.379484  -0.650542  0  2.233672  0
O  O94  1  0.21356766  0.96685774  0.03694420  1  0  -0.711103  0  1.968803  0  0  -0.663622  0  2.22442  0  0  -0.68213  0  2.210519  0  0  -0.379478  -0.650514  0  2.233782  0
O  O95  1  0.21356420  0.53314210  0.53694113  1  0  -0.711065  0  1.969017  0  0  -0.663598  0  2.224652  0  0  -0.682114  0  2.210759  0  0  -0.379464  -0.650494  0  2.234021  0
O  O96  1  0.26893712  0.25228909  0.19210108  1  0  -0.418313  0  2.196638  0  0  -0.345457  0  2.444729  0  0  -0.359779  0  2.441573  0  0  -0.310847  -0.335285  0  2.447139  0
O  O97  1  0.26893631  0.24771058  0.69210167  1  0  -0.418203  0  2.196686  0  0  -0.345403  0  2.444728  0  0  -0.359724  0  2.441569  0  0  -0.31086  -0.33523  0  2.447137  0
O  O98  1  0.73106290  0.74771265  0.80789887  1  0  -0.418232  0  2.196522  0  0  -0.345397  0  2.444624  0  0  -0.359718  0  2.441464  0  0  -0.310819  -0.335227  0  2.447035  0
O  O99  1  0.73106483  0.75229014  0.30789741  1  0  -0.418236  0  2.19666  0  0  -0.345394  0  2.444762  0  0  -0.359716  0  2.441602  0  0  -0.310862  -0.335225  0  2.447174  0
