# generated using pymatgen
data_CdH14C17NO6
_symmetry_space_group_name_H-M   'P 1'
_cell_length_a   7.70593065
_cell_length_b   8.72330981
_cell_length_c   12.15999390
_cell_angle_alpha   75.08605802
_cell_angle_beta   82.75022340
_cell_angle_gamma   92.51983127
_symmetry_Int_Tables_number   1
_chemical_formula_structural   CdH14C17NO6
_chemical_formula_sum   'Cd2 H28 C34 N2 O12'
_cell_volume   781.06377568
_cell_formula_units_Z   2
loop_
 _symmetry_equiv_pos_site_id
 _symmetry_equiv_pos_as_xyz
  1  'x, y, z'
loop_
 _atom_site_type_symbol
 _atom_site_label
 _atom_site_symmetry_multiplicity
 _atom_site_fract_x
 _atom_site_fract_y
 _atom_site_fract_z
 _atom_site_occupancy
 _atom_site_hle17_bader_spin_density
 _atom_site_hle17_ddec_charge
 _atom_site_hle17_ddec_spin_density
 _atom_site_hle17_ddec_sum_bond_order
 _atom_site_hle17_magmom
 _atom_site_hse06_10hf_bader_spin_density
 _atom_site_hse06_10hf_ddec_charge
 _atom_site_hse06_10hf_ddec_spin_density
 _atom_site_hse06_10hf_ddec_sum_bond_order
 _atom_site_hse06_10hf_magmom
 _atom_site_hse06_bader_spin_density
 _atom_site_hse06_ddec_charge
 _atom_site_hse06_ddec_spin_density
 _atom_site_hse06_ddec_sum_bond_order
 _atom_site_hse06_magmom
 _atom_site_pbe_bader_spin_density
 _atom_site_pbe_cm5_charge
 _atom_site_pbe_ddec_charge
 _atom_site_pbe_ddec_spin_density
 _atom_site_pbe_ddec_sum_bond_order
 _atom_site_pbe_magmom
Cd  Cd0  1  0.23026015  0.32526556  0.95303928  1  0  1.228085  0  1.562714  0  0  1.042715  0  2.004474  0  0  1.100593  0  1.947353  0  0  0.777615  1.001155  0  2.043889  0
Cd  Cd1  1  0.76974593  0.67473298  0.04696215  1  0  1.228125  0  1.56269  0  0  1.042781  0  2.004436  0  0  1.100647  0  1.947315  0  0  0.777635  1.001228  0  2.043872  0
H  H2  1  0.34494914  0.22891201  0.34970683  1  0  0.096699  0  0.945213  0  0  0.107395  0  1.009649  0  0  0.110527  0  1.008042  0  0  0.101758  0.105031  0  1.01112  0
H  H3  1  0.65505299  0.77108904  0.65028880  1  0  0.096686  0  0.945252  0  0  0.107365  0  1.009705  0  0  0.110494  0  1.0081  0  0  0.101727  0.105002  0  1.01118  0
H  H4  1  0.34614883  0.18981824  0.55978162  1  0  0.086111  0  0.964131  0  0  0.097884  0  1.025539  0  0  0.100481  0  1.025123  0  0  0.097131  0.095894  0  1.026198  0
H  H5  1  0.65384681  0.81018438  0.44022007  1  0  0.086114  0  0.964217  0  0  0.097827  0  1.025673  0  0  0.100424  0  1.025257  0  0  0.097109  0.095836  0  1.026332  0
H  H6  1  0.50534229  0.13905769  0.72770616  1  0  0.104784  0  0.955196  0  0  0.114549  0  1.016457  0  0  0.117736  0  1.014803  0  0  0.10345  0.112326  0  1.017633  0
H  H7  1  0.49466266  0.86095613  0.27229386  1  0  0.104827  0  0.955194  0  0  0.114569  0  1.016447  0  0  0.117754  0  1.014797  0  0  0.103498  0.112345  0  1.017616  0
H  H8  1  0.82668092  0.10317489  0.70331418  1  0  0.097573  0  0.931165  0  0  0.112775  0  0.979888  0  0  0.115815  0  0.978703  0  0  0.105274  0.110453  0  0.981065  0
H  H9  1  0.17332273  0.89684262  0.29668210  1  0  0.097496  0  0.931109  0  0  0.112685  0  0.979865  0  0  0.11573  0  0.97868  0  0  0.10523  0.110359  0  0.981034  0
H  H10  1  0.98835937  0.12638852  0.50919989  1  0  0.087592  0  0.960317  0  0  0.099307  0  1.022721  0  0  0.101917  0  1.022124  0  0  0.096992  0.097201  0  1.023706  0
H  H11  1  0.01164154  0.87362069  0.49079542  1  0  0.087498  0  0.960429  0  0  0.099249  0  1.022799  0  0  0.101859  0  1.022205  0  0  0.096961  0.097145  0  1.023784  0
H  H12  1  0.99118101  0.18187804  0.29673439  1  0  0.10429  0  0.939648  0  0  0.113697  0  1.004594  0  0  0.116995  0  1.002899  0  0  0.10391  0.111288  0  1.006096  0
H  H13  1  0.00881444  0.81810674  0.70327087  1  0  0.104252  0  0.939552  0  0  0.113682  0  1.004527  0  0  0.116977  0  1.002837  0  0  0.103906  0.111275  0  1.006035  0
H  H14  1  0.38955187  0.40368281  0.69298088  1  0  0.085485  0  0.953941  0  0  0.093016  0  1.021277  0  0  0.09508  0  1.019715  0  0  0.115896  0.091288  0  1.022814  0
H  H15  1  0.61043969  0.59631164  0.30701665  1  0  0.085407  0  0.953957  0  0  0.092996  0  1.021207  0  0  0.095064  0  1.019648  0  0  0.11587  0.091265  0  1.022746  0
H  H16  1  0.30516106  0.47172255  0.49729216  1  0  0.101549  0  0.960233  0  0  0.113519  0  1.019692  0  0  0.115992  0  1.019804  0  0  0.10741  0.111392  0  1.020527  0
H  H17  1  0.69482514  0.52825960  0.50270935  1  0  0.101543  0  0.960363  0  0  0.113525  0  1.019776  0  0  0.116  0  1.01989  0  0  0.107426  0.111393  0  1.020609  0
H  H18  1  0.77118884  0.48199027  0.65689426  1  0  0.106546  0  0.962061  0  0  0.116826  0  1.02419  0  0  0.12003  0  1.022977  0  0  0.107771  0.114325  0  1.025649  0
H  H19  1  0.22880830  0.51802639  0.34310929  1  0  0.10661  0  0.962045  0  0  0.116877  0  1.024173  0  0  0.120085  0  1.022961  0  0  0.107803  0.11437  0  1.025635  0
H  H20  1  0.88276027  0.42316652  0.84388099  1  0  0.094944  0  0.971518  0  0  0.10045  0  1.038273  0  0  0.104136  0  1.03467  0  0  0.11653  0.09763  0  1.0411  0
H  H21  1  0.11724084  0.57685400  0.15612081  1  0  0.094905  0  0.971557  0  0  0.100377  0  1.038335  0  0  0.104065  0  1.03473  0  0  0.116489  0.097562  0  1.04117  0
H  H22  1  0.56674906  0.29404066  0.91946200  1  0  0.419021  0  0.868413  0  0  0.392619  0  0.932978  0  0  0.402354  0  0.919027  0  0  0.295132  0.385782  0  0.94271  0
H  H23  1  0.43325195  0.70597161  0.08054024  1  0  0.419005  0  0.868364  0  0  0.392669  0  0.932861  0  0  0.402396  0  0.918922  0  0  0.295197  0.385836  0  0.942585  0
H  H24  1  0.58005805  0.48102159  0.86687926  1  0  0.418799  0  0.888559  0  0  0.384651  0  0.958753  0  0  0.395477  0  0.943295  0  0  0.28428  0.376805  0  0.969918  0
H  H25  1  0.41993902  0.51898914  0.13312520  1  0  0.418866  0  0.888453  0  0  0.384796  0  0.958539  0  0  0.395627  0  0.943071  0  0  0.284338  0.376947  0  0.96971  0
H  H26  1  0.34209133  0.00553484  0.91495248  1  0  0.430346  0  0.86689  0  0  0.398048  0  0.932441  0  0  0.409302  0  0.915967  0  0  0.286814  0.389978  0  0.944161  0
H  H27  1  0.65791742  0.99447390  0.08503894  1  0  0.430304  0  0.866942  0  0  0.398009  0  0.932466  0  0  0.40927  0  0.91599  0  0  0.286829  0.389938  0  0.944187  0
H  H28  1  0.14381807  0.01453972  0.90347007  1  0  0.425086  0  0.857748  0  0  0.398292  0  0.919439  0  0  0.408409  0  0.904628  0  0  0.293192  0.390872  0  0.930285  0
H  H29  1  0.85619195  0.98546560  0.09652094  1  0  0.425119  0  0.857842  0  0  0.398384  0  0.919353  0  0  0.408506  0  0.904534  0  0  0.293214  0.390963  0  0.930199  0
C  C30  1  0.47884667  0.24163222  0.13018000  1  0  0.655445  0  3.902218  0  0  0.598609  0  4.200392  0  0  0.632924  0  4.193277  0  0  0.21176  0.57539  0  4.204264  0
C  C31  1  0.52116093  0.75838544  0.86981757  1  0  0.655733  0  3.901712  0  0  0.598776  0  4.200066  0  0  0.633086  0  4.192953  0  0  0.211868  0.575571  0  4.20393  0
C  C32  1  0.57603039  0.23441190  0.23044060  1  0  -0.07307  0  3.75248  0  0  -0.059018  0  3.992868  0  0  -0.065252  0  4.014881  0  0  -0.015213  -0.05491  0  3.977632  0
C  C33  1  0.42396911  0.76558504  0.76956164  1  0  -0.073101  0  3.752516  0  0  -0.059024  0  3.992901  0  0  -0.065259  0  4.014917  0  0  -0.015219  -0.054924  0  3.977678  0
C  C34  1  0.48690181  0.22209473  0.33852466  1  0  -0.10989  0  3.712452  0  0  -0.14114  0  3.963835  0  0  -0.141195  0  3.98299  0  0  -0.082721  -0.140735  0  3.950555  0
C  C35  1  0.51309500  0.77789752  0.66147522  1  0  -0.10997  0  3.712581  0  0  -0.141199  0  3.96394  0  0  -0.141252  0  3.983096  0  0  -0.0827  -0.140797  0  3.950669  0
C  C36  1  0.57543800  0.19241077  0.43638915  1  0  0.048566  0  3.805154  0  0  0.066968  0  4.029084  0  0  0.066244  0  4.05374  0  0  -0.009664  0.067549  0  4.011594  0
C  C37  1  0.42455212  0.80757044  0.56361217  1  0  0.048708  0  3.805251  0  0  0.067168  0  4.029172  0  0  0.066448  0  4.053823  0  0  -0.009529  0.067745  0  4.011688  0
C  C38  1  0.48734747  0.17948689  0.54834335  1  0  -0.116026  0  3.75028  0  0  -0.135309  0  3.999675  0  0  -0.137987  0  4.021378  0  0  -0.090129  -0.133196  0  3.984273  0
C  C39  1  0.51264929  0.82049931  0.45165911  1  0  -0.116  0  3.750593  0  0  -0.135206  0  3.999903  0  0  -0.137881  0  4.021604  0  0  -0.090144  -0.133096  0  3.984498  0
C  C40  1  0.57619757  0.14956093  0.64237913  1  0  -0.06466  0  3.753054  0  0  -0.081575  0  4.010778  0  0  -0.083276  0  4.03146  0  0  -0.091663  -0.080233  0  3.996322  0
C  C41  1  0.42380320  0.85043264  0.35762186  1  0  -0.064798  0  3.753288  0  0  -0.081696  0  4.011027  0  0  -0.083399  0  4.031711  0  0  -0.091777  -0.080347  0  3.996554  0
C  C42  1  0.75782401  0.12827719  0.62838954  1  0  -0.062359  0  3.772584  0  0  -0.078184  0  4.029307  0  0  -0.079067  0  4.049842  0  0  -0.09091  -0.077509  0  4.015001  0
C  C43  1  0.24217417  0.87171848  0.37161300  1  0  -0.062322  0  3.772663  0  0  -0.078138  0  4.029365  0  0  -0.079027  0  4.049909  0  0  -0.090915  -0.077455  0  4.015042  0
C  C44  1  0.84751919  0.13941472  0.52060998  1  0  -0.127934  0  3.761257  0  0  -0.14831  0  4.014997  0  0  -0.151455  0  4.036586  0  0  -0.095122  -0.145885  0  3.999651  0
C  C45  1  0.15247496  0.86057375  0.47939154  1  0  -0.127668  0  3.761399  0  0  -0.148001  0  4.015162  0  0  -0.151145  0  4.036756  0  0  -0.094964  -0.145589  0  3.999818  0
C  C46  1  0.75991123  0.17172513  0.42220336  1  0  0.051509  0  3.799603  0  0  0.068236  0  4.026807  0  0  0.068063  0  4.051426  0  0  -0.010337  0.068662  0  4.009394  0
C  C47  1  0.24008413  0.82825777  0.57779478  1  0  0.051351  0  3.799651  0  0  0.067854  0  4.027211  0  0  0.067678  0  4.051837  0  0  -0.010463  0.068287  0  4.009796  0
C  C48  1  0.84931834  0.18932476  0.30981590  1  0  -0.111039  0  3.696841  0  0  -0.142716  0  3.947934  0  0  -0.14309  0  3.966779  0  0  -0.083115  -0.142706  0  3.935808  0
C  C49  1  0.15067970  0.81065916  0.69018680  1  0  -0.110977  0  3.696694  0  0  -0.142654  0  3.947842  0  0  -0.143027  0  3.966685  0  0  -0.0831  -0.142645  0  3.93573  0
C  C50  1  0.76128364  0.22436369  0.21550482  1  0  -0.071137  0  3.756803  0  0  -0.057343  0  3.996547  0  0  -0.062757  0  4.017865  0  0  -0.015848  -0.053702  0  3.981984  0
C  C51  1  0.23871449  0.77562858  0.78449578  1  0  -0.071196  0  3.756965  0  0  -0.057309  0  3.996664  0  0  -0.062721  0  4.017975  0  0  -0.01585  -0.05367  0  3.982115  0
C  C52  1  0.86481721  0.27593431  0.09721970  1  0  0.661805  0  3.913815  0  0  0.607194  0  4.213392  0  0  0.642676  0  4.204796  0  0  0.206051  0.582922  0  4.218091  0
C  C53  1  0.13518887  0.72406423  0.90278173  1  0  0.662102  0  3.91373  0  0  0.607352  0  4.21348  0  0  0.642832  0  4.204877  0  0  0.206027  0.583078  0  4.218183  0
C  C54  1  0.25413540  0.42295491  0.67987176  1  0  0.137976  0  3.709639  0  0  0.107219  0  3.96132  0  0  0.114501  0  3.980929  0  0  0.05032  0.102513  0  3.947761  0
C  C55  1  0.74586005  0.57703246  0.32012981  1  0  0.138033  0  3.709517  0  0  0.107268  0  3.961125  0  0  0.114543  0  3.980739  0  0  0.050315  0.102565  0  3.947558  0
C  C56  1  0.20448813  0.45945114  0.57086422  1  0  -0.156134  0  3.717317  0  0  -0.174432  0  3.964828  0  0  -0.182218  0  3.986737  0  0  -0.079609  -0.169412  0  3.94996  0
C  C57  1  0.79550206  0.54053595  0.42913701  1  0  -0.156071  0  3.71759  0  0  -0.174353  0  3.965035  0  0  -0.182141  0  3.986947  0  0  -0.079578  -0.169323  0  3.95015  0
C  C58  1  0.02858714  0.48175019  0.55742324  1  0  0.088639  0  3.763491  0  0  0.100047  0  3.992995  0  0  0.103665  0  4.015373  0  0  0.012502  0.097992  0  3.976923  0
C  C59  1  0.97140831  0.51823853  0.44257566  1  0  0.088555  0  3.76378  0  0  0.099971  0  3.993251  0  0  0.103587  0  4.015633  0  0  0.012495  0.097919  0  3.977166  0
C  C60  1  0.91059557  0.46818376  0.65801900  1  0  -0.147515  0  3.693262  0  0  -0.167356  0  3.944898  0  0  -0.174936  0  3.96608  0  0  -0.077673  -0.162299  0  3.930513  0
C  C61  1  0.08939875  0.53181624  0.34198568  1  0  -0.147717  0  3.693564  0  0  -0.167542  0  3.945168  0  0  -0.175129  0  3.966356  0  0  -0.077823  -0.16248  0  3.930773  0
C  C62  1  0.97023101  0.43304954  0.76405732  1  0  0.132037  0  3.686681  0  0  0.100743  0  3.938125  0  0  0.107896  0  3.955927  0  0  0.046851  0.096097  0  3.926066  0
C  C63  1  0.02976597  0.56695548  0.23594472  1  0  0.13218  0  3.6868  0  0  0.100924  0  3.938241  0  0  0.10808  0  3.956039  0  0  0.046926  0.09627  0  3.926186  0
N  N64  1  0.13919989  0.40941129  0.77511227  1  0  -0.336004  0  3.271884  0  0  -0.255072  0  3.532733  0  0  -0.277024  0  3.553806  0  0  -0.327462  -0.24017  0  3.518122  0
N  N65  1  0.86079957  0.59058474  0.22488600  1  0  -0.33605  0  3.271802  0  0  -0.255162  0  3.53268  0  0  -0.277116  0  3.553752  0  0  -0.327446  -0.240268  0  3.51808  0
O  O66  1  0.35607540  0.33708854  0.11545201  1  0  -0.655077  0  2.028806  0  0  -0.577181  0  2.26895  0  0  -0.607684  0  2.258315  0  0  -0.317825  -0.555714  0  2.275524  0
O  O67  1  0.64392692  0.66292252  0.88455195  1  0  -0.655244  0  2.028735  0  0  -0.577245  0  2.268905  0  0  -0.607727  0  2.258259  0  0  -0.317867  -0.555789  0  2.275484  0
O  O68  1  0.51975448  0.15238670  0.06507492  1  0  -0.633935  0  1.977239  0  0  -0.567907  0  2.186849  0  0  -0.593879  0  2.176559  0  0  -0.306522  -0.549418  0  2.192783  0
O  O69  1  0.48025318  0.84764212  0.93491353  1  0  -0.633985  0  1.976931  0  0  -0.567948  0  2.186614  0  0  -0.593919  0  2.176333  0  0  -0.306576  -0.54946  0  2.192547  0
O  O70  1  0.82738283  0.40206835  0.02911209  1  0  -0.650237  0  2.010674  0  0  -0.591959  0  2.266403  0  0  -0.619867  0  2.255051  0  0  -0.318346  -0.572009  0  2.273157  0
O  O71  1  0.17262589  0.59792895  0.97089260  1  0  -0.650454  0  2.010623  0  0  -0.592098  0  2.266376  0  0  -0.620029  0  2.255069  0  0  -0.318346  -0.57216  0  2.273166  0
O  O72  1  0.98960301  0.19095554  0.07443242  1  0  -0.66887  0  1.995872  0  0  -0.596025  0  2.238155  0  0  -0.624983  0  2.223509  0  0  -0.33334  -0.575208  0  2.247215  0
O  O73  1  0.01040564  0.80903713  0.92557134  1  0  -0.668951  0  1.995977  0  0  -0.596059  0  2.238324  0  0  -0.625011  0  2.223676  0  0  -0.333338  -0.575241  0  2.247394  0
O  O74  1  0.25242729  0.08285854  0.89487354  1  0  -0.849492  0  1.850165  0  0  -0.792886  0  2.039756  0  0  -0.81447  0  2.006545  0  0  -0.592885  -0.777478  0  2.063535  0
O  O75  1  0.74757883  0.91714750  0.10512098  1  0  -0.849511  0  1.850328  0  0  -0.792953  0  2.039709  0  0  -0.814542  0  2.006456  0  0  -0.592929  -0.777551  0  2.063511  0
O  O76  1  0.53035140  0.37819088  0.85718485  1  0  -0.82943  0  1.843985  0  0  -0.768344  0  2.037851  0  0  -0.791667  0  2.007389  0  0  -0.582232  -0.751942  0  2.059485  0
O  O77  1  0.46965745  0.62182088  0.14281433  1  0  -0.829483  0  1.843971  0  0  -0.76852  0  2.037759  0  0  -0.791835  0  2.007293  0  0  -0.582326  -0.75212  0  2.059399  0
