# generated using pymatgen
data_NiH6(C2O3)2
_symmetry_space_group_name_H-M   'P 1'
_cell_length_a   7.47452580
_cell_length_b   7.59985830
_cell_length_c   8.05899824
_cell_angle_alpha   76.46895708
_cell_angle_beta   62.35696544
_cell_angle_gamma   60.54306718
_symmetry_Int_Tables_number   1
_chemical_formula_structural   NiH6(C2O3)2
_chemical_formula_sum   'Ni2 H12 C8 O12'
_cell_volume   353.10348107
_cell_formula_units_Z   2
loop_
 _symmetry_equiv_pos_site_id
 _symmetry_equiv_pos_as_xyz
  1  'x, y, z'
loop_
 _atom_site_type_symbol
 _atom_site_label
 _atom_site_symmetry_multiplicity
 _atom_site_fract_x
 _atom_site_fract_y
 _atom_site_fract_z
 _atom_site_occupancy
 _atom_site_hle17_ddec_charge
 _atom_site_hle17_ddec_spin_density
 _atom_site_hle17_ddec_sum_bond_order
 _atom_site_hle17_magmom
 _atom_site_hse06_10hf_ddec_charge
 _atom_site_hse06_10hf_ddec_spin_density
 _atom_site_hse06_10hf_ddec_sum_bond_order
 _atom_site_hse06_10hf_magmom
 _atom_site_hse06_ddec_charge
 _atom_site_hse06_ddec_spin_density
 _atom_site_hse06_ddec_sum_bond_order
 _atom_site_hse06_magmom
 _atom_site_pbe_cm5_charge
 _atom_site_pbe_ddec_charge
 _atom_site_pbe_ddec_spin_density
 _atom_site_pbe_ddec_sum_bond_order
 _atom_site_pbe_magmom
Ni  Ni0  1  0.88640719  0.75441104  0.20267520  1  0.971565  1.761176  1.82178  1.532  0.990682  1.830821  2.204812  1.663  1.076701  1.880122  2.138374  1.746  0.612119  0.912438  1.78518  2.272686  1.59
Ni  Ni1  1  0.15655254  0.25436914  0.70266700  1  0.969087  1.760404  1.825049  1.532  0.988124  1.83048  2.208303  1.663  1.074311  1.879753  2.141591  1.746  0.610511  0.909814  1.784852  2.276318  1.59
H  H2  1  0.62204738  0.75796028  0.53667265  1  0.425478  -0.000353  0.860809  -0.001  0.400505  0.000385  0.920978  0.0  0.412426  9.4e-05  0.903712  0.0  0.298431  0.391693  0.000701  0.933651  0.0
H  H3  1  0.08334903  0.25773210  0.03671738  1  0.424438  -0.000346  0.863639  -0.001  0.399675  0.000392  0.922473  0.0  0.41157  9.9e-05  0.905217  0.0  0.297619  0.390863  0.000708  0.935174  0.0
H  H4  1  0.85301809  0.54685336  0.49164831  1  0.43008  -0.001348  0.867618  -0.002  0.40058  -0.000554  0.930921  -0.001  0.412959  -0.000685  0.912941  -0.001  0.296577  0.391687  -0.000361  0.943685  0.0
H  H5  1  0.10836784  0.04673411  0.99161047  1  0.42942  -0.001348  0.869653  -0.002  0.399154  -0.000553  0.933405  -0.001  0.411527  -0.000684  0.915458  -0.001  0.295451  0.39028  -0.00036  0.946133  0.0
H  H6  1  0.45125106  0.89739603  0.24066119  1  0.401464  -0.000203  0.80115  0.0  0.393087  0.000305  0.846541  0.0  0.401772  9.4e-05  0.838084  0.0  0.345574  0.386445  0.000531  0.852837  0.001
H  H7  1  0.41076658  0.39731678  0.74054992  1  0.400326  -0.000209  0.801708  0.0  0.392095  0.0003  0.846972  0.0  0.40072  9e-05  0.838591  0.0  0.344409  0.385493  0.000528  0.853241  0.001
H  H8  1  0.51140606  0.83554425  0.96054788  1  0.094631  0.000802  0.908551  0.001  0.104428  0.000829  0.963323  0.001  0.107202  0.000545  0.960835  0.0  0.12345  0.102101  0.001135  0.965759  0.001
H  H9  1  0.69256186  0.33580233  0.46030603  1  0.09549  0.000804  0.907673  0.001  0.105672  0.000825  0.961933  0.001  0.10842  0.000542  0.959432  0.0  0.124355  0.103399  0.001132  0.964308  0.001
H  H10  1  0.61925408  0.09381691  0.80746808  1  0.115834  -0.000607  0.937256  0.0  0.127013  -0.000336  0.999487  0.0  0.129923  -0.000309  0.99748  0.0  0.106493  0.124754  -0.000333  1.001331  0.0
H  H11  1  0.47934747  0.59385719  0.30738245  1  0.114418  -0.000613  0.938116  0.0  0.125382  -0.000333  1.000548  0.0  0.128351  -0.000309  0.998514  0.0  0.106429  0.123101  -0.000333  1.002426  0.0
H  H12  1  0.83817065  0.87282098  0.67866727  1  0.137136  -0.000788  0.909374  -0.001  0.152517  -0.000209  0.960823  0.0  0.154989  -0.000205  0.960349  0.0  0.116764  0.150558  -0.000214  0.961565  0.0
H  H13  1  0.61024042  0.37290976  0.17858717  1  0.136503  -0.000778  0.909252  -0.001  0.151915  -0.00021  0.960863  0.0  0.154415  -0.000206  0.960369  0.0  0.115783  0.149933  -0.000213  0.961667  0.0
C  C14  1  0.83044371  0.60153855  0.95337065  1  0.611621  -0.011622  3.869756  -0.009  0.567299  -0.002091  4.187681  -0.002  0.602901  -0.002341  4.183099  -0.002  0.208376  0.541834  -0.002115  4.188396  -0.002
C  C15  1  0.61482747  0.10166162  0.45325626  1  0.613035  -0.011587  3.865519  -0.009  0.569617  -0.002089  4.182401  -0.002  0.605117  -0.002341  4.177837  -0.002  0.209892  0.544198  -0.002115  4.183137  -0.002
C  C16  1  0.65791179  0.82376559  0.97119520  1  0.123256  0.005735  3.607899  0.008  0.096066  0.00392  3.867085  0.005  0.098681  0.002365  3.873397  0.003  -0.002276  0.094142  0.005575  3.862688  0.007
C  C17  1  0.54721038  0.32389068  0.47105301  1  0.12083  0.005703  3.608831  0.008  0.09259  0.00392  3.869265  0.005  0.095327  0.002364  3.87546  0.003  -0.005587  0.09064  0.005574  3.864881  0.006
C  C18  1  0.75836548  0.94756475  0.81317749  1  -0.301865  0.006081  3.636487  0.008  -0.343754  0.003012  3.881101  0.004  -0.350659  0.001824  3.887318  0.003  -0.160444  -0.338813  0.004305  3.877396  0.005
C  C19  1  0.48084807  0.44758042  0.31315039  1  -0.298104  0.006081  3.636541  0.008  -0.339618  0.003005  3.880968  0.004  -0.34661  0.001821  3.887241  0.003  -0.158573  -0.334714  0.0043  3.877315  0.005
C  C20  1  0.92989468  0.99090603  0.82624456  1  0.715754  -0.013101  3.789844  -0.01  0.678551  -0.002626  4.093724  -0.002  0.716949  -0.002415  4.086558  -0.001  0.22001  0.650572  -0.003247  4.096821  -0.003
C  C21  1  0.25289669  0.49085205  0.32637532  1  0.71308  -0.013117  3.78582  -0.01  0.676031  -0.002629  4.089778  -0.002  0.714387  -0.002421  4.082666  -0.001  0.219583  0.648091  -0.003252  4.092837  -0.003
O  O22  1  0.93839663  0.53037866  0.05763648  1  -0.605481  0.038998  2.082616  0.069  -0.573491  0.025581  2.34236  0.046  -0.609741  0.018745  2.332134  0.036  -0.303226  -0.544458  0.031769  2.348379  0.054
O  O23  1  0.47383539  0.03041221  0.55750595  1  -0.60479  0.038974  2.082841  0.069  -0.573123  0.025582  2.342316  0.046  -0.609389  0.018745  2.332141  0.036  -0.302232  -0.544096  0.031754  2.348274  0.054
O  O24  1  0.72163436  0.63519003  0.45805079  1  -0.803066  0.044965  1.916899  0.075  -0.779749  0.031235  2.114929  0.052  -0.809328  0.022722  2.077704  0.041  -0.566996  -0.755587  0.038736  2.142166  0.061
O  O25  1  0.18506885  0.13502276  0.95802608  1  -0.800896  0.044931  1.920978  0.075  -0.777237  0.031196  2.118268  0.052  -0.806835  0.022695  2.081214  0.041  -0.56509  -0.753059  0.038689  2.145353  0.061
O  O26  1  0.85800253  0.50420366  0.82916902  1  -0.58253  0.046474  2.069867  0.079  -0.562288  0.028896  2.337188  0.05  -0.597344  0.020861  2.32713  0.038  -0.306385  -0.534419  0.03641  2.343931  0.06
O  O27  1  0.80883740  0.00431579  0.32898683  1  -0.58522  0.046508  2.067242  0.079  -0.565551  0.028928  2.334709  0.05  -0.600507  0.020883  2.324541  0.038  -0.309383  -0.537727  0.036456  2.341537  0.06
O  O28  1  0.58589629  0.91017584  0.14671973  1  -0.532653  0.026253  2.121371  0.043  -0.499731  0.021766  2.356414  0.036  -0.522215  0.016668  2.343409  0.029  -0.373092  -0.481026  0.026443  2.365606  0.041
O  O29  1  0.35725058  0.41023413  0.64663531  1  -0.530035  0.02626  2.120351  0.044  -0.496793  0.021777  2.355029  0.036  -0.519266  0.016675  2.342149  0.029  -0.369917  -0.478143  0.026459  2.364087  0.042
O  O30  1  0.00907689  0.90704922  0.95016555  1  -0.615506  0.035534  2.054577  0.062  -0.576571  0.023718  2.302286  0.042  -0.612446  0.017129  2.289887  0.032  -0.299261  -0.547684  0.030056  2.310137  0.051
O  O31  1  0.13359158  0.40704260  0.45025870  1  -0.613641  0.035564  2.053941  0.062  -0.575404  0.023745  2.302192  0.042  -0.61127  0.017151  2.289838  0.032  -0.299522  -0.546524  0.030071  2.310013  0.051
O  O32  1  0.98337960  0.11700454  0.70448522  1  -0.585226  0.06235  2.020176  0.106  -0.574279  0.035504  2.290347  0.063  -0.611962  0.024964  2.277234  0.047  -0.315173  -0.543355  0.045577  2.298872  0.076
O  O33  1  0.19509964  0.61702719  0.20460372  1  -0.584433  0.062423  2.016974  0.106  -0.573392  0.035509  2.286828  0.063  -0.611077  0.024964  2.273751  0.047  -0.31467  -0.542432  0.0456  2.29532  0.077
