# generated using pymatgen
data_CdH42C36N5O9
_symmetry_space_group_name_H-M   'P 1'
_cell_length_a   12.11520499
_cell_length_b   14.22156686
_cell_length_c   14.57186286
_cell_angle_alpha   110.26779979
_cell_angle_beta   105.91130327
_cell_angle_gamma   106.31314134
_symmetry_Int_Tables_number   1
_chemical_formula_structural   CdH42C36N5O9
_chemical_formula_sum   'Cd2 H84 C72 N10 O18'
_cell_volume   2059.06650871
_cell_formula_units_Z   2
loop_
 _symmetry_equiv_pos_site_id
 _symmetry_equiv_pos_as_xyz
  1  'x, y, z'
loop_
 _atom_site_type_symbol
 _atom_site_label
 _atom_site_symmetry_multiplicity
 _atom_site_fract_x
 _atom_site_fract_y
 _atom_site_fract_z
 _atom_site_occupancy
 _atom_site_pbe_bader_charge
 _atom_site_pbe_bader_spin_density
 _atom_site_pbe_cm5_charge
 _atom_site_pbe_ddec_charge
 _atom_site_pbe_ddec_spin_density
 _atom_site_pbe_ddec_sum_bond_order
 _atom_site_pbe_magmom
Cd  Cd0  1  0.65252096  0.31779078  0.62670129  1  1.244017  0  0.776679  0.746656  0  2.288571  0
Cd  Cd1  1  0.56735078  0.08163981  0.04971028  1  1.245678  0  0.774523  0.745991  0  2.291731  0
H  H2  1  0.56309549  0.20978329  0.75774530  1  0.095669  0  0.116564  0.085051  0  1.008779  0
H  H3  1  0.39947983  0.17272695  0.82705439  1  0.132736  0  0.106011  0.125249  0  1.052487  0
H  H4  1  0.21654737  0.31776707  0.65246514  1  0.097312  0  0.109203  0.117124  0  1.029791  0
H  H5  1  0.38864247  0.34841500  0.59026784  1  0.094898  0  0.115771  0.085001  0  0.988153  0
H  H6  1  0.20413144  0.07128386  0.78048233  1  0.098512  0  0.108487  0.122188  0  1.048029  0
H  H7  1  0.01511638  0.33414953  0.89356018  1  0.086153  0  0.107347  0.120719  0  1.052907  0
H  H8  1  0.19045838  0.97736145  0.86041415  1  0.03031  0  0.100081  0.036485  0  1.005591  0
H  H9  1  0.11325032  0.93383985  0.98576739  1  0.038791  0  0.086022  0.080232  0  1.005872  0
H  H10  1  0.96436533  0.83727201  0.88028804  1  0.030705  0  0.093884  0.092823  0  0.966106  0
H  H11  1  0.21590569  0.81515951  0.90069503  1  0.052537  0  0.082441  0.115226  0  1.024394  0
H  H12  1  0.06446375  0.71794536  0.79876933  1  0.007893  0  0.084807  0.109715  0  1.026801  0
H  H13  1  0.09870815  0.74301933  0.93334867  1  0.013956  0  0.088017  0.118075  0  1.01057  0
H  H14  1  0.03152598  0.90815231  0.66958204  1  0.041272  0  0.089648  0.12775  0  1.023828  0
H  H15  1  0.92372379  0.81106326  0.68945438  1  -0.002755  0  0.086857  0.121506  0  1.029449  0
H  H16  1  0.06887371  0.80356889  0.69024433  1  0.055506  0  0.09599  0.142718  0  1.002128  0
H  H17  1  0.04220621  0.43833404  0.83555466  1  0.054264  0  0.101966  0.040989  0  1.016315  0
H  H18  1  0.31796700  0.60209291  0.93658915  1  0.018682  0  0.089657  0.080973  0  1.005864  0
H  H19  1  0.19466546  0.63469940  0.95984805  1  0.028219  0  0.09541  0.095244  0  0.991945  0
H  H20  1  0.28662304  0.47617176  0.02488233  1  0.030738  0  0.081828  0.108621  0  1.021757  0
H  H21  1  0.16476663  0.51310002  0.04924638  1  0.034349  0  0.086757  0.119798  0  1.015503  0
H  H22  1  0.32267262  0.61376694  0.11281990  1  0.03391  0  0.086355  0.117659  0  1.015065  0
H  H23  1  0.05922011  0.43815547  0.66733795  1  0.030164  0  0.081142  0.114956  0  1.067443  0
H  H24  1  0.21299184  0.54788678  0.74658112  1  0.037225  0  0.092464  0.132769  0  0.984369  0
H  H25  1  0.07857613  0.56874602  0.75893833  1  0.05483  0  0.092435  0.131894  0  1.025492  0
H  H26  1  0.82232274  0.23838000  0.85389951  1  0.149015  0  0.105765  0.122651  0  1.066218  0
H  H27  1  0.65879606  0.19854109  0.92261768  1  0.096799  0  0.116184  0.085742  0  1.005491  0
H  H28  1  0.82812000  0.04858898  0.07814020  1  0.083161  0  0.116221  0.084853  0  0.986837  0
H  H29  1  0.99988523  0.08152473  0.01613766  1  0.112687  0  0.108772  0.11587  0  1.033832  0
H  H30  1  0.85741419  0.21188319  0.65044584  1  0.120265  0  0.115699  0.088633  0  1.009042  0
H  H31  1  0.99316876  0.15796500  0.56175398  1  0.097574  0  0.109994  0.120768  0  1.024108  0
H  H32  1  0.90064345  0.33135123  0.38036457  1  0.120275  0  0.107232  0.118358  0  1.037402  0
H  H33  1  0.77156679  0.37683193  0.47435247  1  0.087824  0  0.113369  0.081053  0  1.025971  0
H  H34  1  0.14891138  0.02649750  0.29590656  1  0.073162  0  0.106925  0.117418  0  1.03842  0
H  H35  1  0.07429209  0.36253298  0.38794753  1  0.069722  0  0.10594  0.116291  0  1.045891  0
H  H36  1  0.05273030  0.91644713  0.32828062  1  0.022509  0  0.102274  0.039967  0  0.964529  0
H  H37  1  0.18350319  0.04122206  0.57382576  1  0.011443  0  0.086801  0.087267  0  1.005721  0
H  H38  1  0.24989381  0.07411663  0.48942922  1  0.031027  0  0.085343  0.084076  0  1.012067  0
H  H39  1  0.19081479  0.85547579  0.50442142  1  0.007354  0  0.084834  0.113884  0  1.012643  0
H  H40  1  0.34120995  0.96193602  0.55359932  1  0.045595  0  0.088234  0.125542  0  1.007038  0
H  H41  1  0.25025041  0.88398193  0.41311744  1  0.019871  0  0.082231  0.11094  0  1.015344  0
H  H42  1  0.86319511  0.84264868  0.35669223  1  0.054579  0  0.088443  0.127668  0  1.044409  0
H  H43  1  0.95000601  0.91820913  0.49872685  1  0.03021  0  0.089468  0.125345  0  1.009237  0
H  H44  1  0.98107286  0.80863685  0.42205231  1  0.022644  0  0.097557  0.139993  0  0.991525  0
H  H45  1  0.17768411  0.47326246  0.36799923  1  0.035146  0  0.103023  0.039679  0  0.969178  0
H  H46  1  0.28990336  0.49223503  0.20857687  1  0.024558  0  0.091521  0.090488  0  0.992611  0
H  H47  1  0.37296405  0.54339296  0.34808965  1  0.040989  0  0.088742  0.085013  0  1.025569  0
H  H48  1  0.18224330  0.62151767  0.24477678  1  0.032146  0  0.086098  0.111972  0  1.012828  0
H  H49  1  0.34845006  0.69578931  0.31321107  1  0.049404  0  0.087  0.121769  0  1.018185  0
H  H50  1  0.25823548  0.66683982  0.38512106  1  0.038273  0  0.086768  0.113878  0  1.000542  0
H  H51  1  0.05212722  0.37018863  0.12133560  1  0.033183  0  0.08917  0.131308  0  1.013471  0
H  H52  1  0.01840069  0.46693184  0.21231450  1  0.036834  0  0.09648  0.14212  0  1.002248  0
H  H53  1  0.97682205  0.33174068  0.20002113  1  0.033885  0  0.086059  0.126616  0  1.024366  0
H  H54  1  0.22338433  0.23240323  0.12108635  1  0.096111  0  0.110328  0.121857  0  1.020492  0
H  H55  1  0.35581814  0.18006665  0.02752596  1  0.09838  0  0.116115  0.090096  0  0.997428  0
H  H56  1  0.44538804  0.00922420  0.19563872  1  0.09947  0  0.114699  0.083914  0  1.016742  0
H  H57  1  0.32038792  0.05380399  0.29506179  1  0.110199  0  0.107821  0.119703  0  1.034439  0
H  H58  1  0.73550578  0.57449912  0.69350044  1  0.123228  0  0.118649  0.102284  0  1.009578  0
H  H59  1  0.73625542  0.70035324  0.60979124  1  0.130936  0  0.110253  0.115345  0  1.036909  0
H  H60  1  0.48968830  0.41360119  0.30506160  1  0.093163  0  0.110933  0.120813  0  1.001406  0
H  H61  1  0.49624140  0.29934982  0.40088476  1  0.103081  0  0.114905  0.094349  0  1.014902  0
H  H62  1  0.59996833  0.87799940  0.41048866  1  0.098931  0  0.105776  0.122076  0  1.059801  0
H  H63  1  0.63949726  0.52370204  0.26556493  1  0.130599  0  0.104733  0.119865  0  1.06873  0
H  H64  1  0.55666926  0.90578802  0.53694835  1  0.046009  0  0.100738  0.039832  0  1.012042  0
H  H65  1  0.57550128  0.97092007  0.72076009  1  0.043496  0  0.089037  0.088129  0  0.984535  0
H  H66  1  0.46546944  0.83283123  0.63796038  1  -0.000397  0  0.091877  0.09101  0  0.980877  0
H  H67  1  0.73528166  0.90697858  0.80271894  1  0.01653  0  0.076293  0.101821  0  1.045744  0
H  H68  1  0.62409286  0.76780490  0.71645374  1  0.023424  0  0.07997  0.107182  0  1.027285  0
H  H69  1  0.59231285  0.85584099  0.81629227  1  0.045017  0  0.079484  0.114102  0  1.031673  0
H  H70  1  0.78689755  0.95855212  0.57255394  1  0.017207  0  0.083243  0.118459  0  1.030527  0
H  H71  1  0.81557578  0.94874160  0.69466071  1  0.032216  0  0.085675  0.12658  0  1.033798  0
H  H72  1  0.76373538  0.04942692  0.67711752  1  0.058623  0  0.088495  0.132927  0  1.023246  0
H  H73  1  0.60495753  0.47080961  0.10227418  1  0.043639  0  0.098325  0.040087  0  0.987033  0
H  H74  1  0.73925772  0.57764862  0.99080116  1  0.064018  0  0.090075  0.091691  0  0.983257  0
H  H75  1  0.65876035  0.43633204  0.95029896  1  0.008565  0  0.088773  0.087028  0  0.985616  0
H  H76  1  0.45224681  0.46384820  0.92459204  1  0.031425  0  0.08059  0.110854  0  1.02313  0
H  H77  1  0.52247679  0.49080780  0.83924917  1  -0.001709  0  0.079203  0.109305  0  1.03078  0
H  H78  1  0.53969262  0.60168550  0.95393260  1  -0.017999  0  0.080435  0.104062  0  1.042196  0
H  H79  1  0.87938382  0.62649309  0.17036752  1  0.010383  0  0.087582  0.12674  0  1.000744  0
H  H80  1  0.82289243  0.48261676  0.13084241  1  0.020784  0  0.091176  0.133478  0  1.008397  0
H  H81  1  0.82405143  0.57219263  0.25143932  1  0.041125  0  0.085532  0.126484  0  1.035301  0
H  H82  1  0.49624857  0.70029668  0.06943104  1  0.105131  0  0.110691  0.115257  0  1.045529  0
H  H83  1  0.48761958  0.82430393  0.98378201  1  0.106719  0  0.118764  0.099166  0  1.006436  0
H  H84  1  0.73545131  0.10161204  0.27231650  1  0.084068  0  0.113762  0.092921  0  1.029806  0
H  H85  1  0.75250650  0.98923824  0.36935285  1  0.08815  0  0.108729  0.118523  0  1.013269  0
C  C86  1  0.48480700  0.23304268  0.73703767  1  0.48341  0  0.046495  0.099245  0  3.955693  0
C  C87  1  0.39261705  0.21280542  0.77547090  1  -0.035861  0  -0.08039  -0.16697  0  3.898765  0
C  C88  1  0.29298910  0.24401576  0.74772025  1  -0.002409  0  0.019206  0.133312  0  3.957579  0
C  C89  1  0.29141290  0.29275865  0.67842482  1  0.051814  0  -0.077675  -0.16902  0  3.938583  0
C  C90  1  0.38758474  0.31017162  0.64352674  1  0.428725  0  0.044401  0.086413  0  3.981619  0
C  C91  1  0.19667553  0.22325689  0.79065861  1  -0.016899  0  -0.018122  -0.027337  0  3.99138  0
C  C92  1  0.16253480  0.12880227  0.80602116  1  -0.059319  0  -0.108207  -0.258356  0  4.009151  0
C  C93  1  0.07610502  0.10664465  0.85068500  1  0.495813  0  0.079541  0.20811  0  4.066995  0
C  C94  1  0.02135945  0.18158188  0.88229706  1  -0.034581  0  -0.016114  -0.022237  0  3.977943  0
C  C95  1  0.05551478  0.27600821  0.86675877  1  0.0398  0  -0.105646  -0.254141  0  3.999148  0
C  C96  1  0.14151327  0.29797979  0.82151064  1  0.486348  0  0.082249  0.207357  0  4.070746  0
C  C97  1  0.08816549  0.93331709  0.83445124  1  0.427212  0  0.002416  0.22448  0  3.837776  0
C  C98  1  0.06634656  0.87255824  0.90042952  1  -0.023081  0  -0.167168  -0.158145  0  3.946449  0
C  C99  1  0.11452480  0.78247505  0.88253433  1  -0.055431  0  -0.247196  -0.352056  0  3.959943  0
C  C100  1  0.02413787  0.85965525  0.71376495  1  -0.03543  0  -0.249129  -0.43732  0  3.922547  0
C  C101  1  0.13469746  0.47382268  0.83464747  1  0.424976  0  0.004235  0.227443  0  3.822888  0
C  C102  1  0.22891932  0.56931543  0.94430849  1  -0.01545  0  -0.167481  -0.167495  0  3.949508  0
C  C103  1  0.25179579  0.54110911  0.03767780  1  -0.080712  0  -0.250149  -0.358818  0  3.965556  0
C  C104  1  0.12053723  0.50896559  0.74630725  1  -0.066049  0  -0.249324  -0.43146  0  3.927204  0
C  C105  1  0.92611331  0.16113401  0.92651750  1  -0.034975  0  0.018742  0.132788  0  3.952922  0
C  C106  1  0.82827788  0.19535695  0.90281626  1  -0.054324  0  -0.083781  -0.173806  0  3.914729  0
C  C107  1  0.73612627  0.17371064  0.94112549  1  0.492167  0  0.044956  0.096304  0  3.956681  0
C  C108  1  0.83023912  0.09011921  0.02772009  1  0.469612  0  0.045637  0.092011  0  3.969734  0
C  C109  1  0.92625344  0.10863728  0.99267559  1  -0.000566  0  -0.080469  -0.171811  0  3.935332  0
C  C110  1  0.87035272  0.23686843  0.59001308  1  0.429111  0  0.043203  0.095842  0  3.949134  0
C  C111  1  0.94663907  0.20706577  0.54016048  1  -0.006109  0  -0.084237  -0.17795  0  3.928955  0
C  C112  1  0.96279122  0.24111929  0.46282815  1  -0.011361  0  0.014152  0.122741  0  3.956988  0
C  C113  1  0.89906046  0.30527534  0.44192216  1  -0.013409  0  -0.084173  -0.172105  0  3.942857  0
C  C114  1  0.82362447  0.33021435  0.49405234  1  0.475438  0  0.044437  0.098802  0  3.961889  0
C  C115  1  0.04068664  0.21491461  0.40417087  1  0.042603  0  -0.01589  -0.018825  0  3.980813  0
C  C116  1  0.06482770  0.11912497  0.37969782  1  0.472614  0  0.080813  0.208854  0  4.070067  0
C  C117  1  0.13358111  0.10140717  0.31760235  1  0.019536  0  -0.106124  -0.250972  0  4.008529  0
C  C118  1  0.18239578  0.17422893  0.27905523  1  0.019599  0  -0.015864  -0.018119  0  3.972956  0
C  C119  1  0.16035973  0.27124176  0.30546914  1  0.475135  0  0.080083  0.208388  0  4.061861  0
C  C120  1  0.09031367  0.28806103  0.36638508  1  -0.055782  0  -0.108396  -0.253306  0  4.016916  0
C  C121  1  0.05489513  0.95779456  0.40877223  1  0.391605  0  0.00595  0.229395  0  3.83511  0
C  C122  1  0.18793768  0.00537894  0.49554528  1  0.004043  0  -0.175273  -0.178911  0  3.950701  0
C  C123  1  0.24482044  0.92149337  0.49070352  1  -0.039398  0  -0.248296  -0.350362  0  3.956096  0
C  C124  1  0.95623458  0.87716297  0.42222988  1  -0.033445  0  -0.245659  -0.426521  0  3.920253  0
C  C125  1  0.17815825  0.43870273  0.28773571  1  0.408752  0  0.005101  0.230444  0  3.833271  0
C  C126  1  0.28361998  0.52609571  0.28634720  1  -0.000274  0  -0.169567  -0.170709  0  3.942919  0
C  C127  1  0.26653428  0.63307686  0.30825267  1  -0.103866  0  -0.243602  -0.348657  0  3.955699  0
C  C128  1  0.04867782  0.39939675  0.20043315  1  -0.063106  0  -0.250628  -0.442872  0  3.91318  0
C  C129  1  0.25682363  0.14685145  0.21703870  1  -0.014987  0  0.013261  0.12334  0  3.959425  0
C  C130  1  0.26986716  0.18207432  0.13971917  1  -0.02592  0  -0.084764  -0.178856  0  3.933788  0
C  C131  1  0.34399563  0.15298970  0.08701465  1  0.459042  0  0.041264  0.09284  0  3.962237  0
C  C132  1  0.39291111  0.05659886  0.17882979  1  0.506641  0  0.043416  0.097232  0  3.96336  0
C  C133  1  0.31992395  0.08101440  0.23398353  1  -0.029965  0  -0.083626  -0.169386  0  3.940031  0
C  C134  1  0.68143203  0.54245212  0.60772745  1  0.474559  0  0.03825  0.076207  0  3.970564  0
C  C135  1  0.68226178  0.61199176  0.56051620  1  -0.108855  0  -0.080494  -0.167982  0  3.947878  0
C  C136  1  0.61528913  0.56811025  0.44911206  1  0.025107  0  0.021817  0.141704  0  3.947811  0
C  C137  1  0.54614341  0.45306052  0.39124740  1  -0.027237  0  -0.077592  -0.160509  0  3.930299  0
C  C138  1  0.54841763  0.38878740  0.44431829  1  0.480066  0  0.039713  0.083191  0  3.95363  0
C  C139  1  0.61890741  0.63796835  0.39426734  1  -0.060153  0  -0.015748  -0.023528  0  3.980332  0
C  C140  1  0.61269468  0.74110856  0.43878513  1  0.538011  0  0.082534  0.212553  0  4.055327  0
C  C141  1  0.61313858  0.80212003  0.38151115  1  0.006641  0  -0.10444  -0.251555  0  4.009255  0
C  C142  1  0.62323791  0.76518136  0.28304619  1  -0.055359  0  -0.017787  -0.030491  0  4.013593  0
C  C143  1  0.63433957  0.66402514  0.24026159  1  0.474615  0  0.081256  0.207904  0  4.064398  0
C  C144  1  0.62877982  0.60074395  0.29528986  1  0.016338  0  -0.10614  -0.249518  0  3.98223  0
C  C145  1  0.61632791  0.88543305  0.59202340  1  0.431526  0  0.001689  0.221452  0  3.822618  0
C  C146  1  0.56713024  0.88665215  0.67810113  1  0.018771  0  -0.167657  -0.15692  0  3.929539  0
C  C147  1  0.63406516  0.85259996  0.75787773  1  -0.074666  0  -0.256333  -0.352499  0  3.956106  0
C  C148  1  0.75404544  0.96470904  0.63669671  1  -0.082943  0  -0.25575  -0.442206  0  3.918337  0
C  C149  1  0.67665914  0.53990676  0.10367697  1  0.42204  0  0.003493  0.226671  0  3.824984  0
C  C150  1  0.65728012  0.51738614  0.98890750  1  -0.000224  0  -0.169579  -0.160141  0  3.937066  0
C  C151  1  0.53597876  0.51820915  0.92329192  1  -0.009733  0  -0.253964  -0.349289  0  3.969859  0
C  C152  1  0.80890065  0.55716400  0.16907002  1  -0.031591  0  -0.25306  -0.449248  0  3.956251  0
C  C153  1  0.62331790  0.83410618  0.22750367  1  -0.012268  0  0.021037  0.142194  0  3.957294  0
C  C154  1  0.55089814  0.78879280  0.11689499  1  0.009633  0  -0.078216  -0.166275  0  3.938894  0
C  C155  1  0.54620572  0.85726807  0.06889927  1  0.464142  0  0.039909  0.078162  0  3.964762  0
C  C156  1  0.68395987  0.01220347  0.23010380  1  0.496884  0  0.038604  0.083039  0  3.953233  0
C  C157  1  0.69197646  0.94907386  0.28395888  1  -0.015694  0  -0.079451  -0.161679  0  3.921351  0
N  N158  1  0.48431838  0.28253374  0.67325587  1  -1.245547  0  -0.339935  -0.245547  0  3.552251  0
N  N159  1  0.73494249  0.12024335  0.00136727  1  -1.233695  0  -0.338286  -0.242769  0  3.540951  0
N  N160  1  0.80848567  0.29683101  0.56734855  1  -1.229011  0  -0.339507  -0.246846  0  3.523302  0
N  N161  1  0.40622378  0.09211605  0.10643828  1  -1.24198  0  -0.337242  -0.24637  0  3.520147  0
N  N162  1  0.61593056  0.43198583  0.55101643  1  -1.247747  0  -0.341565  -0.253399  0  3.53229  0
N  N163  1  0.61130462  0.96787187  0.12425604  1  -1.259285  0  -0.340791  -0.254107  0  3.528104  0
N  N164  1  0.83797360  0.45289137  0.85044067  1  0.821572  0  0.093083  0.710143  0  4.425998  0
N  N165  1  0.53074656  0.08196324  0.47532255  1  0.818076  0  0.095063  0.721389  0  4.399076  0
N  N166  1  0.68759091  0.31491990  0.21105191  1  0.819273  0  0.094531  0.71819  0  4.401897  0
N  N167  1  0.38611474  0.95392988  0.82715452  1  0.820397  0  0.0941  0.709797  0  4.414325  0
O  O168  1  0.03693634  0.01463772  0.86410504  1  -1.073893  0  -0.177073  -0.244868  0  2.582397  0
O  O169  1  0.18153184  0.38894950  0.80682468  1  -1.07984  0  -0.173754  -0.230177  0  2.566272  0
O  O170  1  0.01434636  0.04650939  0.41402830  1  -1.065119  0  -0.176277  -0.239681  0  2.537028  0
O  O171  1  0.21317756  0.34592384  0.27394985  1  -1.059691  0  -0.175595  -0.237927  0  2.524831  0
O  O172  1  0.59914148  0.77198577  0.53316319  1  -1.071326  0  -0.178492  -0.235036  0  2.519173  0
O  O173  1  0.65539353  0.63856085  0.14933157  1  -1.070315  0  -0.177833  -0.231323  0  2.525866  0
O  O174  1  0.79598578  0.50617515  0.80679692  1  -0.562607  0  -0.201603  -0.460234  0  1.95175  0
O  O175  1  0.79148801  0.34628531  0.79355982  1  -0.595896  0  -0.217386  -0.475232  0  2.054032  0
O  O176  1  0.92090454  0.49823652  0.94339655  1  -0.48809  0  -0.173045  -0.408435  0  1.902682  0
O  O177  1  0.51359441  0.15825976  0.45298414  1  -0.583633  0  -0.215598  -0.47644  0  2.024768  0
O  O178  1  0.59771952  0.10879599  0.57238162  1  -0.546691  0  -0.197898  -0.454529  0  1.955878  0
O  O179  1  0.48267977  0.98489833  0.40282807  1  -0.520466  0  -0.179503  -0.422464  0  1.910082  0
O  O180  1  0.70714915  0.23423725  0.22274272  1  -0.589273  0  -0.217008  -0.477587  0  2.0508  0
O  O181  1  0.61543920  0.29563661  0.11852063  1  -0.554738  0  -0.200407  -0.455748  0  1.926674  0
O  O182  1  0.73886895  0.40838440  0.28989240  1  -0.505401  0  -0.173082  -0.412009  0  1.928556  0
O  O183  1  0.42289862  0.89973556  0.87288666  1  -0.556729  0  -0.200739  -0.465751  0  1.987064  0
O  O184  1  0.43340068  0.06045915  0.88395096  1  -0.598743  0  -0.215182  -0.474468  0  2.045286  0
O  O185  1  0.30747941  0.90897529  0.73278648  1  -0.486724  0  -0.162833  -0.399138  0  1.929108  0
