# generated using pymatgen
data_BaH13C15NO5
_symmetry_space_group_name_H-M   'P 1'
_cell_length_a   7.07518408
_cell_length_b   14.51238068
_cell_length_c   15.14710992
_cell_angle_alpha   90.00017331
_cell_angle_beta   89.99995974
_cell_angle_gamma   89.99863636
_symmetry_Int_Tables_number   1
_chemical_formula_structural   BaH13C15NO5
_chemical_formula_sum   'Ba4 H52 C60 N4 O20'
_cell_volume   1555.27138957
_cell_formula_units_Z   4
loop_
 _symmetry_equiv_pos_site_id
 _symmetry_equiv_pos_as_xyz
  1  'x, y, z'
loop_
 _atom_site_type_symbol
 _atom_site_label
 _atom_site_symmetry_multiplicity
 _atom_site_fract_x
 _atom_site_fract_y
 _atom_site_fract_z
 _atom_site_occupancy
 _atom_site_hle17_bader_spin_density
 _atom_site_hle17_ddec_charge
 _atom_site_hle17_ddec_spin_density
 _atom_site_hle17_ddec_sum_bond_order
 _atom_site_hle17_magmom
 _atom_site_hse06_10hf_bader_spin_density
 _atom_site_hse06_10hf_ddec_charge
 _atom_site_hse06_10hf_ddec_spin_density
 _atom_site_hse06_10hf_ddec_sum_bond_order
 _atom_site_hse06_10hf_magmom
 _atom_site_hse06_bader_spin_density
 _atom_site_hse06_ddec_charge
 _atom_site_hse06_ddec_spin_density
 _atom_site_hse06_ddec_sum_bond_order
 _atom_site_hse06_magmom
 _atom_site_pbe_bader_spin_density
 _atom_site_pbe_cm5_charge
 _atom_site_pbe_ddec_charge
 _atom_site_pbe_ddec_spin_density
 _atom_site_pbe_ddec_sum_bond_order
 _atom_site_pbe_magmom
Ba  Ba0  1  0.94184747  0.19236548  0.43938164  1  0  1.637102  0  1.214735  0  0  1.495115  0  1.618621  0  0  1.538034  0  1.573406  0  0  0.997784  1.463448  0  1.650749  0
Ba  Ba1  1  0.55813741  0.80763556  0.93938292  1  0  1.637148  0  1.214645  0  0  1.49514  0  1.618552  0  0  1.53806  0  1.57334  0  0  0.997755  1.463476  0  1.65068  0
Ba  Ba2  1  0.05815817  0.69237686  0.06062312  1  0  1.637045  0  1.214741  0  0  1.495072  0  1.618586  0  0  1.537994  0  1.57337  0  0  0.997752  1.463402  0  1.65071  0
Ba  Ba3  1  0.44184485  0.30762532  0.56062349  1  0  1.637105  0  1.214665  0  0  1.495165  0  1.618476  0  0  1.538083  0  1.573264  0  0  0.997792  1.463499  0  1.650605  0
H  H4  1  0.95136604  0.50161816  0.58883369  1  0  0.091846  0  0.954606  0  0  0.103242  0  1.016761  0  0  0.106665  0  1.014429  0  0  0.107413  0.100683  0  1.018616  0
H  H5  1  0.54866321  0.49837970  0.08883276  1  0  0.091854  0  0.9546  0  0  0.103267  0  1.016745  0  0  0.106672  0  1.01443  0  0  0.107451  0.100707  0  1.018602  0
H  H6  1  0.04863544  0.00162254  0.91116853  1  0  0.091939  0  0.954371  0  0  0.103319  0  1.01656  0  0  0.106745  0  1.014221  0  0  0.107436  0.100759  0  1.018415  0
H  H7  1  0.45136562  0.99838006  0.41117090  1  0  0.092029  0  0.954319  0  0  0.103341  0  1.016564  0  0  0.106816  0  1.014169  0  0  0.107471  0.100779  0  1.018421  0
H  H8  1  0.87659591  0.22177917  0.75199050  1  0  0.103168  0  0.967283  0  0  0.111673  0  1.031224  0  0  0.114852  0  1.029729  0  0  0.106663  0.109391  0  1.032343  0
H  H9  1  0.62341754  0.77822472  0.25198969  1  0  0.103158  0  0.967287  0  0  0.11167  0  1.031226  0  0  0.114851  0  1.029728  0  0  0.106631  0.109384  0  1.032354  0
H  H10  1  0.12339479  0.72177591  0.74800312  1  0  0.103272  0  0.967196  0  0  0.111707  0  1.031206  0  0  0.114887  0  1.029709  0  0  0.106689  0.109424  0  1.03233  0
H  H11  1  0.37659804  0.27822203  0.24801135  1  0  0.103159  0  0.967287  0  0  0.111659  0  1.031249  0  0  0.114839  0  1.029757  0  0  0.106649  0.109379  0  1.032366  0
H  H12  1  0.82845665  0.18288463  0.90950763  1  0  0.087334  0  0.94405  0  0  0.102175  0  0.996595  0  0  0.104896  0  0.995811  0  0  0.100462  0.10021  0  0.997231  0
H  H13  1  0.67154100  0.81711218  0.40951022  1  0  0.087299  0  0.944044  0  0  0.102145  0  0.996586  0  0  0.104867  0  0.995802  0  0  0.100474  0.100182  0  0.997219  0
H  H14  1  0.17153454  0.68289135  0.59048654  1  0  0.087296  0  0.944131  0  0  0.102164  0  0.996644  0  0  0.104884  0  0.995862  0  0  0.100488  0.100202  0  0.997276  0
H  H15  1  0.32846843  0.31710748  0.09049292  1  0  0.087263  0  0.944137  0  0  0.102167  0  0.996622  0  0  0.104891  0  0.995835  0  0  0.100439  0.100201  0  0.997259  0
H  H16  1  0.78619529  0.30887727  0.02077128  1  0  0.087499  0  0.950509  0  0  0.102956  0  1.002713  0  0  0.105483  0  1.002139  0  0  0.099985  0.101097  0  1.003233  0
H  H17  1  0.71380297  0.69112107  0.52077218  1  0  0.087493  0  0.950421  0  0  0.102958  0  1.002625  0  0  0.105487  0  1.002046  0  0  0.09997  0.101098  0  1.003145  0
H  H18  1  0.21380324  0.80888404  0.47922919  1  0  0.087482  0  0.95055  0  0  0.102932  0  1.002766  0  0  0.105454  0  1.002194  0  0  0.099927  0.101075  0  1.003286  0
H  H19  1  0.28619488  0.19111533  0.97923060  1  0  0.087478  0  0.9505  0  0  0.102904  0  1.002752  0  0  0.105427  0  1.002179  0  0  0.099929  0.101048  0  1.003274  0
H  H20  1  0.78712197  0.47210630  0.97282706  1  0  0.103309  0  0.988817  0  0  0.111475  0  1.053744  0  0  0.115377  0  1.051072  0  0  0.105873  0.108557  0  1.055883  0
H  H21  1  0.71286710  0.52789554  0.47282682  1  0  0.10327  0  0.988852  0  0  0.111452  0  1.053764  0  0  0.115352  0  1.051096  0  0  0.105881  0.108555  0  1.055878  0
H  H22  1  0.21288615  0.97210889  0.52717916  1  0  0.103308  0  0.988826  0  0  0.111417  0  1.053812  0  0  0.115318  0  1.051143  0  0  0.105848  0.108504  0  1.055945  0
H  H23  1  0.28711833  0.02788974  0.02717614  1  0  0.103346  0  0.988738  0  0  0.11144  0  1.053746  0  0  0.115343  0  1.051072  0  0  0.105852  0.108529  0  1.055877  0
H  H24  1  0.85922820  0.62629379  0.69485345  1  0  0.095536  0  0.958493  0  0  0.106315  0  1.019458  0  0  0.109448  0  1.018109  0  0  0.103617  0.104072  0  1.020491  0
H  H25  1  0.64079099  0.37370579  0.19484817  1  0  0.095514  0  0.958477  0  0  0.106317  0  1.019418  0  0  0.10945  0  1.01807  0  0  0.103597  0.104073  0  1.020449  0
H  H26  1  0.14077283  0.12629470  0.80515111  1  0  0.095587  0  0.958453  0  0  0.106365  0  1.019411  0  0  0.109499  0  1.018063  0  0  0.103624  0.10412  0  1.020445  0
H  H27  1  0.35922839  0.87370619  0.30515249  1  0  0.095533  0  0.958498  0  0  0.106311  0  1.019462  0  0  0.109444  0  1.018113  0  0  0.103601  0.104066  0  1.020496  0
H  H28  1  0.89029309  0.93002806  0.26090048  1  0  0.042605  0  0.911323  0  0  0.053629  0  0.976476  0  0  0.055569  0  0.971521  0  0  0.126111  0.052038  0  0.980149  0
H  H29  1  0.60971045  0.06997655  0.76090093  1  0  0.042605  0  0.911188  0  0  0.053645  0  0.97633  0  0  0.055588  0  0.971371  0  0  0.126122  0.052054  0  0.980002  0
H  H30  1  0.10970233  0.43002843  0.23908978  1  0  0.042561  0  0.911342  0  0  0.053667  0  0.976398  0  0  0.055603  0  0.97145  0  0  0.126124  0.052076  0  0.980069  0
H  H31  1  0.39028910  0.56997431  0.73909621  1  0  0.042576  0  0.911311  0  0  0.053594  0  0.976468  0  0  0.055531  0  0.971515  0  0  0.126102  0.052003  0  0.980141  0
H  H32  1  0.81359755  0.90567323  0.12811605  1  0  0.11577  0  0.949024  0  0  0.13354  0  1.015403  0  0  0.135193  0  1.014303  0  0  0.124401  0.132222  0  1.016329  0
H  H33  1  0.68641044  0.09432200  0.62811523  1  0  0.115684  0  0.948976  0  0  0.133496  0  1.015323  0  0  0.135151  0  1.014212  0  0  0.124377  0.132177  0  1.016253  0
H  H34  1  0.18640048  0.40567795  0.37187282  1  0  0.115715  0  0.949064  0  0  0.133524  0  1.015398  0  0  0.135176  0  1.014302  0  0  0.124393  0.132205  0  1.016327  0
H  H35  1  0.31359357  0.59432521  0.87188000  1  0  0.115771  0  0.949  0  0  0.133551  0  1.015357  0  0  0.135204  0  1.01426  0  0  0.124414  0.132232  0  1.016288  0
H  H36  1  0.91338101  0.98716295  0.05335535  1  0  0.099308  0  0.941557  0  0  0.117884  0  1.007953  0  0  0.118665  0  1.007398  0  0  0.107442  0.117204  0  1.008456  0
H  H37  1  0.58661862  0.01283135  0.55335367  1  0  0.099328  0  0.941596  0  0  0.117883  0  1.00803  0  0  0.118662  0  1.007479  0  0  0.107457  0.117205  0  1.008532  0
H  H38  1  0.08661162  0.48716562  0.44663837  1  0  0.099314  0  0.941545  0  0  0.117832  0  1.008038  0  0  0.118612  0  1.007485  0  0  0.10743  0.117157  0  1.008535  0
H  H39  1  0.41338090  0.51283709  0.94664397  1  0  0.099319  0  0.941533  0  0  0.117858  0  1.007988  0  0  0.118638  0  1.007436  0  0  0.107441  0.117181  0  1.008489  0
H  H40  1  0.66520363  0.99013706  0.07729264  1  0  0.092073  0  0.957244  0  0  0.11079  0  1.02494  0  0  0.111384  0  1.025132  0  0  0.109269  0.110214  0  1.024958  0
H  H41  1  0.83480444  0.00985663  0.57728889  1  0  0.09205  0  0.95733  0  0  0.110791  0  1.025022  0  0  0.111384  0  1.025214  0  0  0.109276  0.110225  0  1.025029  0
H  H42  1  0.33480440  0.49013678  0.42270175  1  0  0.092119  0  0.957154  0  0  0.11085  0  1.024844  0  0  0.111454  0  1.025026  0  0  0.109297  0.110271  0  1.024863  0
H  H43  1  0.16519805  0.50986585  0.92270676  1  0  0.092106  0  0.95725  0  0  0.110843  0  1.02493  0  0  0.111459  0  1.0251  0  0  0.109285  0.110262  0  1.024952  0
H  H44  1  0.84700950  0.17710354  0.22089705  1  0  0.114548  0  0.951646  0  0  0.132281  0  1.01626  0  0  0.134333  0  1.0142  0  0  0.118777  0.130669  0  1.01789  0
H  H45  1  0.65299411  0.82289405  0.72089702  1  0  0.11454  0  0.951576  0  0  0.132262  0  1.016209  0  0  0.134316  0  1.014146  0  0  0.118762  0.13065  0  1.01784  0
H  H46  1  0.15298276  0.67711038  0.27910766  1  0  0.114544  0  0.951635  0  0  0.132279  0  1.016233  0  0  0.134332  0  1.014172  0  0  0.118766  0.130665  0  1.017863  0
H  H47  1  0.34701709  0.32289594  0.77910349  1  0  0.114531  0  0.951613  0  0  0.132269  0  1.016227  0  0  0.134322  0  1.014166  0  0  0.118762  0.130656  0  1.017856  0
H  H48  1  0.69707621  0.15449253  0.12873226  1  0  0.089801  0  0.967213  0  0  0.109005  0  1.033863  0  0  0.107918  0  1.036712  0  0  0.098864  0.109643  0  1.032003  0
H  H49  1  0.80291623  0.84550752  0.62873093  1  0  0.089767  0  0.967282  0  0  0.108996  0  1.033902  0  0  0.107908  0  1.036752  0  0  0.098875  0.109634  0  1.032042  0
H  H50  1  0.30290867  0.65449035  0.37127040  1  0  0.089811  0  0.967229  0  0  0.108983  0  1.033884  0  0  0.107897  0  1.036733  0  0  0.098881  0.10962  0  1.032025  0
H  H51  1  0.19708679  0.34551006  0.87126899  1  0  0.089811  0  0.96721  0  0  0.108997  0  1.033869  0  0  0.107909  0  1.036715  0  0  0.098891  0.109634  0  1.032009  0
H  H52  1  0.94853819  0.15628263  0.11482594  1  0  0.089028  0  0.961969  0  0  0.108381  0  1.028374  0  0  0.107354  0  1.030838  0  0  0.097324  0.108985  0  1.026747  0
H  H53  1  0.55145992  0.84371669  0.61482799  1  0  0.089013  0  0.962002  0  0  0.10839  0  1.028379  0  0  0.107363  0  1.030843  0  0  0.097317  0.108995  0  1.026752  0
H  H54  1  0.05145367  0.65628340  0.38517739  1  0  0.089188  0  0.962095  0  0  0.108535  0  1.028465  0  0  0.10751  0  1.03093  0  0  0.097384  0.109137  0  1.026836  0
H  H55  1  0.44854601  0.34371912  0.88517259  1  0  0.089165  0  0.962111  0  0  0.108543  0  1.028458  0  0  0.107518  0  1.030923  0  0  0.09739  0.109146  0  1.02683  0
C  C56  1  0.92952644  0.32286818  0.61019131  1  0  0.677471  0  3.920096  0  0  0.627121  0  4.214685  0  0  0.661735  0  4.2051  0  0  0.220191  0.603533  0  4.220392  0
C  C57  1  0.57047874  0.67713319  0.11019221  1  0  0.677177  0  3.920134  0  0  0.626933  0  4.214594  0  0  0.661548  0  4.205008  0  0  0.2201  0.603349  0  4.220299  0
C  C58  1  0.07046779  0.82287013  0.88980656  1  0  0.677696  0  3.920014  0  0  0.627321  0  4.214545  0  0  0.661935  0  4.204952  0  0  0.220323  0.603737  0  4.220258  0
C  C59  1  0.42952623  0.17712689  0.38981316  1  0  0.67754  0  3.92025  0  0  0.627259  0  4.214756  0  0  0.661872  0  4.205167  0  0  0.220295  0.603673  0  4.220466  0
C  C60  1  0.76961370  0.61578216  0.86140536  1  0  0.675936  0  3.921912  0  0  0.628022  0  4.218654  0  0  0.662091  0  4.209817  0  0  0.214713  0.604891  0  4.223842  0
C  C61  1  0.73037979  0.38422069  0.36140734  1  0  0.676132  0  3.922045  0  0  0.628231  0  4.218759  0  0  0.662304  0  4.209917  0  0  0.214901  0.605094  0  4.223946  0
C  C62  1  0.23038784  0.11578013  0.63860248  1  0  0.675672  0  3.922115  0  0  0.627811  0  4.218773  0  0  0.661881  0  4.209939  0  0  0.214675  0.604677  0  4.223955  0
C  C63  1  0.26960657  0.88421816  0.13859995  1  0  0.675609  0  3.921969  0  0  0.627732  0  4.218679  0  0  0.6618  0  4.209847  0  0  0.214683  0.604597  0  4.223857  0
C  C64  1  0.91402885  0.48488449  0.65681760  1  0  -0.066815  0  3.758201  0  0  -0.092795  0  4.01422  0  0  -0.092715  0  4.031971  0  0  -0.076286  -0.092716  0  4.002205  0
C  C65  1  0.58598898  0.51511565  0.15681538  1  0  -0.066888  0  3.758083  0  0  -0.092883  0  4.014158  0  0  -0.092787  0  4.031912  0  0  -0.076387  -0.092806  0  4.002145  0
C  C66  1  0.08596310  0.98488404  0.84318470  1  0  -0.066764  0  3.758102  0  0  -0.0928  0  4.014095  0  0  -0.092719  0  4.031844  0  0  -0.076312  -0.09272  0  4.002083  0
C  C67  1  0.41402958  0.01511421  0.34318688  1  0  -0.066947  0  3.757832  0  0  -0.092851  0  4.013856  0  0  -0.092809  0  4.031591  0  0  -0.076314  -0.092769  0  4.001845  0
C  C68  1  0.90403840  0.39324008  0.68167304  1  0  -0.092572  0  3.701233  0  0  -0.076752  0  3.939362  0  0  -0.081269  0  3.957549  0  0  0.00238  -0.073853  0  3.92717  0
C  C69  1  0.59597515  0.60676083  0.18167240  1  0  -0.092471  0  3.701153  0  0  -0.076775  0  3.939366  0  0  -0.081287  0  3.957545  0  0  0.002365  -0.073878  0  3.927174  0
C  C70  1  0.09595521  0.89324288  0.81832834  1  0  -0.092949  0  3.701593  0  0  -0.076937  0  3.939505  0  0  -0.08145  0  3.957688  0  0  0.002306  -0.074039  0  3.927318  0
C  C71  1  0.40403610  0.10675667  0.31833276  1  0  -0.092591  0  3.701212  0  0  -0.076797  0  3.93932  0  0  -0.08131  0  3.957517  0  0  0.002351  -0.0739  0  3.927132  0
C  C72  1  0.86175309  0.36929609  0.77116137  1  0  0.048159  0  3.723511  0  0  0.056999  0  3.95242  0  0  0.057547  0  3.975407  0  0  0.005471  0.05658  0  3.937042  0
C  C73  1  0.63824478  0.63070442  0.27116079  1  0  0.048111  0  3.723688  0  0  0.057017  0  3.952549  0  0  0.057566  0  3.975535  0  0  0.00548  0.056602  0  3.937161  0
C  C74  1  0.13824169  0.86929742  0.72883994  1  0  0.048268  0  3.723522  0  0  0.05701  0  3.952442  0  0  0.057558  0  3.975427  0  0  0.005416  0.056587  0  3.937072  0
C  C75  1  0.36174975  0.13070391  0.22884511  1  0  0.048171  0  3.723577  0  0  0.056993  0  3.952513  0  0  0.057542  0  3.975495  0  0  0.005432  0.056571  0  3.93714  0
C  C76  1  0.85720140  0.27619979  0.80059127  1  0  -0.113117  0  3.735956  0  0  -0.132575  0  3.98746  0  0  -0.134472  0  4.007091  0  0  -0.08426  -0.131282  0  3.974265  0
C  C77  1  0.64278228  0.72380012  0.30058964  1  0  -0.113112  0  3.736097  0  0  -0.132589  0  3.987576  0  0  -0.134488  0  4.007207  0  0  -0.084259  -0.131297  0  3.974376  0
C  C78  1  0.14279653  0.77620098  0.69940845  1  0  -0.113232  0  3.73601  0  0  -0.132638  0  3.98757  0  0  -0.134534  0  4.007199  0  0  -0.084286  -0.131344  0  3.974377  0
C  C79  1  0.35721617  0.22379751  0.19941323  1  0  -0.113166  0  3.736144  0  0  -0.132649  0  3.987695  0  0  -0.134547  0  4.007328  0  0  -0.084287  -0.131355  0  3.974499  0
C  C80  1  0.83035591  0.25483005  0.88847666  1  0  -0.08474  0  3.816284  0  0  -0.098995  0  4.068569  0  0  -0.101114  0  4.089758  0  0  -0.096784  -0.097444  0  4.05404  0
C  C81  1  0.66964460  0.74516600  0.38847376  1  0  -0.084651  0  3.816328  0  0  -0.098905  0  4.068613  0  0  -0.101025  0  4.089806  0  0  -0.096763  -0.097355  0  4.054081  0
C  C82  1  0.16964024  0.75483617  0.61152168  1  0  -0.084605  0  3.816377  0  0  -0.098866  0  4.068641  0  0  -0.100985  0  4.089831  0  0  -0.096703  -0.097318  0  4.054114  0
C  C83  1  0.33036270  0.24516204  0.11152521  1  0  -0.084599  0  3.816162  0  0  -0.098893  0  4.068427  0  0  -0.101012  0  4.089614  0  0  -0.096653  -0.097343  0  4.053902  0
C  C84  1  0.80559717  0.32593510  0.95120028  1  0  -0.082908  0  3.818695  0  0  -0.096116  0  4.069903  0  0  -0.09746  0  4.090549  0  0  -0.097567  -0.095042  0  4.055686  0
C  C85  1  0.69439900  0.67406460  0.45119981  1  0  -0.082907  0  3.81855  0  0  -0.096126  0  4.069775  0  0  -0.097473  0  4.090417  0  0  -0.09756  -0.095055  0  4.055567  0
C  C86  1  0.19439550  0.82594142  0.54880090  1  0  -0.083026  0  3.818641  0  0  -0.096242  0  4.069869  0  0  -0.097582  0  4.090511  0  0  -0.097631  -0.095173  0  4.055659  0
C  C87  1  0.30560895  0.17405521  0.04880093  1  0  -0.082871  0  3.818467  0  0  -0.096063  0  4.069674  0  0  -0.097405  0  4.090322  0  0  -0.097569  -0.094997  0  4.055465  0
C  C88  1  0.80484587  0.41700213  0.92482772  1  0  -0.129403  0  3.752658  0  0  -0.151368  0  4.007596  0  0  -0.153473  0  4.026185  0  0  -0.094198  -0.149845  0  3.995115  0
C  C89  1  0.69516166  0.58299817  0.42482501  1  0  -0.129355  0  3.75272  0  0  -0.15133  0  4.007653  0  0  -0.153436  0  4.026245  0  0  -0.094181  -0.14982  0  3.995156  0
C  C90  1  0.19514941  0.91700715  0.57517570  1  0  -0.129317  0  3.752558  0  0  -0.151223  0  4.007491  0  0  -0.153327  0  4.026077  0  0  -0.094125  -0.149702  0  3.995006  0
C  C91  1  0.30484510  0.08299025  0.07517811  1  0  -0.129418  0  3.752705  0  0  -0.151319  0  4.007636  0  0  -0.153425  0  4.026225  0  0  -0.094147  -0.149796  0  3.995147  0
C  C92  1  0.83170682  0.44182340  0.83467524  1  0  0.043745  0  3.724062  0  0  0.053202  0  3.953757  0  0  0.054  0  3.977002  0  0  -0.000141  0.052661  0  3.938137  0
C  C93  1  0.66830084  0.55817800  0.33467246  1  0  0.043771  0  3.724347  0  0  0.053229  0  3.954013  0  0  0.054025  0  3.977261  0  0  -0.000135  0.052689  0  3.938389  0
C  C94  1  0.16829007  0.94182488  0.66533089  1  0  0.043733  0  3.72413  0  0  0.053202  0  3.953827  0  0  0.053998  0  3.977074  0  0  -0.000129  0.052663  0  3.938204  0
C  C95  1  0.33170148  0.05817625  0.16533256  1  0  0.043741  0  3.72421  0  0  0.053238  0  3.953872  0  0  0.054032  0  3.977121  0  0  -0.000115  0.052701  0  3.938245  0
C  C96  1  0.82606937  0.53528014  0.80417715  1  0  -0.090035  0  3.685842  0  0  -0.074885  0  3.923559  0  0  -0.080237  0  3.943215  0  0  -0.007474  -0.07151  0  3.910435  0
C  C97  1  0.67393410  0.46472116  0.30417740  1  0  -0.090135  0  3.685961  0  0  -0.075009  0  3.923696  0  0  -0.080364  0  3.943355  0  0  -0.007471  -0.07163  0  3.910566  0
C  C98  1  0.17393470  0.03528170  0.69582649  1  0  -0.089948  0  3.68594  0  0  -0.074813  0  3.923637  0  0  -0.080166  0  3.943296  0  0  -0.007447  -0.071435  0  3.910507  0
C  C99  1  0.32607234  0.96471884  0.19582484  1  0  -0.090106  0  3.686001  0  0  -0.075016  0  3.923775  0  0  -0.080368  0  3.94343  0  0  -0.007535  -0.071636  0  3.910643  0
C  C100  1  0.86688627  0.55484857  0.71670504  1  0  -0.077758  0  3.767041  0  0  -0.101829  0  4.02133  0  0  -0.102532  0  4.040421  0  0  -0.084717  -0.101213  0  4.00832  0
C  C101  1  0.63312299  0.44515107  0.21670261  1  0  -0.077614  0  3.766836  0  0  -0.101685  0  4.021088  0  0  -0.102389  0  4.040179  0  0  -0.084646  -0.101068  0  4.008074  0
C  C102  1  0.13311119  0.05484950  0.78329932  1  0  -0.077819  0  3.766957  0  0  -0.101876  0  4.021232  0  0  -0.102582  0  4.040328  0  0  -0.084676  -0.10126  0  4.00822  0
C  C103  1  0.36688300  0.94514994  0.28329825  1  0  -0.077682  0  3.766967  0  0  -0.101725  0  4.021203  0  0  -0.102432  0  4.040313  0  0  -0.08465  -0.101109  0  4.008187  0
C  C104  1  0.88473140  0.00610111  0.25860762  1  0  0.42176  0  3.832368  0  0  0.3457  0  4.128605  0  0  0.373618  0  4.129646  0  0  0.184349  0.327019  0  4.127232  0
C  C105  1  0.61528486  0.99390280  0.75860612  1  0  0.421866  0  3.832202  0  0  0.345818  0  4.128408  0  0  0.37373  0  4.12946  0  0  0.184361  0.327138  0  4.127034  0
C  C106  1  0.11527488  0.50610276  0.24139066  1  0  0.4216  0  3.832565  0  0  0.345479  0  4.128832  0  0  0.373399  0  4.129874  0  0  0.184316  0.3268  0  4.127454  0
C  C107  1  0.38472644  0.49390068  0.74139159  1  0  0.421896  0  3.832432  0  0  0.345834  0  4.128663  0  0  0.373755  0  4.129701  0  0  0.184413  0.327153  0  4.127294  0
C  C108  1  0.80638753  0.97715082  0.10514081  1  0  -0.180743  0  3.65904  0  0  -0.284795  0  3.915125  0  0  -0.281438  0  3.925403  0  0  -0.121181  -0.286725  0  3.908222  0
C  C109  1  0.69362050  0.02284571  0.60513582  1  0  -0.180618  0  3.659177  0  0  -0.284733  0  3.91531  0  0  -0.281369  0  3.925586  0  0  -0.121145  -0.286676  0  3.908401  0
C  C110  1  0.19361266  0.47715003  0.39485684  1  0  -0.180649  0  3.658959  0  0  -0.284727  0  3.915032  0  0  -0.281377  0  3.925304  0  0  -0.12114  -0.286658  0  3.908135  0
C  C111  1  0.30638418  0.52284977  0.89485920  1  0  -0.180733  0  3.659029  0  0  -0.284795  0  3.915114  0  0  -0.281459  0  3.925381  0  0  -0.121203  -0.286729  0  3.908223  0
C  C112  1  0.83288933  0.13747805  0.15988601  1  0  -0.170019  0  3.650517  0  0  -0.268881  0  3.893483  0  0  -0.264821  0  3.904242  0  0  -0.131763  -0.271339  0  3.886228  0
C  C113  1  0.66710872  0.86252280  0.65988610  1  0  -0.169972  0  3.650548  0  0  -0.268855  0  3.893478  0  0  -0.264794  0  3.904234  0  0  -0.131739  -0.271314  0  3.886223  0
C  C114  1  0.16709780  0.63747803  0.34011660  1  0  -0.170167  0  3.650632  0  0  -0.268971  0  3.893536  0  0  -0.264913  0  3.904293  0  0  -0.131786  -0.271424  0  3.886278  0
C  C115  1  0.33289912  0.36252435  0.84011453  1  0  -0.170091  0  3.650715  0  0  -0.268951  0  3.893647  0  0  -0.264889  0  3.904401  0  0  -0.131793  -0.271405  0  3.886389  0
N  N116  1  0.83988941  0.03922882  0.17866437  1  0  -0.096913  0  3.507805  0  0  0.007609  0  3.742775  0  0  -0.013981  0  3.770392  0  0  -0.280544  0.022026  0  3.723717  0
N  N117  1  0.66011567  0.96077277  0.67866144  1  0  -0.096945  0  3.50804  0  0  0.007555  0  3.743039  0  0  -0.014037  0  3.770662  0  0  -0.280608  0.021972  0  3.723983  0
N  N118  1  0.16011101  0.53922744  0.32133466  1  0  -0.096933  0  3.507935  0  0  0.007566  0  3.742915  0  0  -0.014023  0  3.770532  0  0  -0.280665  0.021982  0  3.723857  0
N  N119  1  0.33989019  0.46077349  0.82133485  1  0  -0.097061  0  3.508138  0  0  0.007464  0  3.743114  0  0  -0.014127  0  3.770735  0  0  -0.280626  0.021881  0  3.724059  0
O  O120  1  0.80905627  0.25747367  0.60442974  1  0  -0.736161  0  1.980717  0  0  -0.673552  0  2.222558  0  0  -0.70093  0  2.213335  0  0  -0.39404  -0.654091  0  2.228317  0
O  O121  1  0.69095458  0.74252630  0.10443145  1  0  -0.736037  0  1.980653  0  0  -0.673453  0  2.222456  0  0  -0.700833  0  2.213237  0  0  -0.394013  -0.653993  0  2.228213  0
O  O122  1  0.19094399  0.75747769  0.89557125  1  0  -0.736175  0  1.980781  0  0  -0.673544  0  2.222593  0  0  -0.700923  0  2.213371  0  0  -0.394077  -0.654085  0  2.228352  0
O  O123  1  0.30904296  0.24251935  0.39557279  1  0  -0.736221  0  1.980688  0  0  -0.673611  0  2.222458  0  0  -0.700988  0  2.21324  0  0  -0.394077  -0.65415  0  2.228214  0
O  O124  1  0.06425120  0.33422066  0.55553681  1  0  -0.735865  0  2.004027  0  0  -0.673999  0  2.255354  0  0  -0.701588  0  2.246098  0  0  -0.403885  -0.654389  0  2.261065  0
O  O125  1  0.43575324  0.66577806  0.05553822  1  0  -0.735759  0  2.004084  0  0  -0.67389  0  2.255305  0  0  -0.70148  0  2.246048  0  0  -0.403784  -0.654275  0  2.260999  0
O  O126  1  0.93573259  0.83422103  0.94445713  1  0  -0.735986  0  2.003985  0  0  -0.674153  0  2.255366  0  0  -0.701755  0  2.246129  0  0  -0.403922  -0.654529  0  2.261046  0
O  O127  1  0.56426077  0.16577658  0.44446382  1  0  -0.735948  0  2.004272  0  0  -0.674088  0  2.255534  0  0  -0.701704  0  2.246331  0  0  -0.403967  -0.654464  0  2.261213  0
O  O128  1  0.82302420  0.61840802  0.94172629  1  0  -0.736598  0  1.990618  0  0  -0.678122  0  2.23678  0  0  -0.704734  0  2.227007  0  0  -0.389485  -0.659153  0  2.242787  0
O  O129  1  0.67696493  0.38159303  0.44172959  1  0  -0.736646  0  1.990509  0  0  -0.678183  0  2.236666  0  0  -0.704795  0  2.226889  0  0  -0.389589  -0.659247  0  2.242744  0
O  O130  1  0.17699135  0.11840428  0.55827496  1  0  -0.736496  0  1.990563  0  0  -0.678012  0  2.236674  0  0  -0.704624  0  2.226902  0  0  -0.389482  -0.659059  0  2.24272  0
O  O131  1  0.32297351  0.88158756  0.05826778  1  0  -0.736502  0  1.990503  0  0  -0.677996  0  2.236628  0  0  -0.704608  0  2.226855  0  0  -0.389584  -0.659066  0  2.242724  0
O  O132  1  0.66958655  0.67743487  0.82420431  1  0  -0.699301  0  1.907406  0  0  -0.645064  0  2.141201  0  0  -0.671014  0  2.131612  0  0  -0.388381  -0.626629  0  2.147199  0
O  O133  1  0.83039851  0.32256305  0.32420872  1  0  -0.699436  0  1.907607  0  0  -0.645223  0  2.141437  0  0  -0.671166  0  2.131829  0  0  -0.388529  -0.626783  0  2.147437  0
O  O134  1  0.33040632  0.17743249  0.67580371  1  0  -0.699203  0  1.907585  0  0  -0.645026  0  2.141411  0  0  -0.670976  0  2.131825  0  0  -0.388397  -0.626588  0  2.147408  0
O  O135  1  0.16959652  0.82256937  0.17580962  1  0  -0.69909  0  1.907577  0  0  -0.644897  0  2.141419  0  0  -0.670847  0  2.131834  0  0  -0.38828  -0.626457  0  2.147416  0
O  O136  1  0.91991230  0.05376790  0.32524416  1  0  -0.623057  0  2.044121  0  0  -0.567398  0  2.298032  0  0  -0.592393  0  2.291974  0  0  -0.380355  -0.549913  0  2.301717  0
O  O137  1  0.58008972  0.94623071  0.82523725  1  0  -0.623163  0  2.044031  0  0  -0.567513  0  2.297941  0  0  -0.592508  0  2.291888  0  0  -0.380341  -0.550029  0  2.301626  0
O  O138  1  0.08008316  0.55377801  0.17475888  1  0  -0.622929  0  2.044132  0  0  -0.567265  0  2.298051  0  0  -0.592263  0  2.291997  0  0  -0.380326  -0.549781  0  2.301731  0
O  O139  1  0.41991261  0.44623073  0.67475570  1  0  -0.623131  0  2.044029  0  0  -0.56748  0  2.297942  0  0  -0.592477  0  2.291883  0  0  -0.380395  -0.549994  0  2.301628  0
