# generated using pymatgen
data_CuH17C25N2O7
_symmetry_space_group_name_H-M   'P 1'
_cell_length_a   7.84576125
_cell_length_b   9.20711061
_cell_length_c   14.87687808
_cell_angle_alpha   91.45329136
_cell_angle_beta   96.33622560
_cell_angle_gamma   101.62546542
_symmetry_Int_Tables_number   1
_chemical_formula_structural   CuH17C25N2O7
_chemical_formula_sum   'Cu2 H34 C50 N4 O14'
_cell_volume   1044.93073835
_cell_formula_units_Z   2
loop_
 _symmetry_equiv_pos_site_id
 _symmetry_equiv_pos_as_xyz
  1  'x, y, z'
loop_
 _atom_site_type_symbol
 _atom_site_label
 _atom_site_symmetry_multiplicity
 _atom_site_fract_x
 _atom_site_fract_y
 _atom_site_fract_z
 _atom_site_occupancy
 _atom_site_hle17_bader_spin_density
 _atom_site_hle17_ddec_charge
 _atom_site_hle17_ddec_spin_density
 _atom_site_hle17_ddec_sum_bond_order
 _atom_site_hle17_magmom
 _atom_site_hse06_10hf_bader_spin_density
 _atom_site_hse06_10hf_ddec_charge
 _atom_site_hse06_10hf_ddec_spin_density
 _atom_site_hse06_10hf_ddec_sum_bond_order
 _atom_site_hse06_10hf_magmom
 _atom_site_hse06_bader_spin_density
 _atom_site_hse06_ddec_charge
 _atom_site_hse06_ddec_spin_density
 _atom_site_hse06_ddec_sum_bond_order
 _atom_site_hse06_magmom
 _atom_site_pbe_bader_spin_density
 _atom_site_pbe_cm5_charge
 _atom_site_pbe_ddec_charge
 _atom_site_pbe_ddec_spin_density
 _atom_site_pbe_ddec_sum_bond_order
 _atom_site_pbe_magmom
Cu  Cu0  1  0.35500727  0.07322027  0.08686395  1  0  0.527655  0  1.601754  0  0  0.393768  0  2.041296  0  0  0.397981  0  1.998002  0  0  0.544564  0.395986  0  2.068487  0
Cu  Cu1  1  0.64499648  0.92677532  0.91313801  1  0  0.527671  0  1.601727  0  0  0.393749  0  2.041262  0  0  0.397984  0  1.997977  0  0  0.544548  0.395944  0  2.068475  0
H  H2  1  0.83750606  0.26378860  0.26618392  1  0  0.401092  0  0.891732  0  0  0.368503  0  0.976491  0  0  0.380476  0  0.963214  0  0  0.301109  0.360064  0  0.985749  0
H  H3  1  0.16249647  0.73621704  0.73381749  1  0  0.401064  0  0.89178  0  0  0.368481  0  0.976524  0  0  0.380451  0  0.963251  0  0  0.301107  0.360039  0  0.985782  0
H  H4  1  0.46563445  0.92114641  0.68884682  1  0  0.395894  0  0.905959  0  0  0.360793  0  0.989959  0  0  0.374128  0  0.977513  0  0  0.292229  0.351591  0  0.99839  0
H  H5  1  0.53437147  0.07886254  0.31115013  1  0  0.39588  0  0.905993  0  0  0.360822  0  0.989917  0  0  0.374158  0  0.97747  0  0  0.292245  0.351618  0  0.998349  0
H  H6  1  0.24157527  0.86115652  0.21857386  1  0  0.089164  0  0.94237  0  0  0.098391  0  1.004304  0  0  0.100898  0  1.002392  0  0  0.117022  0.096391  0  1.005941  0
H  H7  1  0.75842279  0.13883693  0.78142640  1  0  0.089142  0  0.94239  0  0  0.098367  0  1.004331  0  0  0.100874  0  1.002419  0  0  0.117016  0.096366  0  1.005967  0
H  H8  1  0.00083560  0.63988583  0.22065436  1  0  0.107941  0  0.948141  0  0  0.119446  0  1.006906  0  0  0.121758  0  1.007496  0  0  0.108836  0.117805  0  1.006596  0
H  H9  1  0.99916046  0.36010988  0.77934382  1  0  0.107959  0  0.948115  0  0  0.119465  0  1.006877  0  0  0.121777  0  1.007467  0  0  0.108848  0.117824  0  1.006566  0
H  H10  1  0.85609152  0.69855992  0.93588030  1  0  0.107573  0  0.979462  0  0  0.11228  0  1.051746  0  0  0.11688  0  1.04752  0  0  0.104823  0.108988  0  1.054948  0
H  H11  1  0.14390798  0.30143908  0.06411880  1  0  0.107547  0  0.979556  0  0  0.11225  0  1.051846  0  0  0.11685  0  1.047621  0  0  0.104827  0.108977  0  1.055028  0
H  H12  1  0.10404041  0.91427117  0.94643003  1  0  0.091522  0  0.97454  0  0  0.100406  0  1.037699  0  0  0.102892  0  1.035738  0  0  0.114631  0.098417  0  1.039156  0
H  H13  1  0.89596264  0.08572666  0.05357193  1  0  0.09153  0  0.974545  0  0  0.100414  0  1.0377  0  0  0.102901  0  1.035739  0  0  0.114642  0.098428  0  1.039158  0
H  H14  1  0.71089028  0.54943038  0.21650071  1  0  0.110892  0  0.956644  0  0  0.120162  0  1.017999  0  0  0.123273  0  1.016938  0  0  0.108956  0.117877  0  1.018883  0
H  H15  1  0.28911375  0.45056632  0.78349994  1  0  0.110938  0  0.956628  0  0  0.120211  0  1.017959  0  0  0.123316  0  1.016904  0  0  0.109006  0.117922  0  1.018844  0
H  H16  1  0.48278666  0.31841962  0.21026345  1  0  0.088677  0  0.95452  0  0  0.097944  0  1.018759  0  0  0.100352  0  1.016092  0  0  0.118119  0.096042  0  1.020934  0
H  H17  1  0.51721414  0.68157934  0.78973909  1  0  0.088748  0  0.95458  0  0  0.097999  0  1.018822  0  0  0.100406  0  1.016158  0  0  0.118128  0.096099  0  1.020999  0
H  H18  1  0.51869177  0.22957479  0.93982407  1  0  0.089107  0  0.968713  0  0  0.095887  0  1.036703  0  0  0.099749  0  1.032279  0  0  0.114718  0.092801  0  1.040295  0
H  H19  1  0.48130432  0.77042091  0.06017679  1  0  0.089141  0  0.968702  0  0  0.095928  0  1.036694  0  0  0.09979  0  1.032269  0  0  0.114749  0.092843  0  1.040287  0
H  H20  1  0.75502282  0.45454035  0.93465456  1  0  0.103122  0  0.952988  0  0  0.116863  0  1.009654  0  0  0.118709  0  1.011079  0  0  0.10757  0.115521  0  1.008691  0
H  H21  1  0.24496971  0.54545652  0.06534411  1  0  0.103111  0  0.952954  0  0  0.116853  0  1.009619  0  0  0.118699  0  1.011044  0  0  0.107565  0.115509  0  1.008657  0
H  H22  1  0.22231405  0.07249979  0.37549092  1  0  0.108753  0  0.967819  0  0  0.116033  0  1.033467  0  0  0.119961  0  1.03091  0  0  0.102821  0.113145  0  1.035498  0
H  H23  1  0.77768615  0.92749696  0.62451019  1  0  0.108738  0  0.967805  0  0  0.116016  0  1.033457  0  0  0.119943  0  1.030903  0  0  0.102821  0.113127  0  1.035485  0
H  H24  1  0.12847745  0.85712822  0.46963669  1  0  0.089053  0  0.964102  0  0  0.100768  0  1.020733  0  0  0.102749  0  1.020944  0  0  0.099118  0.099355  0  1.020692  0
H  H25  1  0.87151951  0.14287080  0.53036563  1  0  0.089012  0  0.964164  0  0  0.100746  0  1.02077  0  0  0.102718  0  1.021002  0  0  0.099108  0.099334  0  1.02073  0
H  H26  1  0.82789277  0.70070852  0.43667296  1  0  0.109225  0  0.968418  0  0  0.120693  0  1.028798  0  0  0.123453  0  1.02776  0  0  0.105583  0.118832  0  1.029382  0
H  H27  1  0.17210092  0.29929278  0.56332787  1  0  0.109215  0  0.968334  0  0  0.120686  0  1.028726  0  0  0.123446  0  1.027688  0  0  0.105557  0.118824  0  1.029314  0
H  H28  1  0.57805359  0.85473134  0.47031737  1  0  0.123363  0  0.954939  0  0  0.130947  0  1.020487  0  0  0.13471  0  1.018171  0  0  0.109597  0.128291  0  1.022108  0
H  H29  1  0.42194012  0.14528001  0.52967692  1  0  0.123396  0  0.954839  0  0  0.130965  0  1.020412  0  0  0.134729  0  1.018097  0  0  0.109591  0.128313  0  1.022025  0
H  H30  1  0.14562366  0.51287233  0.52309446  1  0  0.09439  0  0.976373  0  0  0.103502  0  1.04232  0  0  0.107036  0  1.039579  0  0  0.100833  0.101028  0  1.04419  0
H  H31  1  0.85438481  0.48712653  0.47690917  1  0  0.094349  0  0.976404  0  0  0.103432  0  1.042387  0  0  0.106959  0  1.039652  0  0  0.100853  0.100961  0  1.044255  0
H  H32  1  0.13639032  0.39587310  0.36783956  1  0  0.095051  0  0.962541  0  0  0.104477  0  1.021894  0  0  0.107201  0  1.020831  0  0  0.10121  0.102493  0  1.022754  0
H  H33  1  0.86361971  0.60412686  0.63216351  1  0  0.095018  0  0.96258  0  0  0.104462  0  1.021909  0  0  0.107191  0  1.020848  0  0  0.101217  0.10248  0  1.022768  0
H  H34  1  0.35380857  0.50726892  0.26607647  1  0  0.116885  0  0.943501  0  0  0.125705  0  1.007068  0  0  0.129709  0  1.004266  0  0  0.109329  0.122864  0  1.009141  0
H  H35  1  0.64619436  0.49273337  0.73392423  1  0  0.116869  0  0.943501  0  0  0.125689  0  1.007066  0  0  0.129695  0  1.004264  0  0  0.109323  0.122846  0  1.00914  0
C  C36  1  0.15098801  0.82129034  0.15817154  1  0  0.125104  0  3.681984  0  0  0.094627  0  3.927112  0  0  0.101516  0  3.944827  0  0  0.041087  0.089975  0  3.915967  0
C  C37  1  0.84900964  0.17870645  0.84182943  1  0  0.125214  0  3.681947  0  0  0.094731  0  3.927104  0  0  0.101618  0  3.944825  0  0  0.04112  0.090081  0  3.915956  0
C  C38  1  0.01551114  0.69873673  0.15844177  1  0  -0.154791  0  3.699533  0  0  -0.171526  0  3.945874  0  0  -0.179664  0  3.967776  0  0  -0.080788  -0.166097  0  3.931257  0
C  C39  1  0.98448424  0.30126121  0.84155910  1  0  -0.154851  0  3.699471  0  0  -0.171626  0  3.945773  0  0  -0.179763  0  3.967674  0  0  -0.080822  -0.166193  0  3.931153  0
C  C40  1  0.90270645  0.65040082  0.07848093  1  0  0.101027  0  3.743361  0  0  0.109861  0  3.973919  0  0  0.115283  0  3.993149  0  0  0.012867  0.106175  0  3.961001  0
C  C41  1  0.09728639  0.34959714  0.92152114  1  0  0.100979  0  3.743529  0  0  0.109979  0  3.973888  0  0  0.115399  0  3.993123  0  0  0.012899  0.106289  0  3.960974  0
C  C42  1  0.93645757  0.72884638  0.00063494  1  0  -0.149269  0  3.703193  0  0  -0.170704  0  3.960632  0  0  -0.176013  0  3.97636  0  0  -0.081584  -0.167834  0  3.950512  0
C  C43  1  0.06354763  0.27115476  0.99936654  1  0  -0.149109  0  3.7034  0  0  -0.17059  0  3.9608  0  0  -0.175897  0  3.976528  0  0  -0.081518  -0.167736  0  3.950665  0
C  C44  1  0.07383373  0.85085690  0.00546004  1  0  0.120306  0  3.691859  0  0  0.089455  0  3.938805  0  0  0.096905  0  3.954008  0  0  0.041335  0.084738  0  3.928806  0
C  C45  1  0.92617285  0.14913977  0.99453875  1  0  0.120246  0  3.6919  0  0  0.089401  0  3.938855  0  0  0.096852  0  3.954056  0  0  0.041303  0.084678  0  3.928866  0
C  C46  1  0.75784059  0.52084089  0.07628349  1  0  0.096174  0  3.748383  0  0  0.110835  0  3.97454  0  0  0.115651  0  3.99467  0  0  0.012553  0.107519  0  3.960925  0
C  C47  1  0.24215508  0.47915815  0.92371674  1  0  0.096161  0  3.748621  0  0  0.110676  0  3.974868  0  0  0.115491  0  3.995  0  0  0.012539  0.107366  0  3.961235  0
C  C48  1  0.67570500  0.48122900  0.15383718  1  0  -0.138653  0  3.69074  0  0  -0.157494  0  3.938333  0  0  -0.164321  0  3.957521  0  0  -0.079795  -0.153594  0  3.92627  0
C  C49  1  0.32428895  0.51876338  0.84616485  1  0  -0.138662  0  3.690805  0  0  -0.157457  0  3.938398  0  0  -0.16428  0  3.957588  0  0  -0.079863  -0.15356  0  3.926337  0
C  C50  1  0.54716672  0.35346544  0.15105847  1  0  0.118093  0  3.689571  0  0  0.084942  0  3.936693  0  0  0.092346  0  3.953088  0  0  0.037432  0.079884  0  3.926895  0
C  C51  1  0.45283092  0.64653136  0.84894049  1  0  0.117961  0  3.689575  0  0  0.084805  0  3.936677  0  0  0.092209  0  3.953078  0  0  0.037401  0.079713  0  3.926859  0
C  C52  1  0.56760924  0.30380551  0.99929029  1  0  0.120322  0  3.685416  0  0  0.088844  0  3.932596  0  0  0.096268  0  3.948654  0  0  0.040645  0.084121  0  3.922254  0
C  C53  1  0.43238543  0.69619467  0.00070788  1  0  0.120329  0  3.685555  0  0  0.088804  0  3.93276  0  0  0.096228  0  3.948821  0  0  0.040601  0.084043  0  3.922403  0
C  C54  1  0.69758967  0.43012695  0.99735151  1  0  -0.148993  0  3.708552  0  0  -0.169074  0  3.95359  0  0  -0.177524  0  3.978249  0  0  -0.082103  -0.163362  0  3.936801  0
C  C55  1  0.30240784  0.56987431  0.00264618  1  0  -0.148956  0  3.708562  0  0  -0.168987  0  3.953633  0  0  -0.177437  0  3.978293  0  0  -0.082072  -0.163278  0  3.93685  0
C  C56  1  0.97128146  0.04431101  0.29505798  1  0  -0.087003  0  3.78637  0  0  -0.07131  0  4.022199  0  0  -0.076649  0  4.044571  0  0  -0.016894  -0.067989  0  4.007296  0
C  C57  1  0.02871979  0.95569464  0.70494335  1  0  -0.087185  0  3.786563  0  0  -0.071484  0  4.022385  0  0  -0.076823  0  4.04476  0  0  -0.016935  -0.068162  0  4.00748  0
C  C58  1  0.08945350  0.00643055  0.36366500  1  0  -0.086491  0  3.736353  0  0  -0.115424  0  3.992741  0  0  -0.116604  0  4.011879  0  0  -0.09007  -0.114425  0  3.979852  0
C  C59  1  0.91054403  0.99357069  0.63633537  1  0  -0.086411  0  3.736391  0  0  -0.115353  0  3.992784  0  0  -0.116533  0  4.011923  0  0  -0.090071  -0.114353  0  3.979898  0
C  C60  1  0.03728006  0.88518337  0.41559221  1  0  -0.03815  0  3.778588  0  0  -0.050706  0  4.031746  0  0  -0.051406  0  4.052967  0  0  -0.089161  -0.05036  0  4.017419  0
C  C61  1  0.96271746  0.11481789  0.58440682  1  0  -0.038119  0  3.778572  0  0  -0.05068  0  4.031713  0  0  -0.051382  0  4.05293  0  0  -0.089137  -0.050338  0  4.017387  0
C  C62  1  0.86920388  0.79753533  0.39782652  1  0  -0.170337  0  3.74634  0  0  -0.193473  0  4.000231  0  0  -0.196622  0  4.018411  0  0  -0.095885  -0.191169  0  3.987741  0
C  C63  1  0.13079109  0.20246595  0.60217438  1  0  -0.17027  0  3.746137  0  0  -0.193408  0  4.000035  0  0  -0.196556  0  4.018216  0  0  -0.095838  -0.191107  0  3.987545  0
C  C64  1  0.75288640  0.83476066  0.32869280  1  0  0.248207  0  3.772137  0  0  0.230974  0  4.038819  0  0  0.240338  0  4.054053  0  0  0.083149  0.224456  0  4.028546  0
C  C65  1  0.24711351  0.16523499  0.67130693  1  0  0.24812  0  3.77191  0  0  0.230847  0  4.038618  0  0  0.240203  0  4.05386  0  0  0.083145  0.224335  0  4.028338  0
C  C66  1  0.79982797  0.95890756  0.27739841  1  0  -0.161303  0  3.721962  0  0  -0.156427  0  3.966152  0  0  -0.161266  0  3.984928  0  0  -0.017939  -0.153358  0  3.953679  0
C  C67  1  0.20017466  0.04109362  0.72260157  1  0  -0.161121  0  3.721869  0  0  -0.156265  0  3.966098  0  0  -0.161107  0  3.984877  0  0  -0.017905  -0.1532  0  3.953623  0
C  C68  1  0.48097367  0.68490598  0.36314891  1  0  0.274155  0  3.778949  0  0  0.267158  0  4.041933  0  0  0.276275  0  4.057629  0  0  0.087191  0.26076  0  4.031062  0
C  C69  1  0.51902372  0.31509974  0.63684885  1  0  0.274153  0  3.779119  0  0  0.267181  0  4.042024  0  0  0.276292  0  4.057723  0  0  0.087226  0.260784  0  4.031151  0
C  C70  1  0.48496495  0.75218267  0.44870629  1  0  -0.185915  0  3.710272  0  0  -0.219105  0  3.960357  0  0  -0.221872  0  3.979525  0  0  -0.094248  -0.217013  0  3.947279  0
C  C71  1  0.51503045  0.24782531  0.55129005  1  0  -0.1859  0  3.710298  0  0  -0.219142  0  3.960359  0  0  -0.221911  0  3.97953  0  0  -0.094245  -0.217049  0  3.947275  0
C  C72  1  0.36389122  0.68736558  0.50600247  1  0  -0.061487  0  3.810985  0  0  -0.03685  0  4.044665  0  0  -0.044343  0  4.068999  0  0  -0.020541  -0.032064  0  4.028299  0
C  C73  1  0.63610843  0.31263900  0.49399472  1  0  -0.061649  0  3.810769  0  0  -0.036901  0  4.044292  0  0  -0.04439  0  4.068614  0  0  -0.020573  -0.032116  0  4.027932  0
C  C74  1  0.23922363  0.55857130  0.47717599  1  0  -0.097731  0  3.762817  0  0  -0.128542  0  4.017143  0  0  -0.129735  0  4.03834  0  0  -0.094808  -0.127623  0  4.002862  0
C  C75  1  0.76078954  0.44143084  0.52282729  1  0  -0.09759  0  3.762614  0  0  -0.128427  0  4.016954  0  0  -0.12961  0  4.03814  0  0  -0.094806  -0.127511  0  4.002677  0
C  C76  1  0.23507122  0.49434550  0.39103839  1  0  -0.044367  0  3.771884  0  0  -0.0533  0  4.023341  0  0  -0.054846  0  4.044179  0  0  -0.087972  -0.052339  0  4.009411  0
C  C77  1  0.76493792  0.50565113  0.60896188  1  0  -0.04442  0  3.771844  0  0  -0.053366  0  4.023304  0  0  -0.05492  0  4.044149  0  0  -0.088036  -0.052404  0  4.009375  0
C  C78  1  0.35603178  0.55663322  0.33364822  1  0  -0.149408  0  3.695501  0  0  -0.178331  0  3.951562  0  0  -0.180514  0  3.968678  0  0  -0.090958  -0.176664  0  3.939897  0
C  C79  1  0.64396673  0.44336691  0.66635219  1  0  -0.149339  0  3.695502  0  0  -0.178279  0  3.951533  0  0  -0.180465  0  3.968654  0  0  -0.09093  -0.17661  0  3.939868  0
C  C80  1  0.03573890  0.17505095  0.24115302  1  0  0.657239  0  3.796737  0  0  0.609001  0  4.095606  0  0  0.640619  0  4.087074  0  0  0.232396  0.58745  0  4.100999  0
C  C81  1  0.96426175  0.82495249  0.75884555  1  0  0.657212  0  3.797069  0  0  0.608988  0  4.095902  0  0  0.640604  0  4.087377  0  0  0.232344  0.587433  0  4.1013  0
C  C82  1  0.66723304  0.98450898  0.20075842  1  0  0.66549  0  3.914617  0  0  0.607967  0  4.224781  0  0  0.641369  0  4.215241  0  0  0.205573  0.585465  0  4.230485  0
C  C83  1  0.33276733  0.01549335  0.79924078  1  0  0.665539  0  3.914485  0  0  0.608012  0  4.22465  0  0  0.641419  0  4.215113  0  0  0.205531  0.585513  0  4.23035  0
C  C84  1  0.35958119  0.75541082  0.59754827  1  0  0.654876  0  3.835641  0  0  0.604622  0  4.131528  0  0  0.638455  0  4.12234  0  0  0.230977  0.581718  0  4.137154  0
C  C85  1  0.64042202  0.24459258  0.40245044  1  0  0.654732  0  3.836047  0  0  0.604496  0  4.131863  0  0  0.638336  0  4.122668  0  0  0.230893  0.581596  0  4.13749  0
N  N86  1  0.17948048  0.89859832  0.08305862  1  0  -0.303795  0  3.42701  0  0  -0.218137  0  3.720137  0  0  -0.230023  0  3.727183  0  0  -0.379109  -0.21166  0  3.716194  0
N  N87  1  0.82051931  0.10140179  0.91694051  1  0  -0.303866  0  3.426998  0  0  -0.218231  0  3.720145  0  0  -0.230124  0  3.727206  0  0  -0.379152  -0.211754  0  3.716221  0
N  N88  1  0.49527314  0.26305426  0.07562611  1  0  -0.294273  0  3.410345  0  0  -0.205176  0  3.697732  0  0  -0.217078  0  3.705209  0  0  -0.377749  -0.199071  0  3.693504  0
N  N89  1  0.50472607  0.73694362  0.92437363  1  0  -0.294327  0  3.410522  0  0  -0.205177  0  3.697869  0  0  -0.217089  0  3.705362  0  0  -0.377737  -0.198972  0  3.69357  0
O  O90  1  0.18186247  0.19694202  0.21498253  1  0  -0.541815  0  1.939343  0  0  -0.502759  0  2.176495  0  0  -0.519884  0  2.165265  0  0  -0.281673  -0.491027  0  2.183978  0
O  O91  1  0.81814162  0.80305027  0.78500931  1  0  -0.541802  0  1.939741  0  0  -0.502744  0  2.176861  0  0  -0.519869  0  2.16564  0  0  -0.281616  -0.49101  0  2.184343  0
O  O92  1  0.92914810  0.26976365  0.22245778  1  0  -0.555443  0  2.082965  0  0  -0.504423  0  2.300993  0  0  -0.52625  0  2.288512  0  0  -0.337612  -0.489036  0  2.309055  0
O  O93  1  0.07085552  0.73023640  0.77754224  1  0  -0.555418  0  2.082895  0  0  -0.50441  0  2.300923  0  0  -0.526238  0  2.288449  0  0  -0.337633  -0.48902  0  2.308985  0
O  O94  1  0.69248823  0.95655783  0.12157808  1  0  -0.589278  0  1.94644  0  0  -0.550534  0  2.197808  0  0  -0.571037  0  2.185653  0  0  -0.302574  -0.535938  0  2.205171  0
O  O95  1  0.30751226  0.04344004  0.87842307  1  0  -0.589347  0  1.946369  0  0  -0.550592  0  2.197737  0  0  -0.571084  0  2.185554  0  0  -0.302561  -0.535996  0  2.205094  0
O  O96  1  0.53121392  0.02965815  0.22340810  1  0  -0.626385  0  2.098688  0  0  -0.560016  0  2.350461  0  0  -0.585743  0  2.33653  0  0  -0.316585  -0.542197  0  2.359441  0
O  O97  1  0.46878957  0.97034637  0.77659065  1  0  -0.626409  0  2.098605  0  0  -0.560044  0  2.350448  0  0  -0.585758  0  2.336476  0  0  -0.316562  -0.542226  0  2.35943  0
O  O98  1  0.59109228  0.74313403  0.30082161  1  0  -0.293786  0  2.367081  0  0  -0.224609  0  2.592928  0  0  -0.241803  0  2.595238  0  0  -0.150611  -0.212281  0  2.590795  0
O  O99  1  0.40890739  0.25687053  0.69917760  1  0  -0.293763  0  2.366762  0  0  -0.224529  0  2.592557  0  0  -0.24171  0  2.594858  0  0  -0.150613  -0.212207  0  2.590425  0
O  O100  1  0.47217997  0.88036816  0.61924464  1  0  -0.552274  0  2.099382  0  0  -0.495709  0  2.323055  0  0  -0.519675  0  2.311225  0  0  -0.317185  -0.479227  0  2.330598  0
O  O101  1  0.52781996  0.11963753  0.38075191  1  0  -0.552185  0  2.099511  0  0  -0.495702  0  2.323195  0  0  -0.51968  0  2.311374  0  0  -0.317158  -0.479216  0  2.33073  0
O  O102  1  0.25150136  0.69351504  0.64762111  1  0  -0.599399  0  2.001213  0  0  -0.551198  0  2.228662  0  0  -0.574045  0  2.220419  0  0  -0.300438  -0.535397  0  2.233643  0
O  O103  1  0.74850257  0.30648611  0.35238096  1  0  -0.599281  0  2.001473  0  0  -0.551089  0  2.2289  0  0  -0.573931  0  2.220649  0  0  -0.300359  -0.535294  0  2.233891  0
