# generated using pymatgen
data_CuH9C12INO
_symmetry_space_group_name_H-M   'P 1'
_cell_length_a   4.05339623
_cell_length_b   11.18799127
_cell_length_c   24.28870499
_cell_angle_alpha   90.00014049
_cell_angle_beta   90.00088979
_cell_angle_gamma   96.64257744
_symmetry_Int_Tables_number   1
_chemical_formula_structural   CuH9C12INO
_chemical_formula_sum   'Cu4 H36 C48 I4 N4 O4'
_cell_volume   1094.08313695
_cell_formula_units_Z   4
loop_
 _symmetry_equiv_pos_site_id
 _symmetry_equiv_pos_as_xyz
  1  'x, y, z'
loop_
 _atom_site_type_symbol
 _atom_site_label
 _atom_site_symmetry_multiplicity
 _atom_site_fract_x
 _atom_site_fract_y
 _atom_site_fract_z
 _atom_site_occupancy
 _atom_site_hle17_bader_spin_density
 _atom_site_hle17_ddec_charge
 _atom_site_hle17_ddec_spin_density
 _atom_site_hle17_ddec_sum_bond_order
 _atom_site_hle17_magmom
 _atom_site_hse06_10hf_bader_spin_density
 _atom_site_hse06_10hf_ddec_charge
 _atom_site_hse06_10hf_ddec_spin_density
 _atom_site_hse06_10hf_ddec_sum_bond_order
 _atom_site_hse06_10hf_magmom
 _atom_site_hse06_bader_spin_density
 _atom_site_hse06_ddec_charge
 _atom_site_hse06_ddec_spin_density
 _atom_site_hse06_ddec_sum_bond_order
 _atom_site_hse06_magmom
 _atom_site_pbe_bader_spin_density
 _atom_site_pbe_cm5_charge
 _atom_site_pbe_ddec_charge
 _atom_site_pbe_ddec_spin_density
 _atom_site_pbe_ddec_sum_bond_order
 _atom_site_pbe_magmom
Cu  Cu0  1  0.73826088  0.96851909  0.46654840  1  0  0.218034  0  2.239784  0  0  0.140127  0  2.725451  0  0  0.151404  0  2.669972  0  0  0.243296  0.135038  0  2.762092  0
Cu  Cu1  1  0.76174104  0.53147576  0.96655015  1  0  0.21804  0  2.239877  0  0  0.140165  0  2.725546  0  0  0.151465  0  2.670075  0  0  0.243318  0.135058  0  2.762136  0
Cu  Cu2  1  0.26173708  0.03147317  0.53345325  1  0  0.218085  0  2.239836  0  0  0.140168  0  2.725493  0  0  0.151447  0  2.670022  0  0  0.243303  0.135079  0  2.762081  0
Cu  Cu3  1  0.23826867  0.46852283  0.03345028  1  0  0.217982  0  2.239994  0  0  0.140081  0  2.725674  0  0  0.15133  0  2.670203  0  0  0.243301  0.134979  0  2.762289  0
H  H4  1  0.00518416  0.87513819  0.36054915  1  0  0.081923  0  0.9512  0  0  0.087017  0  1.022381  0  0  0.090671  0  1.018694  0  0  0.107603  0.084304  0  1.02508  0
H  H5  1  0.49482051  0.62487014  0.86055367  1  0  0.082036  0  0.951093  0  0  0.087113  0  1.022293  0  0  0.090769  0  1.018605  0  0  0.107616  0.08439  0  1.024988  0
H  H6  1  0.99479205  0.12486390  0.63944921  1  0  0.082047  0  0.951046  0  0  0.087067  0  1.022279  0  0  0.090723  0  1.018593  0  0  0.107602  0.084349  0  1.024974  0
H  H7  1  0.50520696  0.37513838  0.13944717  1  0  0.082087  0  0.951073  0  0  0.087127  0  1.022295  0  0  0.090782  0  1.01861  0  0  0.1076  0.084405  0  1.02499  0
H  H8  1  0.02863061  0.93485556  0.26288777  1  0  0.109988  0  0.964525  0  0  0.116341  0  1.032524  0  0  0.119702  0  1.031031  0  0  0.107787  0.114014  0  1.033631  0
H  H9  1  0.47135127  0.56515631  0.76289216  1  0  0.109907  0  0.964509  0  0  0.116231  0  1.032566  0  0  0.119589  0  1.031077  0  0  0.107733  0.113908  0  1.033678  0
H  H10  1  0.97133680  0.06515010  0.73711018  1  0  0.109955  0  0.964424  0  0  0.116285  0  1.032462  0  0  0.119645  0  1.030967  0  0  0.107778  0.113966  0  1.033571  0
H  H11  1  0.52865232  0.43485484  0.23710909  1  0  0.109993  0  0.964551  0  0  0.116341  0  1.03255  0  0  0.119698  0  1.031063  0  0  0.107762  0.114017  0  1.033659  0
H  H12  1  0.50165410  0.23617210  0.30648357  1  0  0.107944  0  0.960121  0  0  0.116668  0  1.024033  0  0  0.119814  0  1.023399  0  0  0.107538  0.114416  0  1.024631  0
H  H13  1  0.99830987  0.26382621  0.80648455  1  0  0.108101  0  0.960075  0  0  0.116743  0  1.024059  0  0  0.119891  0  1.023422  0  0  0.107533  0.114495  0  1.024661  0
H  H14  1  0.49832845  0.76382641  0.69351561  1  0  0.107995  0  0.960164  0  0  0.116665  0  1.024127  0  0  0.119812  0  1.023492  0  0  0.107502  0.114416  0  1.024728  0
H  H15  1  0.00167842  0.73617501  0.19351382  1  0  0.108079  0  0.960071  0  0  0.116736  0  1.02405  0  0  0.119884  0  1.023415  0  0  0.107538  0.114486  0  1.024651  0
H  H16  1  0.47946532  0.15820081  0.40321077  1  0  0.075487  0  0.962122  0  0  0.080202  0  1.036317  0  0  0.083919  0  1.032575  0  0  0.103666  0.077112  0  1.03957  0
H  H17  1  0.02051245  0.34178500  0.90321264  1  0  0.075496  0  0.96215  0  0  0.080263  0  1.036277  0  0  0.083986  0  1.032527  0  0  0.103737  0.077169  0  1.039526  0
H  H18  1  0.52050714  0.84178868  0.59678801  1  0  0.075492  0  0.962086  0  0  0.080268  0  1.036235  0  0  0.083991  0  1.032482  0  0  0.103715  0.077176  0  1.039488  0
H  H19  1  0.97947563  0.65820723  0.09678737  1  0  0.075511  0  0.962034  0  0  0.080227  0  1.036199  0  0  0.083947  0  1.032454  0  0  0.103725  0.077136  0  1.039452  0
H  H20  1  0.52809948  0.90965501  0.20315530  1  0  0.09118  0  0.971012  0  0  0.097108  0  1.042949  0  0  0.100016  0  1.041252  0  0  0.098487  0.095068  0  1.04415  0
H  H21  1  0.97190407  0.59035272  0.70315724  1  0  0.091174  0  0.970987  0  0  0.097103  0  1.042932  0  0  0.10001  0  1.041236  0  0  0.098484  0.095062  0  1.044133  0
H  H22  1  0.47190443  0.09034896  0.79684595  1  0  0.091121  0  0.970913  0  0  0.097061  0  1.042852  0  0  0.099963  0  1.041172  0  0  0.098457  0.095021  0  1.044053  0
H  H23  1  0.02809436  0.40964943  0.29683865  1  0  0.091178  0  0.970983  0  0  0.097039  0  1.043021  0  0  0.099962  0  1.041284  0  0  0.098471  0.094995  0  1.044233  0
H  H24  1  0.57121614  0.79028330  0.11784403  1  0  0.078937  0  0.985286  0  0  0.088521  0  1.050848  0  0  0.090305  0  1.05184  0  0  0.091656  0.087217  0  1.050236  0
H  H25  1  0.92878501  0.70972635  0.61784352  1  0  0.07895  0  0.985305  0  0  0.08856  0  1.050836  0  0  0.090348  0  1.051833  0  0  0.091619  0.087257  0  1.050225  0
H  H26  1  0.42878831  0.20972247  0.88215598  1  0  0.078958  0  0.985347  0  0  0.088543  0  1.050892  0  0  0.090331  0  1.051887  0  0  0.091616  0.087239  0  1.05028  0
H  H27  1  0.07121702  0.29027132  0.38214990  1  0  0.07893  0  0.985281  0  0  0.088504  0  1.05086  0  0  0.090292  0  1.051855  0  0  0.091634  0.087201  0  1.050247  0
H  H28  1  0.92675481  0.87173531  0.04089807  1  0  0.080721  0  0.987604  0  0  0.088185  0  1.057226  0  0  0.09146  0  1.055221  0  0  0.085694  0.085599  0  1.05895  0
H  H29  1  0.57324999  0.62826915  0.54089449  1  0  0.080773  0  0.987497  0  0  0.088222  0  1.057143  0  0  0.091501  0  1.05513  0  0  0.085713  0.085638  0  1.058866  0
H  H30  1  0.07327620  0.12827682  0.95910482  1  0  0.080773  0  0.987496  0  0  0.088171  0  1.057193  0  0  0.091449  0  1.055183  0  0  0.085665  0.085584  0  1.058922  0
H  H31  1  0.42674576  0.37172401  0.45909893  1  0  0.080749  0  0.987501  0  0  0.08817  0  1.057175  0  0  0.091444  0  1.05517  0  0  0.085665  0.085585  0  1.058898  0
H  H32  1  0.21727882  0.08149484  0.04599908  1  0  0.088315  0  0.967648  0  0  0.099136  0  1.028208  0  0  0.101904  0  1.027751  0  0  0.090689  0.096927  0  1.028922  0
H  H33  1  0.28275801  0.41850226  0.54599348  1  0  0.088285  0  0.967577  0  0  0.099128  0  1.028111  0  0  0.101905  0  1.027659  0  0  0.090627  0.096915  0  1.028837  0
H  H34  1  0.78275498  0.91851011  0.95400711  1  0  0.088253  0  0.967632  0  0  0.099108  0  1.028156  0  0  0.101884  0  1.027706  0  0  0.090639  0.096899  0  1.028872  0
H  H35  1  0.71724568  0.58149271  0.45400612  1  0  0.088286  0  0.967619  0  0  0.099119  0  1.028174  0  0  0.101892  0  1.027722  0  0  0.090665  0.096911  0  1.028888  0
H  H36  1  0.14113362  0.20723766  0.12824674  1  0  0.09289  0  0.966412  0  0  0.097749  0  1.040515  0  0  0.100921  0  1.037981  0  0  0.097026  0.095406  0  1.042497  0
H  H37  1  0.35885997  0.29277086  0.62824738  1  0  0.092882  0  0.966346  0  0  0.097721  0  1.040467  0  0  0.100895  0  1.037927  0  0  0.097016  0.095387  0  1.042428  0
H  H38  1  0.85886669  0.79277079  0.87175739  1  0  0.09284  0  0.966321  0  0  0.097693  0  1.040455  0  0  0.100859  0  1.037932  0  0  0.09702  0.095366  0  1.042399  0
H  H39  1  0.64113299  0.70722947  0.37175180  1  0  0.092896  0  0.966363  0  0  0.097723  0  1.040493  0  0  0.100895  0  1.037955  0  0  0.096997  0.095389  0  1.042453  0
C  C40  1  0.88647793  0.95264834  0.34690697  1  0  0.136984  0  3.64585  0  0  0.105249  0  3.89984  0  0  0.111857  0  3.914795  0  0  0.046405  0.10087  0  3.890223  0
C  C41  1  0.61353414  0.54735983  0.84690999  1  0  0.136747  0  3.645935  0  0  0.105004  0  3.899971  0  0  0.111615  0  3.914928  0  0  0.046325  0.100637  0  3.890333  0
C  C42  1  0.11352378  0.04735652  0.65309222  1  0  0.136842  0  3.645918  0  0  0.105183  0  3.89984  0  0  0.11179  0  3.914791  0  0  0.04639  0.100809  0  3.890207  0
C  C43  1  0.38648211  0.45264417  0.15309043  1  0  0.136819  0  3.64603  0  0  0.10511  0  3.900011  0  0  0.111717  0  3.914967  0  0  0.046341  0.100745  0  3.890375  0
C  C44  1  0.90008652  0.98741406  0.29184437  1  0  -0.113521  0  3.689397  0  0  -0.134896  0  3.937975  0  0  -0.139927  0  3.958321  0  0  -0.072536  -0.131818  0  3.924556  0
C  C45  1  0.59992083  0.51259539  0.79184609  1  0  -0.113342  0  3.689151  0  0  -0.134681  0  3.937724  0  0  -0.139703  0  3.958051  0  0  -0.072484  -0.131613  0  3.924299  0
C  C46  1  0.09989189  0.01258714  0.70815440  1  0  -0.113406  0  3.689338  0  0  -0.134753  0  3.937914  0  0  -0.139785  0  3.958273  0  0  -0.072561  -0.131688  0  3.92449  0
C  C47  1  0.40009102  0.48741039  0.20815351  1  0  -0.113572  0  3.689365  0  0  -0.134902  0  3.937869  0  0  -0.139933  0  3.958217  0  0  -0.072501  -0.131828  0  3.924446  0
C  C48  1  0.76376383  0.09161888  0.27607752  1  0  0.005549  0  3.737368  0  0  0.019839  0  3.968639  0  0  0.019397  0  3.988434  0  0  -0.004519  0.020212  0  3.955497  0
C  C49  1  0.73620051  0.40838185  0.77607715  1  0  0.005451  0  3.737345  0  0  0.019775  0  3.968658  0  0  0.019333  0  3.98845  0  0  -0.004539  0.02015  0  3.955504  0
C  C50  1  0.23618307  0.90837593  0.72392414  1  0  0.005494  0  3.737178  0  0  0.01977  0  3.968587  0  0  0.019321  0  3.988377  0  0  -0.00447  0.020143  0  3.955431  0
C  C51  1  0.26379299  0.59162029  0.22392081  1  0  0.005584  0  3.737234  0  0  0.019908  0  3.968584  0  0  0.019461  0  3.988378  0  0  -0.004542  0.020281  0  3.955441  0
C  C52  1  0.61017176  0.15448030  0.31688315  1  0  -0.12526  0  3.722142  0  0  -0.145001  0  3.9662  0  0  -0.150379  0  3.987091  0  0  -0.079038  -0.141611  0  3.952453  0
C  C53  1  0.88980441  0.34552263  0.81688393  1  0  -0.125524  0  3.722215  0  0  -0.145244  0  3.966314  0  0  -0.150622  0  3.987204  0  0  -0.079083  -0.141862  0  3.952564  0
C  C54  1  0.38979269  0.84551546  0.68311809  1  0  -0.125265  0  3.722065  0  0  -0.14495  0  3.966149  0  0  -0.150326  0  3.987037  0  0  -0.079006  -0.141565  0  3.952395  0
C  C55  1  0.11019128  0.65447861  0.18311608  1  0  -0.125505  0  3.722123  0  0  -0.145236  0  3.966198  0  0  -0.150616  0  3.987089  0  0  -0.079082  -0.141852  0  3.952454  0
C  C56  1  0.59904114  0.11215228  0.37049816  1  0  0.107148  0  3.696272  0  0  0.081266  0  3.944614  0  0  0.086697  0  3.961066  0  0  0.034751  0.077492  0  3.934342  0
C  C57  1  0.90094569  0.38784488  0.87050066  1  0  0.107225  0  3.696194  0  0  0.081391  0  3.944384  0  0  0.08682  0  3.960836  0  0  0.034696  0.077617  0  3.93411  0
C  C58  1  0.40095101  0.88784536  0.62950185  1  0  0.107136  0  3.696243  0  0  0.081175  0  3.944549  0  0  0.086602  0  3.961009  0  0  0.03467  0.077404  0  3.934264  0
C  C59  1  0.09905361  0.61215188  0.12949935  1  0  0.107246  0  3.696074  0  0  0.081447  0  3.944259  0  0  0.086881  0  3.960698  0  0  0.034744  0.077667  0  3.933997  0
C  C60  1  0.80208386  0.14508581  0.21960897  1  0  0.382634  0  3.714477  0  0  0.365826  0  3.968538  0  0  0.388812  0  3.968899  0  0  0.160707  0.349558  0  3.968749  0
C  C61  1  0.69789757  0.35491535  0.71960843  1  0  0.382895  0  3.714153  0  0  0.365934  0  3.968419  0  0  0.388923  0  3.968773  0  0  0.160831  0.349667  0  3.968619  0
C  C62  1  0.19788881  0.85491267  0.78039393  1  0  0.382663  0  3.714402  0  0  0.365706  0  3.968742  0  0  0.388708  0  3.969071  0  0  0.160697  0.34944  0  3.968939  0
C  C63  1  0.30210279  0.64508501  0.28038993  1  0  0.383061  0  3.714112  0  0  0.366008  0  3.968522  0  0  0.389012  0  3.968851  0  0  0.160795  0.34974  0  3.968733  0
C  C64  1  0.83653498  0.06652208  0.17136144  1  0  -0.053135  0  3.791388  0  0  -0.03394  0  4.02276  0  0  -0.043346  0  4.049997  0  0  -0.023321  -0.027163  0  4.003921  0
C  C65  1  0.66348270  0.43348324  0.67136131  1  0  -0.05293  0  3.791159  0  0  -0.033668  0  4.022484  0  0  -0.043076  0  4.04972  0  0  -0.023247  -0.026893  0  4.003643  0
C  C66  1  0.16348101  0.93348102  0.82864063  1  0  -0.052795  0  3.791134  0  0  -0.033615  0  4.022606  0  0  -0.043012  0  4.049816  0  0  -0.023263  -0.026841  0  4.003767  0
C  C67  1  0.33652454  0.56651534  0.32863705  1  0  -0.053161  0  3.791172  0  0  -0.03391  0  4.022542  0  0  -0.043332  0  4.049792  0  0  -0.0233  -0.027134  0  4.003704  0
C  C68  1  0.67854408  0.94780630  0.16877328  1  0  -0.088679  0  3.734721  0  0  -0.10947  0  3.981568  0  0  -0.110374  0  4.004658  0  0  -0.086019  -0.108434  0  3.965305  0
C  C69  1  0.82147541  0.55219937  0.66877108  1  0  -0.088714  0  3.73462  0  0  -0.109538  0  3.981465  0  0  -0.110437  0  4.004548  0  0  -0.086067  -0.108504  0  3.965203  0
C  C70  1  0.32147878  0.05219502  0.83123085  1  0  -0.08867  0  3.734557  0  0  -0.109457  0  3.981407  0  0  -0.110364  0  4.004491  0  0  -0.085986  -0.108423  0  3.965145  0
C  C71  1  0.17853457  0.44780012  0.33122440  1  0  -0.088651  0  3.734677  0  0  -0.109413  0  3.981527  0  0  -0.11031  0  4.00463  0  0  -0.086063  -0.10838  0  3.965262  0
C  C72  1  0.70438362  0.88027236  0.12109885  1  0  -0.075663  0  3.774952  0  0  -0.084725  0  4.019453  0  0  -0.088895  0  4.043004  0  0  -0.095131  -0.081887  0  4.003485  0
C  C73  1  0.79564612  0.61973290  0.62109625  1  0  -0.075851  0  3.775195  0  0  -0.08491  0  4.019632  0  0  -0.08909  0  4.043192  0  0  -0.095147  -0.082071  0  4.003664  0
C  C74  1  0.29564691  0.11972988  0.87890569  1  0  -0.075797  0  3.775077  0  0  -0.084827  0  4.019504  0  0  -0.089006  0  4.043062  0  0  -0.095077  -0.081987  0  4.003537  0
C  C75  1  0.20435892  0.38026658  0.37889841  1  0  -0.07567  0  3.775261  0  0  -0.0847  0  4.019676  0  0  -0.088879  0  4.043238  0  0  -0.095065  -0.081861  0  4.003706  0
C  C76  1  0.89933118  0.92745002  0.07708649  1  0  -0.044714  0  3.729763  0  0  -0.059229  0  3.97348  0  0  -0.058869  0  3.992551  0  0  -0.083461  -0.059635  0  3.961179  0
C  C77  1  0.60070370  0.57255306  0.57708127  1  0  -0.044561  0  3.729604  0  0  -0.059083  0  3.97332  0  0  -0.058721  0  3.992394  0  0  -0.083373  -0.059491  0  3.96102  0
C  C78  1  0.10068754  0.07255399  0.92291928  1  0  -0.044611  0  3.729514  0  0  -0.059092  0  3.973256  0  0  -0.058729  0  3.992327  0  0  -0.083417  -0.0595  0  3.960959  0
C  C79  1  0.39931234  0.42744195  0.42291256  1  0  -0.04473  0  3.729833  0  0  -0.059218  0  3.973576  0  0  -0.058857  0  3.992653  0  0  -0.083463  -0.059626  0  3.961272  0
C  C80  1  0.06017340  0.04467786  0.07977793  1  0  -0.063598  0  3.75094  0  0  -0.072045  0  3.992896  0  0  -0.075565  0  4.014168  0  0  -0.090405  -0.070116  0  3.979314  0
C  C81  1  0.43985512  0.45532223  0.57977320  1  0  -0.063459  0  3.751086  0  0  -0.071946  0  3.992984  0  0  -0.075483  0  4.01427  0  0  -0.090307  -0.070018  0  3.979401  0
C  C82  1  0.93985687  0.95532349  0.92022826  1  0  -0.063517  0  3.751065  0  0  -0.071996  0  3.992969  0  0  -0.075532  0  4.014251  0  0  -0.090313  -0.070069  0  3.979393  0
C  C83  1  0.56015544  0.54467096  0.42022476  1  0  -0.063345  0  3.751094  0  0  -0.071846  0  3.993009  0  0  -0.075377  0  4.01429  0  0  -0.09026  -0.069918  0  3.979427  0
C  C84  1  0.02274875  0.11486282  0.12610562  1  0  -0.057608  0  3.711756  0  0  -0.082796  0  3.96243  0  0  -0.081706  0  3.982855  0  0  -0.080721  -0.083635  0  3.948889  0
C  C85  1  0.47725478  0.38514661  0.62610174  1  0  -0.05788  0  3.712165  0  0  -0.08301  0  3.962749  0  0  -0.081919  0  3.983178  0  0  -0.080823  -0.083845  0  3.949207  0
C  C86  1  0.97727379  0.88514569  0.87390015  1  0  -0.057801  0  3.711952  0  0  -0.08295  0  3.962612  0  0  -0.08186  0  3.983031  0  0  -0.080812  -0.083788  0  3.94908  0
C  C87  1  0.52275246  0.61485197  0.37389580  1  0  -0.057908  0  3.712198  0  0  -0.083003  0  3.962775  0  0  -0.081912  0  3.983209  0  0  -0.080815  -0.08384  0  3.949236  0
I  I88  1  0.18543434  0.82010904  0.48290088  1  0  -0.325712  0  1.766288  0  0  -0.270346  0  2.226863  0  0  -0.288447  0  2.18616  0  0  -0.151007  -0.256165  0  2.254745  0
I  I89  1  0.31456372  0.67988870  0.98290128  1  0  -0.325665  0  1.76625  0  0  -0.270337  0  2.226867  0  0  -0.288447  0  2.186178  0  0  -0.151016  -0.256142  0  2.254713  0
I  I90  1  0.81455154  0.17988409  0.51709995  1  0  -0.325761  0  1.766375  0  0  -0.270407  0  2.226951  0  0  -0.28851  0  2.186257  0  0  -0.151029  -0.256219  0  2.254803  0
I  I91  1  0.68543284  0.32010715  0.01709873  1  0  -0.325688  0  1.766227  0  0  -0.270341  0  2.226801  0  0  -0.288439  0  2.186106  0  0  -0.151006  -0.256143  0  2.254658  0
N  N92  1  0.73976544  0.01356703  0.38603102  1  0  -0.251806  0  3.342366  0  0  -0.178535  0  3.62296  0  0  -0.190201  0  3.632524  0  0  -0.354039  -0.171894  0  3.617099  0
N  N93  1  0.76022147  0.48643387  0.88603450  1  0  -0.251853  0  3.342603  0  0  -0.178617  0  3.623212  0  0  -0.19029  0  3.632797  0  0  -0.354033  -0.171965  0  3.617305  0
N  N94  1  0.26021904  0.98642969  0.61396693  1  0  -0.251932  0  3.342496  0  0  -0.1786  0  3.623003  0  0  -0.190265  0  3.632569  0  0  -0.354032  -0.171955  0  3.617098  0
N  N95  1  0.23977369  0.51356557  0.11396509  1  0  -0.251913  0  3.342705  0  0  -0.178643  0  3.623246  0  0  -0.190303  0  3.632804  0  0  -0.354027  -0.171996  0  3.617363  0
O  O96  1  0.81185532  0.25582153  0.21450337  1  0  -0.45806  0  1.923686  0  0  -0.412254  0  2.131988  0  0  -0.429176  0  2.128832  0  0  -0.255087  -0.400881  0  2.134441  0
O  O97  1  0.68811715  0.24417596  0.71450187  1  0  -0.458149  0  1.923454  0  0  -0.412291  0  2.131813  0  0  -0.42921  0  2.128659  0  0  -0.25513  -0.400921  0  2.134265  0
O  O98  1  0.18812642  0.74417428  0.78550117  1  0  -0.458098  0  1.923577  0  0  -0.412214  0  2.131935  0  0  -0.42914  0  2.128775  0  0  -0.255105  -0.400845  0  2.134384  0
O  O99  1  0.31186900  0.75581806  0.28549649  1  0  -0.458277  0  1.923659  0  0  -0.412356  0  2.132027  0  0  -0.429279  0  2.12886  0  0  -0.255115  -0.400984  0  2.134482  0
