# generated using pymatgen
data_Cd2PH14C5NO7
_symmetry_space_group_name_H-M   'P 1'
_cell_length_a   6.95654362
_cell_length_b   7.95108320
_cell_length_c   9.87747165
_cell_angle_alpha   99.85948958
_cell_angle_beta   102.88884306
_cell_angle_gamma   92.38737015
_symmetry_Int_Tables_number   1
_chemical_formula_structural   Cd2PH14C5NO7
_chemical_formula_sum   'Cd4 P2 H28 C10 N2 O14'
_cell_volume   522.89540594
_cell_formula_units_Z   2
loop_
 _symmetry_equiv_pos_site_id
 _symmetry_equiv_pos_as_xyz
  1  'x, y, z'
loop_
 _atom_site_type_symbol
 _atom_site_label
 _atom_site_symmetry_multiplicity
 _atom_site_fract_x
 _atom_site_fract_y
 _atom_site_fract_z
 _atom_site_occupancy
 _atom_site_hle17_bader_spin_density
 _atom_site_hle17_ddec_charge
 _atom_site_hle17_ddec_spin_density
 _atom_site_hle17_ddec_sum_bond_order
 _atom_site_hle17_magmom
 _atom_site_hse06_10hf_bader_spin_density
 _atom_site_hse06_10hf_ddec_charge
 _atom_site_hse06_10hf_ddec_spin_density
 _atom_site_hse06_10hf_ddec_sum_bond_order
 _atom_site_hse06_10hf_magmom
 _atom_site_hse06_bader_spin_density
 _atom_site_hse06_ddec_charge
 _atom_site_hse06_ddec_spin_density
 _atom_site_hse06_ddec_sum_bond_order
 _atom_site_hse06_magmom
 _atom_site_pbe_bader_spin_density
 _atom_site_pbe_cm5_charge
 _atom_site_pbe_ddec_charge
 _atom_site_pbe_ddec_spin_density
 _atom_site_pbe_ddec_sum_bond_order
 _atom_site_pbe_magmom
Cd  Cd0  1  0.49999674  0.49999264  0.99999708  1  0  1.299197  0  1.579204  0  0  1.135741  0  2.001235  0  0  1.189673  0  1.945713  0  0  0.767721  1.096564  0  2.039725  0
Cd  Cd1  1  0.21885183  0.12798050  0.11692921  1  0  1.261321  0  1.641317  0  0  1.086387  0  2.058657  0  0  1.140802  0  2.006348  0  0  0.787117  1.048133  0  2.094159  0
Cd  Cd2  1  0.78116144  0.87202320  0.88307999  1  0  1.261386  0  1.641291  0  0  1.086404  0  2.058671  0  0  1.140819  0  2.006359  0  0  0.787121  1.048177  0  2.094135  0
Cd  Cd3  1  0.00000137  0.50000555  0.00000203  1  0  1.282483  0  1.626788  0  0  1.120114  0  2.051164  0  0  1.175224  0  1.994175  0  0  0.759373  1.080715  0  2.090127  0
P  P4  1  0.76252876  0.21491959  0.15571286  1  0  1.475042  0  4.925229  0  0  1.312329  0  5.425905  0  0  1.363463  0  5.389323  0  0  0.310997  1.276759  0  5.450177  0
P  P5  1  0.23747047  0.78507799  0.84429531  1  0  1.475281  0  4.925228  0  0  1.312563  0  5.425974  0  0  1.363619  0  5.389561  0  0  0.310984  1.277013  0  5.450185  0
H  H6  1  0.91530288  0.17604429  0.80327397  1  0  0.412262  0  0.915463  0  0  0.374526  0  0.989514  0  0  0.387319  0  0.971851  0  0  0.270753  0.36551  0  1.001949  0
H  H7  1  0.08469762  0.82396349  0.19673070  1  0  0.412211  0  0.915524  0  0  0.374467  0  0.989586  0  0  0.387261  0  0.971921  0  0  0.27074  0.365452  0  1.002018  0
H  H8  1  0.15239937  0.25393348  0.81112410  1  0  0.418148  0  0.866088  0  0  0.392866  0  0.930599  0  0  0.402647  0  0.916015  0  0  0.291309  0.385901  0  0.940986  0
H  H9  1  0.84760136  0.74606401  0.18887722  1  0  0.418262  0  0.865881  0  0  0.392933  0  0.930521  0  0  0.402718  0  0.915929  0  0  0.291358  0.385964  0  0.940917  0
H  H10  1  0.55027362  0.18048030  0.77997942  1  0  0.416606  0  0.891804  0  0  0.380565  0  0.967164  0  0  0.392614  0  0.949843  0  0  0.278142  0.372075  0  0.979322  0
H  H11  1  0.44971268  0.81950710  0.22000611  1  0  0.41657  0  0.891805  0  0  0.380549  0  0.967164  0  0  0.392602  0  0.949838  0  0  0.278188  0.372059  0  0.97932  0
H  H12  1  0.42137458  0.10513512  0.86293686  1  0  0.414339  0  0.876989  0  0  0.386575  0  0.951208  0  0  0.396756  0  0.936077  0  0  0.288904  0.379169  0  0.960458  0
H  H13  1  0.57861080  0.89484455  0.13704244  1  0  0.414318  0  0.87682  0  0  0.386549  0  0.951197  0  0  0.396731  0  0.936066  0  0  0.288913  0.379143  0  0.960306  0
H  H14  1  0.87036124  0.30532485  0.41269105  1  0  0.097554  0  0.959431  0  0  0.110037  0  1.026367  0  0  0.112005  0  1.025556  0  0  0.10013  0.108532  0  1.026957  0
H  H15  1  0.12964421  0.69467512  0.58731338  1  0  0.097506  0  0.95949  0  0  0.110017  0  1.026403  0  0  0.111992  0  1.025588  0  0  0.100123  0.108512  0  1.026994  0
H  H16  1  0.90084088  0.08830925  0.35003251  1  0  0.114016  0  0.961471  0  0  0.129513  0  1.020056  0  0  0.131233  0  1.01982  0  0  0.115226  0.128242  0  1.020164  0
H  H17  1  0.09916459  0.91169069  0.64996786  1  0  0.114046  0  0.96142  0  0  0.129519  0  1.020039  0  0  0.131243  0  1.019801  0  0  0.115224  0.128249  0  1.020148  0
H  H18  1  0.23771501  0.49890340  0.47287101  1  0  0.052287  0  0.944751  0  0  0.07094  0  1.010112  0  0  0.071496  0  1.00976  0  0  0.094295  0.070597  0  1.010438  0
H  H19  1  0.76228536  0.50110306  0.52712941  1  0  0.05232  0  0.944677  0  0  0.070942  0  1.010071  0  0  0.0715  0  1.009715  0  0  0.094279  0.070599  0  1.01039  0
H  H20  1  0.05363070  0.50533947  0.31628596  1  0  0.0834  0  0.944849  0  0  0.099998  0  1.007599  0  0  0.101228  0  1.006637  0  0  0.106356  0.098881  0  1.008609  0
H  H21  1  0.94637003  0.49465802  0.68371536  1  0  0.083436  0  0.944747  0  0  0.100006  0  1.007526  0  0  0.10124  0  1.006558  0  0  0.106349  0.098859  0  1.008569  0
H  H22  1  0.37668568  0.62664013  0.30590250  1  0  0.046703  0  0.961201  0  0  0.066674  0  1.024574  0  0  0.066015  0  1.025388  0  0  0.094567  0.067008  0  1.024155  0
H  H23  1  0.62331144  0.37336382  0.69409605  1  0  0.046708  0  0.961276  0  0  0.066686  0  1.024615  0  0  0.066025  0  1.025434  0  0  0.094568  0.067021  0  1.024196  0
H  H24  1  0.48519552  0.43049752  0.32527166  1  0  0.035588  0  0.941901  0  0  0.050567  0  1.016032  0  0  0.050483  0  1.015112  0  0  0.086355  0.05052  0  1.016794  0
H  H25  1  0.51480469  0.56950768  0.67473058  1  0  0.035644  0  0.941855  0  0  0.050598  0  1.016004  0  0  0.050518  0  1.015082  0  0  0.086364  0.050552  0  1.016767  0
H  H26  1  0.23845501  0.22045711  0.55148247  1  0  0.060695  0  0.924232  0  0  0.078341  0  0.989659  0  0  0.079437  0  0.988414  0  0  0.093699  0.077259  0  0.990818  0
H  H27  1  0.76155030  0.77954156  0.44851872  1  0  0.060717  0  0.924141  0  0  0.078335  0  0.989609  0  0  0.079433  0  0.988365  0  0  0.09368  0.077249  0  0.99077  0
H  H28  1  0.41709007  0.22396174  0.44776994  1  0  0.067216  0  0.938743  0  0  0.083929  0  1.005257  0  0  0.084499  0  1.005088  0  0  0.103813  0.083281  0  1.005659  0
H  H29  1  0.58291556  0.77603949  0.55223165  1  0  0.067218  0  0.938795  0  0  0.083956  0  1.005275  0  0  0.084528  0  1.005105  0  0  0.103837  0.083308  0  1.005679  0
H  H30  1  0.35315292  0.93587606  0.48684550  1  0  0.036425  0  0.945653  0  0  0.056805  0  1.010284  0  0  0.056076  0  1.010809  0  0  0.090264  0.057201  0  1.010077  0
H  H31  1  0.64684961  0.06412395  0.51315543  1  0  0.036429  0  0.945647  0  0  0.056805  0  1.010282  0  0  0.056077  0  1.010804  0  0  0.090262  0.057201  0  1.010074  0
H  H32  1  0.09685432  0.93514931  0.41981901  1  0  0.011346  0  0.966166  0  0  0.027622  0  1.041711  0  0  0.02723  0  1.041217  0  0  0.080728  0.02803  0  1.04166  0
H  H33  1  0.90314378  0.06485081  0.58018426  1  0  0.01134  0  0.966256  0  0  0.027628  0  1.041767  0  0  0.027235  0  1.041275  0  0  0.080731  0.028037  0  1.041714  0
C  C34  1  0.92255406  0.21890026  0.33100123  1  0  -0.337396  0  3.670571  0  0  -0.373433  0  3.916955  0  0  -0.379007  0  3.927302  0  0  -0.085213  -0.369445  0  3.909687  0
C  C35  1  0.07745140  0.78109970  0.66900117  1  0  -0.337406  0  3.670469  0  0  -0.373475  0  3.916887  0  0  -0.37905  0  3.927243  0  0  -0.085204  -0.369488  0  3.909616  0
C  C36  1  0.18711844  0.44422819  0.35873476  1  0  -0.056819  0  3.659762  0  0  -0.11606  0  3.922329  0  0  -0.113936  0  3.934863  0  0  -0.083293  -0.117412  0  3.913743  0
C  C37  1  0.81288113  0.55577190  0.64126772  1  0  -0.056853  0  3.659683  0  0  -0.116057  0  3.922197  0  0  -0.113934  0  3.93473  0  0  -0.083271  -0.11738  0  3.913602  0
C  C38  1  0.34637139  0.48645724  0.28299932  1  0  0.119522  0  3.736861  0  0  0.049643  0  4.016429  0  0  0.058938  0  4.026813  0  0  -0.103787  0.043256  0  4.008973  0
C  C39  1  0.65362720  0.51354669  0.71700048  1  0  0.119474  0  3.736982  0  0  0.049614  0  4.016524  0  0  0.058905  0  4.026913  0  0  -0.10378  0.043227  0  4.009063  0
C  C40  1  0.26409004  0.17874923  0.44437566  1  0  -0.055301  0  3.661251  0  0  -0.115825  0  3.929911  0  0  -0.113356  0  3.9426  0  0  -0.081132  -0.117395  0  3.921359  0
C  C41  1  0.73591409  0.82125206  0.55562873  1  0  -0.055327  0  3.661314  0  0  -0.115869  0  3.92999  0  0  -0.113405  0  3.942682  0  0  -0.081175  -0.117436  0  3.92144  0
C  C42  1  0.24230948  0.98293176  0.40608899  1  0  0.133258  0  3.74974  0  0  0.065  0  4.030505  0  0  0.073468  0  4.039924  0  0  -0.094394  0.059152  0  4.023692  0
C  C43  1  0.75769305  0.01706825  0.59391193  1  0  0.133246  0  3.74981  0  0  0.065009  0  4.03054  0  0  0.073478  0  4.039959  0  0  -0.094389  0.059163  0  4.023727  0
N  N44  1  0.13377069  0.25868854  0.33851577  1  0  -0.192963  0  3.315763  0  0  -0.092892  0  3.5445  0  0  -0.110752  0  3.569203  0  0  -0.344147  -0.080788  0  3.527323  0
N  N45  1  0.86623214  0.74131405  0.66148756  1  0  -0.193094  0  3.315899  0  0  -0.092935  0  3.544448  0  0  -0.110785  0  3.569147  0  0  -0.344158  -0.080833  0  3.527264  0
O  O46  1  0.86572136  0.10314607  0.05500641  1  0  -0.893852  0  2.119272  0  0  -0.785266  0  2.402908  0  0  -0.817464  0  2.381298  0  0  -0.395814  -0.762226  0  2.416727  0
O  O47  1  0.13428966  0.89686269  0.94498994  1  0  -0.893833  0  2.119447  0  0  -0.785342  0  2.40321  0  0  -0.817538  0  2.381621  0  0  -0.395775  -0.762285  0  2.417  0
O  O48  1  0.56062170  0.13417563  0.15705142  1  0  -0.885438  0  2.015168  0  0  -0.794351  0  2.291852  0  0  -0.823093  0  2.269345  0  0  -0.387748  -0.773987  0  2.30681  0
O  O49  1  0.43938966  0.86582419  0.84294988  1  0  -0.88556  0  2.01485  0  0  -0.794461  0  2.291517  0  0  -0.823186  0  2.269016  0  0  -0.387819  -0.774104  0  2.306488  0
O  O50  1  0.76467722  0.40211800  0.12941264  1  0  -0.91015  0  2.039643  0  0  -0.807396  0  2.324195  0  0  -0.839375  0  2.300959  0  0  -0.395414  -0.784519  0  2.339288  0
O  O51  1  0.23531904  0.59789114  0.87058949  1  0  -0.910226  0  2.03985  0  0  -0.807417  0  2.324317  0  0  -0.839414  0  2.301168  0  0  -0.395363  -0.784544  0  2.339406  0
O  O52  1  0.28528986  0.42384822  0.13459570  1  0  -0.776254  0  2.116749  0  0  -0.656432  0  2.395518  0  0  -0.695118  0  2.389351  0  0  -0.407712  -0.628568  0  2.398274  0
O  O53  1  0.71470545  0.57615324  0.86540629  1  0  -0.776272  0  2.116719  0  0  -0.656451  0  2.395452  0  0  -0.695135  0  2.389285  0  0  -0.407721  -0.628591  0  2.398214  0
O  O54  1  0.26118369  0.91988655  0.26793155  1  0  -0.693642  0  2.046951  0  0  -0.595472  0  2.282492  0  0  -0.624606  0  2.275383  0  0  -0.39861  -0.574814  0  2.286804  0
O  O55  1  0.73881294  0.08011359  0.73206946  1  0  -0.693657  0  2.046859  0  0  -0.595495  0  2.282393  0  0  -0.62463  0  2.275281  0  0  -0.398628  -0.574841  0  2.286708  0
O  O56  1  0.04883634  0.25205790  0.86364722  1  0  -0.885589  0  1.932866  0  0  -0.812224  0  2.155304  0  0  -0.839214  0  2.121969  0  0  -0.590409  -0.793319  0  2.178528  0
O  O57  1  0.95115847  0.74795123  0.13635164  1  0  -0.885656  0  1.932791  0  0  -0.812208  0  2.155201  0  0  -0.839201  0  2.121864  0  0  -0.590404  -0.793304  0  2.178425  0
O  O58  1  0.44067741  0.21374802  0.82934938  1  0  -0.859113  0  1.840127  0  0  -0.800859  0  2.047612  0  0  -0.822163  0  2.01182  0  0  -0.58852  -0.785658  0  2.071219  0
O  O59  1  0.55930515  0.78623305  0.17063674  1  0  -0.859118  0  1.840073  0  0  -0.800829  0  2.047633  0  0  -0.822166  0  2.011876  0  0  -0.588594  -0.785629  0  2.071124  0
