# generated using pymatgen
data_ZnH23C26NO8
_symmetry_space_group_name_H-M   'P 1'
_cell_length_a   11.00805369
_cell_length_b   16.57511554
_cell_length_c   17.80479021
_cell_angle_alpha   90.00142704
_cell_angle_beta   87.78313872
_cell_angle_gamma   89.99514424
_symmetry_Int_Tables_number   1
_chemical_formula_structural   ZnH23C26NO8
_chemical_formula_sum   'Zn2 H46 C52 N2 O16'
_cell_volume   3246.22639569
_cell_formula_units_Z   2
loop_
 _symmetry_equiv_pos_site_id
 _symmetry_equiv_pos_as_xyz
  1  'x, y, z'
loop_
 _atom_site_type_symbol
 _atom_site_label
 _atom_site_symmetry_multiplicity
 _atom_site_fract_x
 _atom_site_fract_y
 _atom_site_fract_z
 _atom_site_occupancy
 _atom_site_pbe_bader_charge
 _atom_site_pbe_bader_spin_density
 _atom_site_pbe_cm5_charge
 _atom_site_pbe_ddec_charge
 _atom_site_pbe_ddec_spin_density
 _atom_site_pbe_ddec_sum_bond_order
 _atom_site_pbe_magmom
Zn  Zn0  1  0.49998488  0.57926830  0.50001353  1  1.285767  0  0.677543  0.863825  0  2.36716  0
Zn  Zn1  1  0.50000014  0.40978773  0.50000947  1  1.285244  0  0.673004  0.809338  0  2.434581  0
H  H2  1  0.88592319  0.37075074  0.49876983  1  0.096176  0  0.103425  0.109316  0  1.004236  0
H  H3  1  0.49311764  0.62133522  0.27122080  1  0.121322  0  0.112576  0.138564  0  0.992805  0
H  H4  1  0.52405179  0.37362700  0.88441245  1  0.094852  0  0.110173  0.128598  0  0.985532  0
H  H5  1  0.47624756  0.37364972  0.11560043  1  0.095752  0  0.110167  0.12861  0  0.98547  0
H  H6  1  0.62015453  0.86403375  0.40088029  1  0.102282  0  0.115114  0.144478  0  1.006671  0
H  H7  1  0.37982560  0.86404398  0.59915396  1  0.101583  0  0.115118  0.144461  0  1.006681  0
H  H8  1  0.79279881  0.78701150  0.52276695  1  0.576548  0  0.323221  0.349098  0  0.90312  0
H  H9  1  0.20710281  0.78701904  0.47737349  1  0.576932  0  0.323372  0.349382  0  0.903369  0
H  H10  1  0.49619430  0.64239197  0.92776740  1  0.573384  0  0.313855  0.336181  0  0.934445  0
H  H11  1  0.50420671  0.64241404  0.07227825  1  0.57463  0  0.313728  0.336103  0  0.933943  0
H  H12  1  0.62586536  0.24285640  0.72704267  1  0.006596  0  0.098111  0.061208  0  0.976243  0
H  H13  1  0.11408612  0.37074985  0.50124432  1  0.095984  0  0.103463  0.109384  0  1.004128  0
H  H14  1  0.67368454  0.30404904  0.80268800  1  0.043032  0  0.090228  0.044759  0  0.992831  0
H  H15  1  0.70771053  0.34948852  0.63550027  1  0.074181  0  0.092924  0.103151  0  0.999346  0
H  H16  1  0.76281661  0.40411655  0.71186385  1  0.036876  0  0.090708  0.087102  0  0.972271  0
H  H17  1  0.89589905  0.28470556  0.74554389  1  0.032814  0  0.081344  0.102567  0  1.009542  0
H  H18  1  0.92881942  0.31957264  0.65270992  1  0.038101  0  0.088811  0.120572  0  1.005741  0
H  H19  1  0.84081048  0.23087027  0.66760001  1  -0.014343  0  0.080129  0.099833  0  1.01254  0
H  H20  1  0.37410058  0.24290539  0.27294412  1  0.007128  0  0.098316  0.06139  0  0.976178  0
H  H21  1  0.32633613  0.30413362  0.19731069  1  0.042757  0  0.090312  0.044902  0  0.99281  0
H  H22  1  0.29227295  0.34954298  0.36450610  1  0.073671  0  0.09286  0.103057  0  0.999107  0
H  H23  1  0.23727082  0.40422702  0.28814443  1  0.035773  0  0.090894  0.087459  0  0.971877  0
H  H24  1  0.53836345  0.13061009  0.37983578  1  0.092393  0  0.117636  0.126145  0  0.979737  0
H  H25  1  0.10409621  0.28490723  0.25438359  1  0.032762  0  0.081572  0.102987  0  1.009548  0
H  H26  1  0.07113884  0.31976878  0.34722560  1  0.036939  0  0.088688  0.120731  0  1.005726  0
H  H27  1  0.15906230  0.23100693  0.33233546  1  -0.014278  0  0.080046  0.100037  0  1.012224  0
H  H28  1  0.77881243  0.76731619  0.37980924  1  0.070533  0  0.100357  0.060143  0  1.011182  0
H  H29  1  0.67643760  0.77109541  0.30383272  1  0.036557  0  0.102148  0.064457  0  0.964488  0
H  H30  1  0.79404781  0.61451086  0.35466094  1  0.054672  0  0.100453  0.109917  0  0.985251  0
H  H31  1  0.72399700  0.63182720  0.26848741  1  0.029594  0  0.092067  0.088543  0  0.986765  0
H  H32  1  0.89619208  0.73092526  0.23153305  1  0.001914  0  0.082294  0.102922  0  1.008707  0
H  H33  1  0.94985508  0.63175180  0.24764340  1  0.01785  0  0.092605  0.122876  0  0.992344  0
H  H34  1  0.96559147  0.70694289  0.31745434  1  0.032197  0  0.085297  0.112649  0  1.011545  0
H  H35  1  0.46152553  0.13064890  0.62019700  1  0.091757  0  0.117705  0.12613  0  0.979654  0
H  H36  1  0.22123837  0.76737525  0.62026187  1  0.071421  0  0.100467  0.060076  0  1.011306  0
H  H37  1  0.32365068  0.77107592  0.69621474  1  0.035726  0  0.102173  0.064413  0  0.964484  0
H  H38  1  0.20580710  0.61458995  0.64534580  1  0.054249  0  0.10045  0.109818  0  0.984877  0
H  H39  1  0.27603274  0.63178861  0.73148221  1  0.029423  0  0.092203  0.088652  0  0.986755  0
H  H40  1  0.10405287  0.73098178  0.76862206  1  -0.000765  0  0.082302  0.103039  0  1.009525  0
H  H41  1  0.05017645  0.63188694  0.75244807  1  0.019368  0  0.092665  0.12287  0  0.992015  0
H  H42  1  0.03448341  0.70716719  0.68272476  1  0.033854  0  0.085355  0.112677  0  1.011425  0
H  H43  1  0.53520721  0.28290050  0.38491570  1  0.180036  0  0.131397  0.115221  0  0.997  0
H  H44  1  0.46474551  0.28293675  0.61509452  1  0.18034  0  0.13146  0.115151  0  0.996843  0
H  H45  1  0.77506285  0.65028039  0.51361400  1  0.135686  0  0.103868  0.130029  0  1.053382  0
H  H46  1  0.22486404  0.65028116  0.48644993  1  0.137129  0  0.104  0.130297  0  1.053171  0
H  H47  1  0.50699197  0.62132448  0.72882694  1  0.121816  0  0.11247  0.138366  0  0.992985  0
C  C48  1  0.48868675  0.49197527  0.35611399  1  1.567495  0  0.216024  0.606869  0  4.16004  0
C  C49  1  0.48907486  0.50371339  0.11362121  1  0.202893  0  -0.021938  0.026011  0  4.163841  0
C  C50  1  0.50412476  0.50911515  0.96557348  1  -0.173186  0  -0.050048  -0.113304  0  4.175449  0
C  C51  1  0.49636780  0.50912499  0.03445575  1  -0.399739  0  -0.05024  -0.113334  0  4.175051  0
C  C52  1  0.56828810  0.83197779  0.44456317  1  0.113881  0  -0.113664  -0.353944  0  3.939237  0
C  C53  1  0.43168838  0.83197851  0.55545653  1  0.113724  0  -0.113519  -0.353907  0  3.939329  0
C  C54  1  0.56395200  0.74756210  0.44617885  1  0.997708  0  0.218462  0.417408  0  4.108967  0
C  C55  1  0.43603146  0.74756159  0.55383807  1  0.997049  0  0.218473  0.417459  0  4.108776  0
C  C56  1  0.49997512  0.87437393  0.50001019  1  0.016194  0  0.014994  0.229884  0  4.148205  0
C  C57  1  0.49997054  0.95975373  0.50001497  1  0.00081  0  -0.028747  -0.080086  0  4.054661  0
C  C58  1  0.49995921  0.03325340  0.50002142  1  -0.391906  0  -0.025903  -0.087244  0  4.071896  0
C  C59  1  0.51132525  0.49196827  0.64391409  1  1.569518  0  0.215814  0.606637  0  4.160289  0
C  C60  1  0.73535502  0.49218872  0.49646882  1  1.551858  0  0.21501  0.595982  0  4.153526  0
C  C61  1  0.26462519  0.49219465  0.50355423  1  1.553089  0  0.215037  0.595886  0  4.153839  0
C  C62  1  0.52135425  0.16215098  0.43285268  1  -0.041819  0  -0.069869  -0.169789  0  3.910257  0
C  C63  1  0.47855884  0.16216880  0.56717405  1  -0.039153  0  -0.069967  -0.16993  0  3.910613  0
C  C64  1  0.52018981  0.24584335  0.43522289  1  0.483619  0  0.063631  0.103336  0  3.897586  0
C  C65  1  0.47975128  0.24586290  0.56479024  1  0.484571  0  0.063559  0.103618  0  3.897274  0
C  C66  1  0.49995477  0.11857468  0.50001722  1  0.180472  0  0.020222  0.171623  0  4.113754  0
C  C67  1  0.87385693  0.65012989  0.50808448  1  -0.012724  0  -0.119524  -0.287455  0  4.019861  0
C  C68  1  0.12607284  0.65012578  0.49197209  1  -0.012593  0  -0.119659  -0.288011  0  4.019968  0
C  C69  1  0.93568407  0.72231182  0.50566661  1  0.47267  0  0.064286  0.206224  0  4.110147  0
C  C70  1  0.51525446  0.49214289  0.72805539  1  0.108065  0  -0.013148  -0.097841  0  3.932108  0
C  C71  1  0.06423280  0.72231389  0.49440668  1  0.402662  0  0.064508  0.206957  0  4.109644  0
C  C72  1  0.06562568  0.57446280  0.49816913  1  -0.081406  0  -0.004478  0.073794  0  3.960401  0
C  C73  1  0.93432611  0.57446300  0.50187164  1  0.071122  0  -0.004533  0.073841  0  3.960417  0
C  C74  1  0.87098866  0.49888555  0.50029698  1  0.044928  0  -0.013156  -0.07224  0  3.91149  0
C  C75  1  0.12899148  0.49887751  0.49972900  1  0.044255  0  -0.013205  -0.072202  0  3.911763  0
C  C76  1  0.93647252  0.42724831  0.49968976  1  -0.164325  0  -0.091088  -0.105768  0  4.029356  0
C  C77  1  0.06353110  0.42725360  0.50033113  1  -0.054529  0  -0.09111  -0.105748  0  4.029626  0
C  C78  1  0.50693595  0.57415873  0.84155945  1  0.419163  0  0.077399  0.253528  0  4.075801  0
C  C79  1  0.49332494  0.57417885  0.15847964  1  0.419758  0  0.077379  0.253696  0  4.075663  0
C  C80  1  0.50947723  0.56746905  0.76378645  1  -0.010657  0  -0.095794  -0.202882  0  3.973244  0
C  C81  1  0.48480295  0.49215781  0.27197188  1  0.108303  0  -0.013263  -0.097744  0  3.932144  0
C  C82  1  0.49064741  0.56748339  0.23625050  1  -0.01198  0  -0.095755  -0.203091  0  3.973103  0
C  C83  1  0.64451558  0.30539028  0.74394011  1  0.430017  0  -0.06746  0.038212  0  3.917646  0
C  C84  1  0.74249211  0.34272891  0.69221593  1  -0.047607  0  -0.175613  -0.147793  0  3.96815  0
C  C85  1  0.85831231  0.29170831  0.68952162  1  -0.058162  0  -0.243348  -0.344915  0  3.985424  0
C  C86  1  0.35550203  0.30545240  0.25605642  1  0.430218  0  -0.067911  0.037455  0  3.91924  0
C  C87  1  0.25753347  0.34282093  0.30777383  1  -0.047479  0  -0.175703  -0.147942  0  3.96778  0
C  C88  1  0.14165808  0.29187302  0.31042048  1  -0.056347  0  -0.243352  -0.345738  0  3.985434  0
C  C89  1  0.71651869  0.73147608  0.34609685  1  0.355876  0  -0.056699  0.040906  0  3.846218  0
C  C90  1  0.78192523  0.65959932  0.31033096  1  0.015297  0  -0.166744  -0.130603  0  3.944059  0
C  C91  1  0.90497314  0.68393330  0.27466880  1  -0.022104  0  -0.240526  -0.348039  0  3.975418  0
C  C92  1  0.52251789  0.42148777  0.77229908  1  0.490268  0  0.080404  0.226309  0  4.050316  0
C  C93  1  0.28352605  0.73149520  0.65394676  1  0.356534  0  -0.056972  0.040605  0  3.846791  0
C  C94  1  0.21807133  0.65963903  0.68970267  1  0.020189  0  -0.166798  -0.130557  0  3.943582  0
C  C95  1  0.09511799  0.68405402  0.72545680  1  -0.027596  0  -0.240708  -0.348172  0  3.975912  0
C  C96  1  0.47758641  0.42150291  0.22771932  1  0.489972  0  0.080355  0.226105  0  4.050939  0
C  C97  1  0.52045166  0.42812858  0.85032970  1  -0.044531  0  -0.09501  -0.225873  0  3.955339  0
C  C98  1  0.47978985  0.42814949  0.14968971  1  -0.042592  0  -0.094781  -0.225945  0  3.955907  0
C  C99  1  0.51126470  0.50369606  0.88640789  1  0.204312  0  -0.021875  0.025953  0  4.164234  0
N  N100  1  0.49999208  0.70626651  0.50000162  1  -1.21652  0  -0.33214  -0.407335  0  3.411814  0
N  N101  1  0.49998540  0.28646310  0.50000582  1  -1.231032  0  -0.315687  -0.18887  0  3.509248  0
O  O102  1  0.45557640  0.55682050  0.38927529  1  -1.162088  0  -0.319567  -0.553259  0  2.31905  0
O  O103  1  0.12057407  0.79616087  0.48791670  1  -1.091738  0  -0.362597  -0.435905  0  2.268518  0
O  O104  1  0.49882798  0.64939552  0.87319268  1  -1.108344  0  -0.362622  -0.439543  0  2.251333  0
O  O105  1  0.50148475  0.64941281  0.12685357  1  -1.109325  0  -0.362547  -0.439588  0  2.250697  0
O  O106  1  0.52821651  0.34551855  0.74049775  1  -1.061912  0  -0.210718  -0.248248  0  2.517209  0
O  O107  1  0.47180348  0.34553594  0.25951069  1  -1.0615  0  -0.210626  -0.24774  0  2.517995  0
O  O108  1  0.62026646  0.69966558  0.39571614  1  -1.061521  0  -0.150136  -0.185016  0  2.581918  0
O  O109  1  0.37972208  0.69967236  0.60429758  1  -1.060877  0  -0.149956  -0.184618  0  2.582354  0
O  O110  1  0.54439590  0.55680721  0.61075300  1  -1.162852  0  -0.31931  -0.552956  0  2.319192  0
O  O111  1  0.52696586  0.42853148  0.38773824  1  -1.159854  0  -0.312717  -0.538525  0  2.363596  0
O  O112  1  0.47304277  0.42852004  0.61228820  1  -1.160706  0  -0.312746  -0.538615  0  2.363506  0
O  O113  1  0.67771717  0.55359216  0.47319359  1  -1.168279  0  -0.315274  -0.554873  0  2.418024  0
O  O114  1  0.32225357  0.55358431  0.52681670  1  -1.169249  0  -0.315133  -0.554571  0  2.418735  0
O  O115  1  0.68653448  0.42505626  0.51474122  1  -1.168362  0  -0.314248  -0.547387  0  2.319386  0
O  O116  1  0.31346078  0.42504689  0.48527136  1  -1.168441  0  -0.314393  -0.547513  0  2.318611  0
O  O117  1  0.87931825  0.79615733  0.51219206  1  -1.091666  0  -0.362106  -0.435124  0  2.268407  0
