# generated using pymatgen
data_K2CuH47C35N7O9
_symmetry_space_group_name_H-M   'P 1'
_cell_length_a   7.30969035
_cell_length_b   12.26768310
_cell_length_c   12.39017723
_cell_angle_alpha   106.29702494
_cell_angle_beta   106.89976614
_cell_angle_gamma   100.42639182
_symmetry_Int_Tables_number   1
_chemical_formula_structural   K2CuH47C35N7O9
_chemical_formula_sum   'K2 Cu1 H47 C35 N7 O9'
_cell_volume   977.78182731
_cell_formula_units_Z   1
loop_
 _symmetry_equiv_pos_site_id
 _symmetry_equiv_pos_as_xyz
  1  'x, y, z'
loop_
 _atom_site_type_symbol
 _atom_site_label
 _atom_site_symmetry_multiplicity
 _atom_site_fract_x
 _atom_site_fract_y
 _atom_site_fract_z
 _atom_site_occupancy
 _atom_site_hle17_ddec_charge
 _atom_site_hle17_ddec_spin_density
 _atom_site_hle17_ddec_sum_bond_order
 _atom_site_hle17_magmom
 _atom_site_hse06_10hf_ddec_charge
 _atom_site_hse06_10hf_ddec_spin_density
 _atom_site_hse06_10hf_ddec_sum_bond_order
 _atom_site_hse06_10hf_magmom
 _atom_site_hse06_ddec_charge
 _atom_site_hse06_ddec_spin_density
 _atom_site_hse06_ddec_sum_bond_order
 _atom_site_hse06_magmom
 _atom_site_pbe_cm5_charge
 _atom_site_pbe_ddec_charge
 _atom_site_pbe_ddec_spin_density
 _atom_site_pbe_ddec_sum_bond_order
 _atom_site_pbe_magmom
K  K0  1  0.33348986  0.88260390  0.20982285  1  0.935819  -9e-05  0.50125  0.0  0.890081  0.000116  0.69773  0.0  0.905152  -6.5e-05  0.674783  0.0  0.792088  0.879008  0.000292  0.714119  0.0
K  K1  1  0.82085527  0.84715817  0.17958532  1  0.932678  -0.000437  0.490345  0.0  0.882198  -0.000365  0.691078  0.0  0.897225  -0.000449  0.668146  0.0  0.780742  0.870986  -0.000284  0.707681  0.0
Cu  Cu2  1  0.98950109  0.99406624  0.00456138  1  0.812423  0.655815  1.973291  0.482  0.767134  0.743583  2.416579  0.586  0.86005  0.806492  2.334675  0.666  0.729177  0.712255  0.698788  2.469408  0.534
H  H3  1  0.26971976  0.08724089  0.40313348  1  0.101481  -0.000184  0.980509  0.0  0.108793  2.4e-05  1.050281  0.0  0.113548  9e-06  1.046906  0.0  0.101808  0.105466  4.5e-05  1.052669  0.0
H  H4  1  0.47100245  0.28592307  0.55763600  1  0.073553  0.000426  0.981285  0.001  0.087109  0.000304  1.042669  0.0  0.089299  0.000193  1.040564  0.0  0.094543  0.085548  0.000409  1.044177  0.0
H  H5  1  0.50307146  0.46509773  0.49866797  1  0.083083  -1.4e-05  0.981378  0.0  0.093154  -2.5e-05  1.046048  0.0  0.095898  -2.6e-05  1.046011  0.0  0.088938  0.09116  -2.5e-05  1.046223  0.0
H  H6  1  0.32545484  0.43955303  0.28206203  1  0.080596  0.000134  0.991245  0.0  0.088102  7.2e-05  1.060895  0.0  0.091977  2e-05  1.056932  0.0  0.09455  0.085298  0.00014  1.063719  0.0
H  H7  1  0.86796866  0.33192936  0.93832517  1  0.107931  -0.000262  0.992112  0.0  0.116513  -6.8e-05  1.053963  0.0  0.120465  -6.1e-05  1.050667  0.0  0.099112  0.113648  -6.2e-05  1.056334  0.0
H  H8  1  0.64326556  0.30519691  0.73421530  1  0.071246  0.000346  0.985893  0.0  0.082024  0.000243  1.05184  0.0  0.084296  0.000149  1.050824  0.0  0.089275  0.080351  0.000333  1.052695  0.0
H  H9  1  0.51935577  0.10442795  0.56949210  1  0.083873  0.000236  0.974537  0.0  0.097404  0.000129  1.034215  0.0  0.099464  7.7e-05  1.034264  0.0  0.096532  0.095868  0.000171  1.034358  0.0
H  H10  1  0.63296025  0.93833784  0.61224660  1  0.101833  -0.000172  0.988857  0.0  0.11256  1.4e-05  1.048134  0.0  0.115467  7e-06  1.046968  0.0  0.103231  0.110458  2.9e-05  1.049039  0.0
H  H11  1  0.84949247  0.64802704  0.59986008  1  0.07728  7.2e-05  0.999711  0.0  0.085922  1.6e-05  1.068564  0.0  0.089174  -1.2e-05  1.065899  0.0  0.091692  0.083554  5.5e-05  1.070446  0.0
H  H12  1  0.87214902  0.45732043  0.63009850  1  0.076431  1e-06  0.976846  0.0  0.086932  1.6e-05  1.042024  0.0  0.090141  2e-06  1.041224  0.0  0.085732  0.084653  2.7e-05  1.042684  0.0
H  H13  1  0.95731507  0.45257208  0.84025846  1  0.080247  0.000369  0.974293  0.0  0.09318  0.000262  1.035674  0.0  0.095001  0.000166  1.034783  0.0  0.095531  0.09189  0.000356  1.036265  0.0
H  H14  1  0.00699468  0.63309139  0.01051619  1  0.108657  -0.00024  0.983668  0.0  0.116687  1.1e-05  1.048552  0.0  0.121594  4e-06  1.04491  0.0  0.104047  0.113215  2.5e-05  1.051179  0.0
H  H15  1  0.35321470  0.89435390  0.88932830  1  0.033332  -5e-05  0.923677  0.0  0.046648  -5.8e-05  0.98978  0.0  0.047826  -5.5e-05  0.986399  0.0  0.120234  0.045729  -5.8e-05  0.992307  0.0
H  H16  1  0.65761716  0.24511735  0.04952541  1  0.100825  -6e-06  0.939905  0.0  0.123228  4e-06  0.999268  0.0  0.123596  8e-06  0.999776  0.0  0.10549  0.122941  0.0  0.998887  0.0
H  H17  1  0.48564145  0.21858685  0.12340835  1  0.094467  -7.4e-05  0.950635  0.0  0.113514  -8.2e-05  1.016318  0.0  0.113321  -8e-05  1.017547  0.0  0.099976  0.113513  -7.7e-05  1.015602  0.0
H  H18  1  0.68948809  0.15441032  0.14028230  1  0.108618  -7.3e-05  0.948109  0.0  0.127017  -7e-05  1.01236  0.0  0.128489  -7.1e-05  1.011538  0.0  0.112568  0.125818  -6.7e-05  1.013107  0.0
H  H19  1  0.43926637  0.14108533  0.83217155  1  0.090913  8e-06  0.990515  0.0  0.110017  0.0  1.056086  0.0  0.109725  5e-06  1.058942  0.0  0.094169  0.110223  -3e-06  1.054073  0.0
H  H20  1  0.25157056  0.00667068  0.79542093  1  0.101791  -3.8e-05  0.958082  0.0  0.119257  -1e-05  1.028065  0.0  0.119976  -1.4e-05  1.027867  0.0  0.104754  0.118623  -5e-06  1.028333  0.0
H  H21  1  0.23808900  0.14270913  0.88766545  1  0.100775  -0.000193  0.959868  0.0  0.118449  -0.000146  1.025912  0.0  0.11883  -0.00015  1.027164  0.0  0.100373  0.117989  -0.000136  1.025304  0.0
H  H22  1  0.35057977  0.51257038  0.10657869  1  0.051399  0.000109  0.946118  0.0  0.061143  0.000115  1.011505  0.0  0.06312  6.7e-05  1.006594  0.0  0.121638  0.059408  0.000168  1.015286  0.0
H  H23  1  0.35522197  0.59374461  0.81346124  1  0.090571  -1e-06  0.939183  0.0  0.113065  -2e-06  1.000113  0.0  0.112724  -4e-06  1.001385  0.0  0.100671  0.113223  -1e-06  0.999286  0.0
H  H24  1  0.46730290  0.71336249  0.95514676  1  0.104565  1.4e-05  0.968581  0.0  0.120622  1.6e-05  1.037081  0.0  0.122307  1.9e-05  1.036088  0.0  0.112523  0.119243  1.4e-05  1.03795  0.0
H  H25  1  0.61441157  0.62491193  0.89962361  1  0.098587  -2.2e-05  0.965326  0.0  0.118857  -2.3e-05  1.027704  0.0  0.118638  -1.5e-05  1.029455  0.0  0.103727  0.11889  -2.8e-05  1.026598  0.0
H  H26  1  0.51837252  0.39951135  0.90153239  1  0.095275  -1.3e-05  0.937126  0.0  0.115762  -1.2e-05  0.999483  0.0  0.115908  -1.2e-05  1.000134  0.0  0.100077  0.11556  -1.2e-05  0.999099  0.0
H  H27  1  0.31516202  0.36908510  0.95318727  1  0.11251  -2.3e-05  0.954659  0.0  0.128364  -5e-06  1.022198  0.0  0.129663  0.0  1.021857  0.0  0.108887  0.127298  -8e-06  1.022534  0.0
H  H28  1  0.27176678  0.39077803  0.81244659  1  0.086315  3e-06  0.962015  0.0  0.108893  5e-06  1.025947  0.0  0.10933  2e-06  1.026196  0.0  0.100049  0.108493  6e-06  1.025826  0.0
H  H29  1  0.98667579  0.49038433  0.17270552  1  0.048404  -7e-05  0.956675  0.0  0.056385  -5.3e-05  1.025481  0.0  0.058686  -5.1e-05  1.020086  0.0  0.118153  0.054515  -5.2e-05  1.029468  0.0
H  H30  1  0.85904224  0.68229957  0.44451031  1  0.096172  2.2e-05  0.961645  0.0  0.115191  1.8e-05  1.02944  0.0  0.115645  8e-06  1.029009  0.0  0.103096  0.114747  3.1e-05  1.02986  0.0
H  H31  1  0.70213712  0.67170680  0.29908919  1  0.109354  0.0  0.977716  0.0  0.125413  -2e-06  1.046002  0.0  0.127678  -0.0  1.044529  0.0  0.114418  0.123677  -4e-06  1.047196  0.0
H  H32  1  0.63030557  0.56710024  0.36501557  1  0.08932  -7e-06  0.961276  0.0  0.113349  -9e-06  1.02339  0.0  0.112638  -8e-06  1.025132  0.0  0.103358  0.113735  -8e-06  1.022301  0.0
H  H33  1  0.99196819  0.48589969  0.43764383  1  0.088137  -6e-06  0.935199  0.0  0.108827  -1e-05  0.999349  0.0  0.109391  -1e-05  0.999338  0.0  0.097986  0.108361  -1e-05  0.999411  0.0
H  H34  1  0.75106943  0.39183064  0.33592627  1  0.094335  -8e-06  0.948147  0.0  0.116398  -7e-06  1.008548  0.0  0.116422  -5e-06  1.010023  0.0  0.100614  0.11627  -9e-06  1.007627  0.0
H  H35  1  0.96283886  0.39486226  0.29007905  1  0.101873  -8e-06  0.972666  0.0  0.11837  -3e-06  1.042026  0.0  0.118579  1e-06  1.043389  0.0  0.105589  0.118081  -5e-06  1.041209  0.0
H  H36  1  0.12681587  0.88373522  0.54329900  1  0.034651  0.00011  0.95391  0.0  0.042704  0.000131  1.027052  0.0  0.044619  8.2e-05  1.021648  0.0  0.118562  0.041153  0.00018  1.031051  0.0
H  H37  1  0.56608118  0.74529969  0.49923452  1  0.111173  -8.8e-05  0.950602  0.0  0.132462  -5.9e-05  1.010179  0.0  0.132958  -5.3e-05  1.010697  0.0  0.108203  0.132008  -6e-05  1.009916  0.0
H  H38  1  0.35398327  0.61688951  0.42688412  1  0.087658  5e-06  0.952162  0.0  0.109796  7e-06  1.017187  0.0  0.109264  3e-06  1.018569  0.0  0.101774  0.11006  1.1e-05  1.016312  0.0
H  H39  1  0.37638529  0.72897931  0.36138210  1  0.109214  -4e-06  0.957642  0.0  0.123919  -4e-06  1.028148  0.0  0.126662  -3e-06  1.025534  0.0  0.115416  0.121846  -6e-06  1.030095  0.0
H  H40  1  0.46215501  0.79335639  0.69362878  1  0.105005  -4.8e-05  0.934695  0.0  0.124594  1e-06  0.995455  0.0  0.124975  -7e-06  0.996325  0.0  0.102043  0.124261  1.3e-05  0.994843  0.0
H  H41  1  0.20517174  0.79266662  0.66162100  1  0.102923  0.000119  0.979765  0.0  0.116403  0.000127  1.055104  0.0  0.117422  8e-05  1.054925  0.0  0.104826  0.115498  0.000178  1.055428  0.0
H  H42  1  0.26603893  0.65806587  0.61073316  1  0.08982  -2e-05  0.937973  0.0  0.110201  -1.9e-05  1.001811  0.0  0.111251  -1.6e-05  1.001275  0.0  0.099257  0.109345  -2.2e-05  1.002291  0.0
H  H43  1  0.90507075  0.97264230  0.53318386  1  0.045369  -3.7e-05  0.957737  0.0  0.053277  -8e-06  1.02969  0.0  0.055094  -8e-06  1.024465  0.0  0.122343  0.051735  -8e-06  1.033687  0.0
H  H44  1  0.74896308  0.13364322  0.33628018  1  0.108701  1.7e-05  0.948344  0.0  0.126283  2e-05  1.013263  0.0  0.12865  2.1e-05  1.010874  0.0  0.117815  0.124402  1.7e-05  1.01514  0.0
H  H45  1  0.75934140  0.24814212  0.46599476  1  0.087706  -2e-05  0.955271  0.0  0.10782  -1.5e-05  1.022591  0.0  0.107256  -1.3e-05  1.024014  0.0  0.097804  0.108056  -1.6e-05  1.021739  0.0
H  H46  1  0.97164413  0.25476713  0.42009276  1  0.094443  -4e-06  0.958101  0.0  0.115084  -6e-06  1.021798  0.0  0.114291  -2e-06  1.02446  0.0  0.101958  0.115506  -9e-06  1.020076  0.0
H  H47  1  0.19069076  0.25798033  0.61375950  1  0.090023  -1.4e-05  0.956488  0.0  0.109249  -7e-06  1.022881  0.0  0.109865  -1e-05  1.022561  0.0  0.100104  0.108679  -2e-06  1.023213  0.0
H  H48  1  0.00343072  0.24166923  0.67998995  1  0.094086  -2e-06  0.960612  0.0  0.111341  3e-06  1.02897  0.0  0.11107  2e-06  1.031028  0.0  0.097894  0.11144  4e-06  1.027605  0.0
H  H49  1  0.13458759  0.13297671  0.65742186  1  0.105948  9e-06  0.938576  0.0  0.129138  5e-06  0.998478  0.0  0.129166  9e-06  0.999484  0.0  0.111385  0.128966  2e-06  0.997908  0.0
C  C50  1  0.19117561  0.14987691  0.25482920  1  0.347478  -0.002714  3.872959  -0.003  0.340894  0.000263  4.122787  -0.001  0.360416  -0.000269  4.138765  -0.001  0.078479  0.327878  0.000904  4.111725  -0.001
C  C51  1  0.28709549  0.16620697  0.37840999  1  -0.22187  0.00526  3.740659  0.006  -0.237283  0.003756  3.989109  0.004  -0.245584  0.002704  4.006289  0.003  -0.116102  -0.231774  0.004508  3.977399  0.005
C  C52  1  0.39712112  0.27710828  0.46419193  1  -0.056348  -0.000663  3.858237  0.0  -0.069882  0.000166  4.106975  0.001  -0.065206  -8e-06  4.124923  0.001  -0.103146  -0.072697  0.00041  4.094549  0.001
C  C53  1  0.41532954  0.37801022  0.43137192  1  -0.155691  -0.00126  3.870701  -0.001  -0.169972  -0.00092  4.129238  0.0  -0.177023  -0.000956  4.151353  0.0  -0.12957  -0.165331  -0.000921  4.114186  0.0
C  C54  1  0.31863121  0.36377920  0.31183734  1  -0.081696  -0.001411  3.844248  -0.001  -0.104282  -0.00048  4.097799  0.0  -0.099909  -0.000491  4.116286  0.0  -0.104446  -0.106806  -0.000333  4.085244  0.0
C  C55  1  0.20429901  0.25286002  0.22170444  1  -0.205968  9.6e-05  3.748425  0.001  -0.189799  0.000183  3.985936  0.001  -0.204094  -0.000262  4.009113  0.001  -0.047294  -0.180894  0.00053  3.970859  0.002
C  C56  1  0.10238108  0.25672562  0.09981489  1  0.518458  -0.005634  3.890317  -0.004  0.483299  -0.000501  4.175563  0.0  0.516365  -0.001439  4.175949  -0.001  0.206277  0.461086  0.00042  4.174901  0.0
C  C57  1  0.87667416  0.15085164  0.89344760  1  0.159587  -0.00044  3.793072  0.0  0.160865  0.001237  4.035542  0.001  0.167972  4e-06  4.059599  0.0  0.076048  0.155972  0.002365  4.019657  0.002
C  C58  1  0.81441042  0.24573515  0.86696157  1  -0.183934  0.003102  3.788311  0.003  -0.203318  0.001832  4.041156  0.002  -0.206328  0.001416  4.058946  0.002  -0.115746  -0.201212  0.002094  4.029206  0.002
C  C59  1  0.68743571  0.22953278  0.75142918  1  -0.117999  -0.000813  3.889656  0.0  -0.130706  5.4e-05  4.146661  0.0  -0.13262  -0.00015  4.168223  0.0  -0.120614  -0.129479  0.000315  4.132201  0.001
C  C60  1  0.61901780  0.11847843  0.65990133  1  -0.101073  0.000474  3.848007  0.001  -0.116012  0.000268  4.100494  0.001  -0.118086  0.000201  4.123285  0.0  -0.115891  -0.114617  0.000367  4.085121  0.001
C  C61  1  0.68198058  0.02414606  0.68363055  1  -0.160462  0.002568  3.766124  0.003  -0.176587  0.001758  4.010908  0.002  -0.180334  0.001221  4.031396  0.001  -0.109007  -0.173954  0.002132  3.997012  0.002
C  C62  1  0.81071351  0.03809535  0.79864332  1  0.161612  0.000376  3.811146  0.0  0.163428  0.001108  4.051927  0.001  0.170475  5.2e-05  4.076553  0.0  0.075495  0.158623  0.002119  4.035629  0.002
C  C63  1  0.89309601  0.85286302  0.75041929  1  0.523165  -0.002867  3.892229  -0.002  0.488486  0.002237  4.179601  0.002  0.522035  0.000479  4.179134  0.001  0.206062  0.46572  0.004283  4.179761  0.003
C  C64  1  0.91673564  0.74765546  0.78488569  1  -0.206879  0.00073  3.75196  0.002  -0.191909  9.6e-05  3.990107  0.001  -0.207172  -0.000438  4.014949  0.001  -0.04902  -0.182105  0.000492  3.973632  0.001
C  C65  1  0.88610285  0.64271219  0.68954916  1  -0.077758  -0.002455  3.834028  -0.001  -0.096746  -0.000522  4.078434  0.0  -0.093067  -0.000499  4.099503  0.0  -0.105281  -0.098759  -0.000334  4.063915  0.0
C  C66  1  0.89920981  0.53684476  0.70651545  1  -0.150834  0.000201  3.864263  0.0  -0.163441  -0.000465  4.120742  0.0  -0.170834  -0.000687  4.143415  0.0  -0.129612  -0.158591  -0.000268  4.105261  0.0
C  C67  1  0.94535262  0.53417594  0.82372865  1  -0.043467  -0.000806  3.820922  0.0  -0.060412  0.000252  4.073001  0.001  -0.056278  4.5e-05  4.09227  0.001  -0.100367  -0.062886  0.000517  4.059782  0.001
C  C68  1  0.97613801  0.63530536  0.91970511  1  -0.212019  0.006031  3.7325  0.007  -0.227425  0.003979  3.980937  0.005  -0.235226  0.002803  3.997244  0.003  -0.114943  -0.222341  0.004909  3.97002  0.005
C  C69  1  0.96314190  0.74442494  0.90398301  1  0.341067  -0.002127  3.872417  -0.003  0.334738  0.000535  4.125094  -0.001  0.353888  1.6e-05  4.141825  -0.001  0.078401  0.321938  0.001122  4.113532  -0.001
C  C70  1  0.45129633  0.96552778  0.97591622  1  0.396819  -0.000574  3.854464  0.0  0.319839  -0.000835  4.159881  0.0  0.347843  -0.000825  4.157562  0.0  0.169898  0.300545  -0.000785  4.162017  0.0
C  C71  1  0.57977195  0.17959288  0.07801240  1  -0.160449  -0.000103  3.632914  0.0  -0.258304  -0.000135  3.873791  0.0  -0.254453  -0.000135  3.88377  0.0  -0.132216  -0.260592  -0.000123  3.86694  0.0
C  C72  1  0.34079026  0.09255918  0.86583753  1  -0.182771  -0.000305  3.659914  0.0  -0.286543  -0.000364  3.912824  0.0  -0.283595  -0.000377  3.924434  0.0  -0.140819  -0.288288  -0.000337  3.905023  0.0
C  C73  1  0.40194605  0.58452030  0.07548980  1  0.406948  0.000111  3.818566  0.0  0.335283  0.000101  4.110333  0.0  0.362859  6.2e-05  4.109944  0.0  0.172259  0.316895  0.000155  4.110032  0.0
C  C74  1  0.46674904  0.62403729  0.90525925  1  -0.172667  1e-05  3.655832  0.0  -0.269399  -7e-06  3.89188  0.0  -0.266024  -1.2e-05  3.902973  0.0  -0.1349  -0.271343  1e-06  3.884379  0.0
C  C75  1  0.37846890  0.41882995  0.90512168  1  -0.173427  -1.9e-05  3.673626  0.0  -0.274105  -3e-06  3.920637  0.0  -0.270767  0.0  3.931598  0.0  -0.132245  -0.276036  -4e-06  3.913142  0.0
C  C76  1  0.91451824  0.55755400  0.20727545  1  0.384608  -3e-05  3.831556  0.0  0.320082  -2.9e-05  4.112187  0.0  0.347384  -2.6e-05  4.111911  0.0  0.168111  0.301843  -2.2e-05  4.111811  0.0
C  C77  1  0.75689941  0.62076248  0.35454321  1  -0.174285  -2e-05  3.653904  0.0  -0.275282  -7e-06  3.897181  0.0  -0.271446  -1.1e-05  3.907406  0.0  -0.136474  -0.277579  -3e-06  3.890249  0.0
C  C78  1  0.89175809  0.44845043  0.34224749  1  -0.177185  -8e-06  3.685485  0.0  -0.276756  -1.4e-05  3.933437  0.0  -0.273465  -1.2e-05  3.945367  0.0  -0.134899  -0.278692  -1.5e-05  3.925249  0.0
C  C79  1  0.20026045  0.84764894  0.48050870  1  0.403401  7.6e-05  3.835247  0.0  0.334836  0.000101  4.125227  0.0  0.362233  6.5e-05  4.125483  0.0  0.17403  0.316524  0.000146  4.124485  0.0
C  C80  1  0.40471982  0.71271703  0.44627389  1  -0.172839  1e-06  3.639617  0.0  -0.27095  1.2e-05  3.881629  0.0  -0.267495  -1e-06  3.891433  0.0  -0.131568  -0.272999  2.9e-05  3.87506  0.0
C  C81  1  0.30913100  0.75349437  0.62665829  1  -0.176975  9.7e-05  3.659253  0.0  -0.27633  0.000117  3.90949  0.0  -0.273127  6.8e-05  3.920035  0.0  -0.134148  -0.278142  0.000169  3.902244  0.0
C  C82  1  0.84212054  0.01097512  0.46498078  1  0.407572  -5e-05  3.82841  0.0  0.335889  -3.8e-05  4.118852  0.0  0.363989  -2.5e-05  4.118024  0.0  0.172205  0.317105  -3.2e-05  4.118803  0.0
C  C83  1  0.84635261  0.19560179  0.42648634  1  -0.167442  -2.1e-05  3.655464  0.0  -0.266874  -1.2e-05  3.897232  0.0  -0.262934  -7e-06  3.9077  0.0  -0.130679  -0.269209  -1.5e-05  3.890238  0.0
C  C84  1  0.07073305  0.19430128  0.61967587  1  -0.174372  -1.3e-05  3.674862  0.0  -0.276268  1e-06  3.923819  0.0  -0.272851  -1e-06  3.935977  0.0  -0.134583  -0.278233  7e-06  3.915457  0.0
N  N85  1  0.99220585  0.15362316  0.00712874  1  -0.541248  0.087528  3.288698  0.112  -0.502723  0.060699  3.612087  0.081  -0.545369  0.050117  3.626034  0.072  -0.410914  -0.476223  0.066358  3.603908  0.084
N  N86  1  0.86857961  0.94539744  0.83068915  1  -0.558441  0.087731  3.300232  0.112  -0.520159  0.059755  3.623583  0.079  -0.56394  0.048833  3.638067  0.07  -0.419  -0.492937  0.065524  3.615127  0.082
N  N87  1  0.45894841  0.07460961  0.97271685  1  -0.091468  -0.000681  3.501468  0.0  0.009462  -0.000818  3.743256  0.0  -0.011139  -0.00087  3.76868  0.0  -0.281569  0.023119  -0.000736  3.72622  0.0
N  N88  1  0.41273721  0.54445240  0.96565470  1  -0.095906  -3.5e-05  3.518535  0.0  0.010081  -2.1e-05  3.749935  0.0  -0.010919  -3.4e-05  3.776378  0.0  -0.285002  0.024184  -1.3e-05  3.731538  0.0
N  N89  1  0.85409170  0.54207032  0.29652971  1  -0.101432  -2e-06  3.501735  0.0  0.001935  -1.5e-05  3.73608  0.0  -0.019079  -1.9e-05  3.761663  0.0  -0.291185  0.016123  -1.1e-05  3.718167  0.0
N  N90  1  0.29662277  0.77196562  0.51405123  1  -0.101381  -3.3e-05  3.500494  0.0  0.001834  -2.1e-05  3.732697  0.0  -0.019014  -3.1e-05  3.758585  0.0  -0.28817  0.015846  -1e-05  3.714671  0.0
N  N91  1  0.92223573  0.12848261  0.50002625  1  -0.099896  1.4e-05  3.511642  0.0  0.005653  2.6e-05  3.743025  0.0  -0.01566  4e-06  3.769204  0.0  -0.286201  0.019996  5e-05  3.724774  0.0
O  O92  1  0.09866892  0.03977480  0.17915938  1  -0.68193  0.071252  2.181707  0.098  -0.63815  0.052625  2.477113  0.078  -0.678221  0.041322  2.468235  0.067  -0.458548  -0.611712  0.059993  2.482897  0.084
O  O93  1  0.99784529  0.83626008  0.00229591  1  -0.688318  0.077576  2.183592  0.107  -0.647842  0.055115  2.48497  0.082  -0.689347  0.043084  2.477518  0.07  -0.46135  -0.620478  0.062812  2.489776  0.088
O  O94  1  0.12252907  0.35736513  0.08875871  1  -0.603167  0.010553  1.971116  0.015  -0.553384  0.006017  2.19765  0.009  -0.577319  0.003298  2.189119  0.006  -0.323581  -0.536039  0.008895  2.202555  0.012
O  O95  1  0.89368636  0.85093202  0.64756571  1  -0.613571  0.014273  1.939646  0.019  -0.567124  0.009485  2.173787  0.013  -0.590372  0.006372  2.16527  0.01  -0.328978  -0.550581  0.012636  2.179034  0.017
O  O96  1  0.54193171  0.94273096  0.06545840  1  -0.621674  -0.000698  2.021578  0.0  -0.584377  -0.000925  2.287591  0.0  -0.603882  -0.000946  2.276236  0.0  -0.421041  -0.571034  -0.00088  2.295822  0.0
O  O97  1  0.44232174  0.69154311  0.13773768  1  -0.633527  7.8e-05  2.047038  0.0  -0.590683  6.4e-05  2.30505  0.0  -0.612313  4.5e-05  2.297306  0.0  -0.450074  -0.575541  0.000105  2.309844  0.0
O  O98  1  0.89275087  0.63771593  0.16581081  1  -0.569509  1.7e-05  2.019306  0.0  -0.52804  3.5e-05  2.260704  0.0  -0.548485  2.7e-05  2.25437  0.0  -0.380843  -0.513803  4.3e-05  2.264565  0.0
O  O99  1  0.18880814  0.87494542  0.38953429  1  -0.607487  4.5e-05  2.005924  0.0  -0.566025  8e-05  2.253168  0.0  -0.586656  5.3e-05  2.246107  0.0  -0.400931  -0.551662  0.000116  2.257536  0.0
O  O100  1  0.70733065  0.94829379  0.36589712  1  -0.624742  -1e-06  2.01226  0.0  -0.578341  5e-06  2.259606  0.0  -0.599611  1.3e-05  2.251253  0.0  -0.461037  -0.56348  -5e-06  2.264838  0.0
