# generated using pymatgen
data_CaH16C10O7
_symmetry_space_group_name_H-M   'P 1'
_cell_length_a   4.77932640
_cell_length_b   15.87512895
_cell_length_c   16.13600000
_cell_angle_alpha   90.00000000
_cell_angle_beta   90.00000000
_cell_angle_gamma   90.00000000
_symmetry_Int_Tables_number   1
_chemical_formula_structural   CaH16C10O7
_chemical_formula_sum   'Ca4 H64 C40 O28'
_cell_volume   1224.27741415
_cell_formula_units_Z   4
loop_
 _symmetry_equiv_pos_site_id
 _symmetry_equiv_pos_as_xyz
  1  'x, y, z'
loop_
 _atom_site_type_symbol
 _atom_site_label
 _atom_site_symmetry_multiplicity
 _atom_site_fract_x
 _atom_site_fract_y
 _atom_site_fract_z
 _atom_site_occupancy
 _atom_site_pbe_bader_charge
 _atom_site_pbe_bader_spin_density
 _atom_site_pbe_cm5_charge
 _atom_site_pbe_ddec_charge
 _atom_site_pbe_ddec_spin_density
 _atom_site_pbe_ddec_sum_bond_order
 _atom_site_pbe_magmom
Ca  Ca0  1  0.99163347  0.32666065  0.36767353  1  1.641602  0  0.839736  1.3779  0  1.410298  0
Ca  Ca1  1  0.50834779  0.67335012  0.86766547  1  1.641778  0  0.839703  1.377796  0  1.41044  0
Ca  Ca2  1  0.49164460  0.17334725  0.63232771  1  1.64164  0  0.839726  1.377879  0  1.410353  0
Ca  Ca3  1  0.00834636  0.82663895  0.13232957  1  1.641841  0  0.839723  1.377938  0  1.410199  0
H  H4  1  0.90735590  0.32226069  0.55262581  1  0.645697  0  0.303567  0.380976  0  0.96593  0
H  H5  1  0.59264209  0.67774757  0.05262766  1  0.645785  0  0.303583  0.381016  0  0.965873  0
H  H6  1  0.40732937  0.17774029  0.44737543  1  0.645697  0  0.303512  0.380889  0  0.966043  0
H  H7  1  0.09264067  0.82225411  0.94737234  1  0.645692  0  0.303551  0.380937  0  0.965974  0
H  H8  1  0.24063851  0.31787647  0.54737915  1  0.614047  0  0.305528  0.372218  0  0.976751  0
H  H9  1  0.25937546  0.68213052  0.04739093  1  0.613862  0  0.305551  0.372258  0  0.976699  0
H  H10  1  0.74061901  0.18212576  0.45261465  1  0.61399  0  0.305593  0.372321  0  0.9766  0
H  H11  1  0.75937689  0.81787619  0.95261651  1  0.614032  0  0.305583  0.372337  0  0.97657  0
H  H12  1  0.45004459  0.26868254  0.25911006  1  0.632772  0  0.298365  0.381581  0  0.964972  0
H  H13  1  0.04995683  0.73132130  0.75910573  1  0.63272  0  0.298365  0.381593  0  0.964984  0
H  H14  1  0.95004602  0.23131592  0.74088994  1  0.632907  0  0.298384  0.381639  0  0.964911  0
H  H15  1  0.54995407  0.76868163  0.24089861  1  0.632753  0  0.298391  0.381625  0  0.964919  0
H  H16  1  0.43268022  0.36339358  0.24418381  1  0.633485  0  0.305349  0.387256  0  0.943771  0
H  H17  1  0.06733376  0.63660522  0.74418319  1  0.633497  0  0.305371  0.387321  0  0.943709  0
H  H18  1  0.93269001  0.13660424  0.75581681  1  0.633426  0  0.305337  0.387211  0  0.943857  0
H  H19  1  0.56732472  0.86340338  0.25582053  1  0.633376  0  0.305362  0.387281  0  0.943729  0
H  H20  1  0.46120725  0.42789196  0.40969819  1  0.650876  0  0.310261  0.390052  0  0.949557  0
H  H21  1  0.03879626  0.57210559  0.90970005  1  0.6509  0  0.310281  0.390098  0  0.949467  0
H  H22  1  0.96120449  0.07210965  0.59030553  1  0.650911  0  0.310266  0.390003  0  0.949609  0
H  H23  1  0.53879978  0.92789042  0.09029995  1  0.650547  0  0.310259  0.390043  0  0.949554  0
H  H24  1  0.56553995  0.37584451  0.48896629  1  0.624262  0  0.310787  0.387188  0  0.949545  0
H  H25  1  0.93445805  0.62415493  0.98896505  1  0.624287  0  0.310739  0.387098  0  0.949648  0
H  H26  1  0.06554480  0.12415647  0.51103619  1  0.624338  0  0.310742  0.387024  0  0.9497  0
H  H27  1  0.43447127  0.87584800  0.01103619  1  0.624292  0  0.310825  0.387252  0  0.94947  0
H  H28  1  0.46578740  0.08014864  0.10904995  1  0.038234  0  0.090793  0.079281  0  1.021616  0
H  H29  1  0.03417846  0.91985521  0.60904375  1  0.0383  0  0.090848  0.079251  0  1.021773  0
H  H30  1  0.96580137  0.41985801  0.89094385  1  0.038341  0  0.090843  0.079312  0  1.021623  0
H  H31  1  0.53418197  0.58014584  0.39094819  1  0.038402  0  0.090826  0.079246  0  1.021599  0
H  H32  1  0.37721215  0.16229600  0.17755578  1  0.035889  0  0.089776  0.078411  0  1.015848  0
H  H33  1  0.12274324  0.83769146  0.67754400  1  0.035569  0  0.089866  0.078496  0  1.015844  0
H  H34  1  0.87724705  0.33770182  0.82243865  1  0.035915  0  0.089809  0.078502  0  1.015841  0
H  H35  1  0.62274675  0.66231147  0.32245910  1  0.035579  0  0.089838  0.078455  0  1.01584  0
H  H36  1  0.54839109  0.96564696  0.36050694  1  0.026494  0  0.09074  0.082703  0  1.002183  0
H  H37  1  0.95163620  0.03435689  0.86049517  1  0.026268  0  0.090778  0.082714  0  1.002107  0
H  H38  1  0.04838129  0.53435975  0.63949740  1  0.026507  0  0.090753  0.082646  0  1.002101  0
H  H39  1  0.45163687  0.46564913  0.13950050  1  0.026408  0  0.090777  0.082696  0  1.002058  0
H  H40  1  0.46241872  0.04569412  0.43181272  1  0.023841  0  0.092871  0.081011  0  1.026821  0
H  H41  1  0.03755550  0.95432044  0.93181706  1  0.023984  0  0.092867  0.08107  0  1.026762  0
H  H42  1  0.96248501  0.45431694  0.56817985  1  0.02371  0  0.092828  0.080926  0  1.026804  0
H  H43  1  0.53758203  0.54567620  0.06816497  1  0.023435  0  0.092876  0.080996  0  1.026691  0
H  H44  1  0.53548550  0.22250339  0.04250434  1  0.032072  0  0.087839  0.118794  0  1.019943  0
H  H45  1  0.96447483  0.77751242  0.54248575  1  0.032065  0  0.087793  0.118684  0  1.020023  0
H  H46  1  0.03548199  0.27750893  0.95749566  1  0.032183  0  0.087851  0.118807  0  1.019988  0
H  H47  1  0.46451734  0.72248043  0.45750806  1  0.031816  0  0.087851  0.118741  0  1.019989  0
H  H48  1  0.85913990  0.16797659  0.05095005  1  0.01593  0  0.082379  0.107079  0  1.036926  0
H  H49  1  0.64083926  0.83201592  0.55093765  1  0.015596  0  0.082308  0.106924  0  1.037043  0
H  H50  1  0.35914475  0.33202691  0.94905615  1  0.015762  0  0.08241  0.107067  0  1.036873  0
H  H51  1  0.14086922  0.66797568  0.44906854  1  0.015518  0  0.082295  0.10691  0  1.03697  0
H  H52  1  0.77742336  0.24966852  0.12176686  1  0.041352  0  0.088065  0.117689  0  1.025944  0
H  H53  1  0.72253488  0.75033217  0.62173959  1  0.041018  0  0.088063  0.117688  0  1.025868  0
H  H54  1  0.27745542  0.25032805  0.87824492  1  0.041242  0  0.088064  0.117692  0  1.025868  0
H  H55  1  0.22254601  0.74966572  0.37826599  1  0.040848  0  0.088037  0.117685  0  1.026029  0
H  H56  1  0.34371999  0.90481407  0.49128718  1  0.037089  0  0.086809  0.116058  0  1.02691  0
H  H57  1  0.15630236  0.09519671  0.99128223  1  0.037716  0  0.086844  0.116141  0  1.026984  0
H  H58  1  0.84370885  0.59517690  0.50870662  1  0.035982  0  0.086825  0.116052  0  1.02707  0
H  H59  1  0.65633308  0.40479734  0.00871591  1  0.036148  0  0.086813  0.116061  0  1.026958  0
H  H60  1  0.12586293  0.88244197  0.40468827  1  0.035872  0  0.088755  0.119207  0  1.02272  0
H  H61  1  0.37412385  0.11755117  0.90468270  1  0.034431  0  0.088741  0.119138  0  1.022941  0
H  H62  1  0.62584970  0.61755152  0.59530677  1  0.035919  0  0.088766  0.119238  0  1.022707  0
H  H63  1  0.87413364  0.38244981  0.09532412  1  0.035735  0  0.088755  0.119183  0  1.022792  0
H  H64  1  0.03133496  0.96320100  0.47500124  1  0.037742  0  0.085168  0.113648  0  1.0147  0
H  H65  1  0.46864554  0.03680474  0.97499566  1  0.037691  0  0.085195  0.11366  0  1.014707  0
H  H66  1  0.53135103  0.53678808  0.52499132  1  0.038301  0  0.085176  0.113586  0  1.014664  0
H  H67  1  0.96867835  0.46318364  0.02500496  1  0.029531  0  0.0852  0.113635  0  1.01465  0
C  C68  1  0.04990034  0.11311530  0.33889192  1  0.637905  0  0.109201  0.231034  0  4.069573  0
C  C69  1  0.45015339  0.88687784  0.83888758  1  0.638159  0  0.109337  0.231362  0  4.069485  0
C  C70  1  0.54987874  0.38687938  0.66111056  1  0.638555  0  0.109299  0.231129  0  4.069204  0
C  C71  1  0.95012971  0.61312384  0.16110622  1  0.638106  0  0.109246  0.231254  0  4.069713  0
C  C72  1  0.83832316  0.14570212  0.27599777  1  0.691281  0  0.12635  0.27338  0  4.057962  0
C  C73  1  0.66165600  0.85429479  0.77598785  1  0.691067  0  0.126249  0.273063  0  4.05789  0
C  C74  1  0.33830290  0.35429822  0.72401401  1  0.690605  0  0.126514  0.273543  0  4.057438  0
C  C75  1  0.16165876  0.64570184  0.22400905  1  0.691226  0  0.126416  0.273344  0  4.057728  0
C  C76  1  0.75946267  0.09799102  0.20640493  1  0.032064  0  -0.055273  -0.173073  0  4.027294  0
C  C77  1  0.74047464  0.90199960  0.70639192  1  0.031381  0  -0.055334  -0.173019  0  4.027024  0
C  C78  1  0.25948636  0.40200933  0.79359507  1  0.031803  0  -0.055391  -0.173274  0  4.027926  0
C  C79  1  0.24049414  0.59799451  0.29360560  1  0.031233  0  -0.055352  -0.173101  0  4.027158  0
C  C80  1  0.10831861  0.52015263  0.30600087  1  0.749375  0  0.122733  0.258517  0  4.062093  0
C  C81  1  0.39167863  0.47984177  0.80597608  1  0.749145  0  0.122644  0.25828  0  4.062568  0
C  C82  1  0.60831585  0.97984779  0.69400099  1  0.74944  0  0.122624  0.258339  0  4.062477  0
C  C83  1  0.89168005  0.02016236  0.19402082  1  0.748708  0  0.122539  0.258037  0  4.06283  0
C  C84  1  0.88491550  0.48918406  0.24465605  1  0.760589  0  0.140962  0.28463  0  4.013553  0
C  C85  1  0.61510760  0.51081160  0.74464861  1  0.759946  0  0.141045  0.284761  0  4.014329  0
C  C86  1  0.38490989  0.01081818  0.75534705  1  0.760521  0  0.140996  0.284631  0  4.014051  0
C  C87  1  0.11511246  0.98918882  0.25535077  1  0.760512  0  0.141159  0.284862  0  4.014676  0
C  C88  1  0.18409917  0.03642994  0.32747273  1  0.014422  0  -0.053138  -0.166597  0  4.023265  0
C  C89  1  0.31592527  0.96356698  0.82746282  1  0.014379  0  -0.053124  -0.166642  0  4.023212  0
C  C90  1  0.68411733  0.46357545  0.67253285  1  0.014421  0  -0.053212  -0.166735  0  4.023211  0
C  C91  1  0.81591833  0.53643596  0.17253656  1  0.014423  0  -0.053081  -0.166698  0  4.023093  0
C  C92  1  0.55335622  0.13254066  0.14496220  1  0.017126  0  -0.166662  -0.10607  0  3.989057  0
C  C93  1  0.94662294  0.86746697  0.64496158  1  0.01782  0  -0.166776  -0.106171  0  3.989319  0
C  C94  1  0.05337363  0.36746473  0.85503223  1  0.017151  0  -0.166692  -0.106113  0  3.989137  0
C  C95  1  0.44661315  0.63253659  0.35503223  1  0.017845  0  -0.166743  -0.106107  0  3.989398  0
C  C96  1  0.37218006  0.99726182  0.39137085  1  0.031861  0  -0.167251  -0.109526  0  3.987062  0
C  C97  1  0.12783182  0.00273195  0.89135535  1  0.031942  0  -0.167222  -0.109575  0  3.987297  0
C  C98  1  0.87218567  0.50273481  0.60863039  1  0.031992  0  -0.167245  -0.109336  0  3.987256  0
C  C99  1  0.62784371  0.49726903  0.10863783  1  0.032691  0  -0.167301  -0.109488  0  3.986989  0
C  C100  1  0.68846522  0.19692816  0.08654003  1  -0.070968  0  -0.244505  -0.351976  0  3.924527  0
C  C101  1  0.81152650  0.80308261  0.58653570  1  -0.070207  0  -0.244462  -0.351814  0  3.924448  0
C  C102  1  0.18847426  0.30307785  0.91346182  1  -0.070713  0  -0.244519  -0.352013  0  3.924244  0
C  C103  1  0.31153763  0.69691528  0.41346554  1  -0.069714  0  -0.244429  -0.351822  0  3.924517  0
C  C104  1  0.20951697  0.93315651  0.44367935  1  -0.089098  0  -0.243492  -0.34891  0  3.91216  0
C  C105  1  0.29044679  0.06684040  0.94367191  1  -0.088104  0  -0.243616  -0.348995  0  3.912569  0
C  C106  1  0.70954141  0.56683823  0.55631755  1  -0.088604  0  -0.243513  -0.348909  0  3.912465  0
C  C107  1  0.79047123  0.43315365  0.05633118  1  -0.079806  0  -0.24359  -0.348928  0  3.912271  0
O  O108  1  0.06782337  0.31344060  0.51441125  1  -1.285133  0  -0.621247  -0.810845  0  2.077282  0
O  O109  1  0.43216760  0.68654623  0.01440816  1  -1.285166  0  -0.621291  -0.810965  0  2.077239  0
O  O110  1  0.56781223  0.18654841  0.48558689  1  -1.285211  0  -0.62129  -0.810966  0  2.07742  0
O  O111  1  0.93218157  0.81345670  0.98559060  1  -1.285204  0  -0.621304  -0.810938  0  2.077365  0
O  O112  1  0.30871505  0.31472185  0.25388324  1  -1.284379  0  -0.631734  -0.817549  0  1.989474  0
O  O113  1  0.19127591  0.68528514  0.75388014  1  -1.284376  0  -0.631777  -0.817595  0  1.989429  0
O  O114  1  0.80872275  0.18527472  0.74611056  1  -1.284344  0  -0.631786  -0.817549  0  1.989528  0
O  O115  1  0.69127524  0.81472094  0.24611862  1  -1.284212  0  -0.631767  -0.817588  0  1.989479  0
O  O116  1  0.56875170  0.37773551  0.42790407  1  -1.28888  0  -0.615803  -0.820933  0  2.070181  0
O  O117  1  0.93124211  0.62226329  0.92790283  1  -1.288811  0  -0.615753  -0.820817  0  2.070082  0
O  O118  1  0.06874400  0.12226987  0.57209903  1  -1.288918  0  -0.615769  -0.820703  0  2.070391  0
O  O119  1  0.43124278  0.87773586  0.07209531  1  -1.288534  0  -0.615817  -0.820964  0  2.070157  0
O  O120  1  0.08529235  0.16257632  0.40267600  1  -1.197552  0  -0.309959  -0.542839  0  2.322867  0
O  O121  1  0.41472999  0.83742438  0.90266857  1  -1.197565  0  -0.310032  -0.542985  0  2.323053  0
O  O122  1  0.58526030  0.33743285  0.59732709  1  -1.197694  0  -0.309965  -0.542835  0  2.323186  0
O  O123  1  0.91470422  0.66257226  0.09732833  1  -1.197726  0  -0.309979  -0.542905  0  2.323342  0
O  O124  1  0.73690719  0.21839697  0.29248946  1  -1.173742  0  -0.321878  -0.508696  0  2.299592  0
O  O125  1  0.76313892  0.78160058  0.79249070  1  -1.173688  0  -0.321835  -0.508579  0  2.299253  0
O  O126  1  0.23686392  0.28159078  0.70751177  1  -1.17353  0  -0.321968  -0.508812  0  2.298912  0
O  O127  1  0.26308310  0.71840298  0.20750992  1  -1.173785  0  -0.321921  -0.508706  0  2.299343  0
O  O128  1  0.15908727  0.47048752  0.36661254  1  -1.168414  0  -0.333002  -0.517595  0  2.283259  0
O  O129  1  0.34092880  0.52950373  0.86659519  1  -1.167767  0  -0.332905  -0.517382  0  2.282881  0
O  O130  1  0.65906150  0.02950653  0.63339241  1  -1.168324  0  -0.332862  -0.517389  0  2.283455  0
O  O131  1  0.84093859  0.97049857  0.13340295  1  -1.167897  0  -0.332927  -0.517457  0  2.28302  0
O  O132  1  0.77394170  0.41882305  0.26136093  1  -1.143851  0  -0.292098  -0.463869  0  2.261868  0
O  O133  1  0.72610860  0.58116126  0.76135845  1  -1.143743  0  -0.292111  -0.463952  0  2.262082  0
O  O134  1  0.27393609  0.08117288  0.73863907  1  -1.143887  0  -0.292081  -0.463829  0  2.262142  0
O  O135  1  0.22611345  0.91885364  0.23864527  1  -1.143588  0  -0.292058  -0.463844  0  2.26272  0
