# generated using pymatgen
data_Cu2H11C22N5O8
_symmetry_space_group_name_H-M   'P 1'
_cell_length_a   8.49724472
_cell_length_b   9.44787725
_cell_length_c   14.16170872
_cell_angle_alpha   81.04786681
_cell_angle_beta   89.20368317
_cell_angle_gamma   73.97861712
_symmetry_Int_Tables_number   1
_chemical_formula_structural   Cu2H11C22N5O8
_chemical_formula_sum   'Cu4 H22 C44 N10 O16'
_cell_volume   1078.93931490
_cell_formula_units_Z   2
loop_
 _symmetry_equiv_pos_site_id
 _symmetry_equiv_pos_as_xyz
  1  'x, y, z'
loop_
 _atom_site_type_symbol
 _atom_site_label
 _atom_site_symmetry_multiplicity
 _atom_site_fract_x
 _atom_site_fract_y
 _atom_site_fract_z
 _atom_site_occupancy
 _atom_site_hle17_ddec_charge
 _atom_site_hle17_ddec_spin_density
 _atom_site_hle17_ddec_sum_bond_order
 _atom_site_hle17_magmom
 _atom_site_hse06_10hf_ddec_charge
 _atom_site_hse06_10hf_ddec_spin_density
 _atom_site_hse06_10hf_ddec_sum_bond_order
 _atom_site_hse06_10hf_magmom
 _atom_site_hse06_ddec_charge
 _atom_site_hse06_ddec_spin_density
 _atom_site_hse06_ddec_sum_bond_order
 _atom_site_hse06_magmom
 _atom_site_pbe_cm5_charge
 _atom_site_pbe_ddec_charge
 _atom_site_pbe_ddec_spin_density
 _atom_site_pbe_ddec_sum_bond_order
 _atom_site_pbe_magmom
Cu  Cu0  1  0.44323656  0.35532121  0.85457726  1  0.932882  -0.706342  1.679889  -0.504  0.919386  -0.796688  2.063492  -0.627  1.015963  -0.875586  1.990611  -0.716  0.735424  0.855528  -0.730635  2.118779  -0.562
Cu  Cu1  1  0.55676079  0.64467869  0.14542385  1  0.932915  -0.706356  1.679823  -0.504  0.919472  -0.796711  2.063436  -0.627  1.015989  -0.8756  1.99058  -0.716  0.735422  0.855566  -0.730638  2.118695  -0.562
Cu  Cu2  1  0.48255285  0.19892095  0.09849937  1  0.931988  0.695538  1.766165  0.493  0.935179  0.798117  2.153174  0.63  1.029302  0.884664  2.087817  0.731  0.731897  0.872116  0.723333  2.205577  0.554
Cu  Cu3  1  0.51745495  0.80107563  0.90150338  1  0.931955  0.695527  1.76613  0.493  0.93516  0.798109  2.153178  0.63  1.029274  0.884649  2.087815  0.731  0.731922  0.872128  0.723336  2.205548  0.554
H  H4  1  0.93529216  0.11739841  0.82167332  1  0.109304  -0.000185  0.955447  0.0  0.115014  -2e-06  1.025182  0.0  0.11962  -2.5e-05  1.021124  0.0  0.107855  0.111749  7.3e-05  1.027992  0.0
H  H5  1  0.06470989  0.88260150  0.17832703  1  0.109251  -0.000186  0.955481  0.0  0.114933  -1e-06  1.025252  0.0  0.11954  -2.5e-05  1.021198  0.0  0.10786  0.111671  7.3e-05  1.028057  0.0
H  H6  1  0.04062954  0.60296370  0.99464911  1  0.100876  0.000103  0.952112  0.0  0.111056  -0.000121  1.015857  0.0  0.114027  -6.8e-05  1.014645  0.0  0.105016  0.108809  -0.000164  1.017104  0.0
H  H7  1  0.95937048  0.39703507  0.00534926  1  0.100911  0.000104  0.952056  0.0  0.111072  -0.000121  1.015825  0.0  0.114065  -6.8e-05  1.014583  0.0  0.105035  0.108816  -0.000164  1.0171  0.0
H  H8  1  0.40988600  0.63942906  0.71726937  1  0.092728  -0.000961  0.949159  -0.002  0.101875  -0.000831  1.009317  -0.001  0.104015  -0.000603  1.007347  -0.001  0.120301  0.099937  -0.000986  1.010981  -0.002
H  H9  1  0.59010898  0.36057082  0.28273036  1  0.092763  -0.000962  0.94914  -0.002  0.101912  -0.000831  1.009287  -0.001  0.104052  -0.000603  1.007317  -0.001  0.120316  0.09997  -0.000986  1.010951  -0.002
H  H10  1  0.54113420  0.71375121  0.56700889  1  0.126014  -0.000571  0.921492  -0.001  0.138787  -0.000502  0.972702  -0.001  0.142473  -0.000353  0.971283  0.0  0.120321  0.135966  -0.000608  0.974085  -0.001
H  H11  1  0.45886044  0.28624977  0.43298932  1  0.126023  -0.000572  0.921504  -0.001  0.1388  -0.000502  0.972708  -0.001  0.142486  -0.000353  0.97129  0.0  0.120334  0.135978  -0.000608  0.974092  -0.001
H  H12  1  0.79227780  0.24864463  0.56953375  1  0.131254  -0.000539  0.91928  -0.001  0.143563  -0.000484  0.970013  -0.001  0.147743  -0.000348  0.967927  0.0  0.120436  0.140268  -0.000569  0.97204  -0.001
H  H13  1  0.20771918  0.75135636  0.43046443  1  0.131258  -0.00054  0.919278  -0.001  0.143596  -0.000484  0.96998  -0.001  0.147748  -0.000349  0.967928  0.0  0.120457  0.140301  -0.000569  0.97201  -0.001
H  H14  1  0.64936211  0.19170067  0.72067129  1  0.086232  -0.001149  0.940892  -0.002  0.097193  -0.000996  0.998636  -0.002  0.0984  -0.000695  0.996655  -0.001  0.121665  0.095737  -0.00121  1.000744  -0.002
H  H15  1  0.35063557  0.80829810  0.27932852  1  0.086238  -0.001148  0.940912  -0.002  0.097191  -0.000996  0.998668  -0.002  0.098399  -0.000695  0.996687  -0.001  0.121666  0.095738  -0.00121  1.000777  -0.002
H  H16  1  0.08857588  0.21329353  0.37155602  1  0.131062  0.000438  0.922438  0.0  0.142739  0.000423  0.97376  0.0  0.147281  0.000308  0.971121  0.0  0.121847  0.139223  0.000498  0.976163  0.001
H  H17  1  0.91142178  0.78670523  0.62844168  1  0.131038  0.000439  0.922382  0.0  0.142748  0.000423  0.973681  0.0  0.147288  0.000309  0.971046  0.0  0.121871  0.139234  0.000498  0.976085  0.001
H  H18  1  0.31507362  0.09653952  0.26840058  1  0.087902  0.000914  0.920717  0.002  0.098902  0.000773  0.978277  0.002  0.10115  0.00055  0.975274  0.001  0.123602  0.096798  0.000922  0.980995  0.002
H  H19  1  0.68492440  0.90345813  0.73159794  1  0.087908  0.000912  0.920754  0.002  0.098905  0.000773  0.97831  0.002  0.101151  0.00055  0.975303  0.001  0.123624  0.096801  0.000922  0.981026  0.002
H  H20  1  0.28229140  0.50309888  0.09894817  1  0.094545  0.001061  0.942231  0.002  0.099092  0.000932  1.012294  0.001  0.10032  0.000711  1.010621  0.001  0.120141  0.097743  0.001057  1.01383  0.001
H  H21  1  0.71771113  0.49690325  0.90105052  1  0.094541  0.001062  0.942216  0.002  0.099078  0.000932  1.0123  0.001  0.100304  0.000711  1.010634  0.001  0.120139  0.097729  0.001057  1.013838  0.001
H  H22  1  0.05769902  0.63679262  0.19465670  1  0.122584  0.000376  0.957208  0.0  0.134218  0.000363  1.014463  0.0  0.137515  0.000244  1.013307  0.0  0.113225  0.13154  0.000446  1.015783  0.001
H  H23  1  0.94230420  0.36320729  0.80534293  1  0.122561  0.000378  0.957316  0.0  0.134215  0.000363  1.014534  0.0  0.13751  0.000244  1.013379  0.0  0.113242  0.131542  0.000446  1.015847  0.001
H  H24  1  0.85479646  0.74610066  0.31148282  1  0.327994  -4.3e-05  0.884061  0.0  0.305262  9e-05  0.950817  0.0  0.314411  6e-05  0.943319  0.0  0.329529  0.298312  0.000114  0.956715  0.0
H  H25  1  0.14520393  0.25389701  0.68851849  1  0.328  -4.2e-05  0.88408  0.0  0.305273  9.1e-05  0.950828  0.0  0.314408  6e-05  0.943333  0.0  0.329514  0.298328  0.000115  0.956725  0.0
C  C26  1  0.69902489  0.08902915  0.94717956  1  0.663297  -0.000739  3.860648  0.0  0.620181  -0.000904  4.159509  -0.001  0.662183  -0.000826  4.148711  -0.001  0.221436  0.591102  -0.00098  4.166603  -0.001
C  C27  1  0.30096929  0.91096963  0.05282313  1  0.663606  -0.000737  3.860668  0.0  0.620534  -0.000905  4.159428  -0.001  0.662532  -0.000826  4.148617  -0.001  0.221535  0.591461  -0.000982  4.166533  -0.001
C  C28  1  0.84775712  0.97073178  0.92786731  1  -0.095013  -0.008493  3.753984  -0.008  -0.087868  -0.003676  4.001962  -0.004  -0.098875  -0.00278  4.024943  -0.003  -0.019202  -0.081016  -0.004991  3.987  -0.005
C  C29  1  0.15225523  0.02926146  0.07213364  1  -0.095239  -0.00851  3.754179  -0.008  -0.088003  -0.003675  4.002161  -0.004  -0.098998  -0.002777  4.025115  -0.003  -0.019254  -0.081157  -0.00499  3.987215  -0.005
C  C30  1  0.95945783  0.00488153  0.86105985  1  -0.051032  0.006764  3.692401  0.007  -0.086859  0.002251  3.948563  0.003  -0.083408  0.00183  3.96601  0.002  -0.072409  -0.088782  0.002638  3.936596  0.003
C  C31  1  0.04055198  0.99511618  0.13894347  1  -0.050867  0.00679  3.692178  0.007  -0.086722  0.00225  3.948306  0.003  -0.083272  0.001829  3.965746  0.002  -0.072384  -0.088646  0.002639  3.936345  0.003
C  C32  1  0.10556979  0.90012228  0.84497035  1  -0.074076  -0.00869  3.69544  -0.008  -0.062072  -0.00413  3.93065  -0.004  -0.067746  -0.003137  3.949642  -0.003  -0.01033  -0.058521  -0.004731  3.91802  -0.004
C  C33  1  0.89443280  0.09987989  0.15503610  1  -0.074175  -0.008709  3.695336  -0.008  -0.062094  -0.004129  3.930398  -0.004  -0.067771  -0.003138  3.949389  -0.003  -0.010263  -0.058544  -0.004732  3.917765  -0.004
C  C34  1  0.13262161  0.75350837  0.89369532  1  -0.020785  -0.003669  3.695586  -0.004  -0.00906  -0.002881  3.929512  -0.003  -0.01099  -0.001427  3.947185  -0.002  -0.000363  -0.007615  -0.003801  3.917319  -0.004
C  C35  1  0.86738108  0.24649713  0.10630584  1  -0.02087  -0.003645  3.695872  -0.004  -0.009134  -0.002878  3.929668  -0.003  -0.011062  -0.001425  3.947353  -0.002  -0.000363  -0.007681  -0.003798  3.917448  -0.004
C  C36  1  0.01865683  0.71765057  0.95864623  1  -0.095902  -0.009469  3.685124  -0.009  -0.128364  -0.0039  3.93711  -0.004  -0.131306  -0.002863  3.956919  -0.003  -0.085967  -0.126445  -0.005079  3.924003  -0.005
C  C37  1  0.98134011  0.28235825  0.04135252  1  -0.095858  -0.00949  3.685003  -0.009  -0.128298  -0.003902  3.93709  -0.004  -0.131248  -0.002863  3.956886  -0.003  -0.085958  -0.126386  -0.005079  3.923976  -0.005
C  C38  1  0.87906871  0.82517776  0.97882415  1  -0.035384  -0.000162  3.735333  0.0  -0.029269  -0.002038  3.979393  -0.002  -0.030877  -0.001086  3.997686  -0.001  -0.004653  -0.028374  -0.002501  3.967253  -0.003
C  C39  1  0.12092481  0.17482326  0.02118183  1  -0.035287  -0.000141  3.734798  0.0  -0.029342  -0.002037  3.979139  -0.002  -0.03096  -0.001087  3.997448  -0.001  -0.004693  -0.028447  -0.002502  3.966997  -0.003
C  C40  1  0.77153338  0.77596969  0.05440641  1  0.656243  -0.000968  3.858527  -0.001  0.613452  0.000427  4.155749  0.001  0.652551  0.000449  4.144728  0.001  0.211555  0.586501  0.00056  4.161576  0.001
C  C41  1  0.22846996  0.22403356  0.94559074  1  0.656427  -0.000968  3.858123  -0.001  0.613586  0.000429  4.155523  0.001  0.652685  0.00045  4.144504  0.001  0.211638  0.586641  0.000561  4.16135  0.001
C  C42  1  0.22018645  0.95346366  0.77422306  1  0.663968  -0.007632  3.860727  -0.01  0.628039  0.000306  4.164161  -0.001  0.667126  0.000712  4.156463  0.0  0.209403  0.600397  0.000184  4.168727  -0.002
C  C43  1  0.77980609  0.04655185  0.22577644  1  0.664003  -0.007633  3.860761  -0.01  0.628082  0.000305  4.164109  -0.001  0.667174  0.000711  4.156403  0.0  0.20938  0.600437  0.000182  4.168676  -0.002
C  C44  1  0.27715000  0.62500305  0.88212401  1  0.634952  0.004485  3.903027  0.008  0.594693  -0.000123  4.205479  0.003  0.634128  0.00041  4.195688  0.003  0.205081  0.567834  -0.000668  4.211085  0.003
C  C45  1  0.72285952  0.37498796  0.11788003  1  0.634941  0.004483  3.903124  0.008  0.59479  -0.000124  4.205359  0.003  0.634208  0.000409  4.195588  0.003  0.205063  0.567928  -0.000668  4.210944  0.003
C  C46  1  0.49417023  0.55565634  0.68242989  1  0.137572  0.005805  3.683651  0.006  0.109607  0.000384  3.940981  0.001  0.120179  0.001468  3.959564  0.002  0.047084  0.10299  -0.000468  3.928602  0.0
C  C47  1  0.50582524  0.44434576  0.31756819  1  0.137492  0.0058  3.683741  0.006  0.109549  0.000384  3.941059  0.001  0.12012  0.001468  3.959639  0.002  0.047036  0.102933  -0.000468  3.928665  0.0
C  C48  1  0.56804363  0.59673116  0.59868284  1  -0.141764  -0.00916  3.686154  -0.01  -0.162639  -0.003832  3.933124  -0.005  -0.170844  -0.003612  3.952701  -0.004  -0.074208  -0.157367  -0.003958  3.920206  -0.005
C  C49  1  0.43195216  0.40326981  0.40131324  1  -0.141803  -0.009152  3.686132  -0.01  -0.162674  -0.003833  3.93315  -0.005  -0.170882  -0.003612  3.952732  -0.004  -0.074264  -0.157404  -0.003958  3.920227  -0.005
C  C50  1  0.67909905  0.48651480  0.55653409  1  0.071011  0.007198  3.779076  0.007  0.083544  0.002353  4.012618  0.003  0.089572  0.002629  4.032782  0.003  0.019655  0.079403  0.002104  3.998947  0.002
C  C51  1  0.32089512  0.51348396  0.44346648  1  0.071088  0.007197  3.77888  0.007  0.083532  0.002355  4.012527  0.003  0.089563  0.002629  4.03268  0.003  0.019737  0.079382  0.002104  3.998851  0.002
C  C52  1  0.70732819  0.33754105  0.60020736  1  -0.142915  -0.01012  3.680054  -0.011  -0.162916  -0.004393  3.924539  -0.005  -0.170722  -0.003961  3.942849  -0.005  -0.075275  -0.158003  -0.004659  3.912732  -0.006
C  C53  1  0.29267198  0.66246108  0.39979136  1  -0.14299  -0.010118  3.680015  -0.011  -0.162984  -0.004395  3.924521  -0.005  -0.170764  -0.003962  3.942839  -0.005  -0.075354  -0.158073  -0.00466  3.912716  -0.006
C  C54  1  0.62824155  0.30539532  0.68362771  1  0.13649  0.00537  3.70827  0.006  0.107677  -0.000143  3.967554  0.001  0.118157  0.001179  3.986229  0.002  0.047197  0.100867  -0.001161  3.955569  -0.001
C  C55  1  0.37175661  0.69460567  0.31636975  1  0.136555  0.005361  3.708349  0.006  0.107743  -0.000142  3.967635  0.001  0.118224  0.001179  3.986298  0.002  0.047258  0.100926  -0.001161  3.955646  -0.001
C  C56  1  0.76558210  0.52370724  0.47092353  1  0.252837  -0.001073  3.825019  -0.001  0.232945  -0.000323  4.107752  0.0  0.238514  -0.000311  4.126297  0.0  0.205571  0.229616  -0.000344  4.094696  0.0
C  C57  1  0.23441487  0.47629374  0.52907324  1  0.252827  -0.001072  3.825179  -0.001  0.232982  -0.000323  4.107882  0.0  0.238546  -0.000312  4.126437  0.0  0.205539  0.229652  -0.000344  4.09482  0.0
C  C58  1  0.92896563  0.50126755  0.35602100  1  0.30867  0.001149  3.72031  0.001  0.272957  0.000407  3.994425  0.0  0.28371  0.000415  4.008827  0.001  0.22926  0.265964  0.000391  3.984665  0.0
C  C59  1  0.07103136  0.49873344  0.64397788  1  0.308696  0.001147  3.720322  0.001  0.273006  0.000407  3.994412  0.0  0.283746  0.000415  4.008797  0.001  0.229316  0.266013  0.000391  3.984668  0.0
C  C60  1  0.05529209  0.43536870  0.29236105  1  0.072142  -0.007153  3.749509  -0.007  0.087757  -0.002576  3.982719  -0.003  0.094496  -0.002833  3.998506  -0.003  0.024583  0.083014  -0.002372  3.97219  -0.002
C  C61  1  0.94470253  0.56463227  0.70763574  1  0.072212  -0.007136  3.74952  -0.007  0.087805  -0.002577  3.982759  -0.003  0.094541  -0.002834  3.998549  -0.003  0.024594  0.083063  -0.002372  3.972244  -0.002
C  C62  1  0.12833527  0.28053883  0.31140710  1  -0.124854  0.008913  3.660386  0.009  -0.145212  0.003882  3.900071  0.005  -0.151558  0.003683  3.916836  0.004  -0.068802  -0.141258  0.003891  3.889171  0.005
C  C63  1  0.87165721  0.71945769  0.68859231  1  -0.124859  0.008891  3.66053  0.009  -0.145259  0.003883  3.900247  0.005  -0.151606  0.003682  3.917011  0.004  -0.06888  -0.141307  0.003891  3.889355  0.005
C  C64  1  0.25224059  0.21530365  0.25403576  1  0.129436  -0.005321  3.702275  -0.006  0.103429  -0.00026  3.960146  -0.001  0.113329  -0.001379  3.977506  -0.002  0.051644  0.097217  0.000512  3.948567  0.0
C  C65  1  0.74775708  0.78469511  0.74596264  1  0.129418  -0.005302  3.702455  -0.006  0.103426  -0.000262  3.960319  -0.001  0.113335  -0.001379  3.97767  -0.002  0.051633  0.097213  0.000512  3.948751  0.0
C  C66  1  0.23423360  0.44331958  0.15947580  1  0.119921  -0.005494  3.690282  -0.006  0.089633  -0.000561  3.958838  -0.001  0.098139  -0.001683  3.978524  -0.003  0.041937  0.084188  0.000239  3.945868  0.0
C  C67  1  0.76576947  0.55667698  0.84052419  1  0.119916  -0.005477  3.690198  -0.006  0.089632  -0.000562  3.958768  -0.001  0.098129  -0.001683  3.978468  -0.003  0.041893  0.084191  0.000239  3.945806  0.0
C  C68  1  0.11108323  0.51718887  0.21430145  1  -0.124901  0.008397  3.659848  0.009  -0.149271  0.003586  3.909068  0.004  -0.155677  0.003425  3.927612  0.004  -0.078019  -0.145281  0.003578  3.897273  0.004
C  C69  1  0.88891493  0.48281213  0.78569671  1  -0.124968  0.008372  3.659923  0.009  -0.149338  0.003586  3.90914  0.004  -0.155744  0.003425  3.927685  0.004  -0.078043  -0.145348  0.003577  3.89735  0.004
N  N70  1  0.52513857  0.41234679  0.72538579  1  -0.324348  -0.081993  3.33782  -0.101  -0.282578  -0.058025  3.647058  -0.077  -0.316664  -0.048736  3.670056  -0.068  -0.352637  -0.262066  -0.061651  3.633661  -0.078
N  N71  1  0.47485691  0.58765532  0.27461440  1  -0.32431  -0.081988  3.33782  -0.101  -0.282557  -0.058026  3.647077  -0.077  -0.316623  -0.048737  3.670054  -0.068  -0.35263  -0.262028  -0.061655  3.633639  -0.078
N  N72  1  0.87744203  0.42024487  0.42969917  1  -0.436468  -0.000271  2.920547  0.0  -0.413225  -7.5e-05  3.189921  0.0  -0.425502  -0.000143  3.201994  0.0  -0.326182  -0.404911  -5.2e-05  3.18177  0.0
N  N73  1  0.12255565  0.57975390  0.57029923  1  -0.436479  -0.000271  2.920695  0.0  -0.41325  -7.4e-05  3.19005  0.0  -0.42553  -0.000142  3.202128  0.0  -0.326202  -0.404933  -5.2e-05  3.181902  0.0
N  N74  1  0.74463097  0.66485681  0.42681239  1  -0.222647  0.000773  2.826897  0.001  -0.222704  0.000158  3.097191  0.0  -0.226002  0.00024  3.109558  0.0  -0.208548  -0.220591  0.000146  3.089095  0.0
N  N75  1  0.25536533  0.33514641  0.57318626  1  -0.222642  0.000774  2.827061  0.001  -0.222698  0.000159  3.097341  0.0  -0.226016  0.000241  3.109693  0.0  -0.208534  -0.220584  0.000146  3.089244  0.0
N  N76  1  0.84820123  0.64867438  0.35465412  1  -0.187259  -0.000419  3.39154  -0.001  -0.124265  -9.9e-05  3.631278  0.0  -0.137798  -0.000115  3.646366  0.0  -0.238296  -0.11564  -0.000119  3.622086  0.0
N  N77  1  0.15179880  0.35132440  0.64534497  1  -0.187311  -0.000418  3.391629  -0.001  -0.12433  -9.9e-05  3.631367  0.0  -0.1378  -0.000114  3.646388  0.0  -0.238295  -0.115705  -0.000118  3.622184  0.0
N  N78  1  0.30429414  0.29493935  0.17883190  1  -0.322966  0.069406  3.38001  0.085  -0.278243  0.050297  3.683528  0.066  -0.309671  0.042659  3.705925  0.06  -0.355106  -0.258997  0.052261  3.670082  0.066
N  N79  1  0.69570437  0.70506054  0.82116779  1  -0.322911  0.069385  3.37992  0.085  -0.278187  0.050294  3.683423  0.066  -0.30961  0.042658  3.705811  0.06  -0.355059  -0.258945  0.052255  3.669994  0.066
O  O80  1  0.65449216  0.20478494  0.88325612  1  -0.612306  -0.058616  2.127648  -0.076  -0.581165  -0.040545  2.420503  -0.057  -0.620299  -0.032219  2.406687  -0.048  -0.32271  -0.554299  -0.045521  2.43045  -0.062
O  O81  1  0.34550617  0.79521157  0.11673899  1  -0.61237  -0.058604  2.127768  -0.076  -0.581254  -0.040537  2.420607  -0.057  -0.62038  -0.032213  2.406801  -0.048  -0.32272  -0.554375  -0.045509  2.430536  -0.062
O  O82  1  0.63265474  0.06244871  0.02639651  1  -0.588263  0.055894  2.197165  0.073  -0.552797  0.037491  2.484767  0.054  -0.592595  0.02965  2.475065  0.045  -0.307883  -0.526073  0.040743  2.491911  0.056
O  O83  1  0.36734869  0.93754674  0.97360571  1  -0.588438  0.055897  2.196882  0.073  -0.553033  0.037492  2.484525  0.054  -0.592829  0.029651  2.474819  0.045  -0.307987  -0.526313  0.040744  2.491678  0.056
O  O84  1  0.65547709  0.72295443  0.02505871  1  -0.633261  -0.016464  2.20215  -0.021  -0.604831  -0.003904  2.516869  -0.005  -0.658675  -0.00264  2.507833  -0.004  -0.334258  -0.566842  -0.005335  2.522818  -0.007
O  O85  1  0.34452900  0.27704773  0.97494418  1  -0.633326  -0.016463  2.202121  -0.021  -0.60483  -0.003906  2.51682  -0.005  -0.658693  -0.002644  2.507797  -0.004  -0.334249  -0.566846  -0.005337  2.522784  -0.007
O  O86  1  0.80029439  0.77034275  0.14037547  1  -0.546724  0.020721  1.972612  0.025  -0.514918  0.012119  2.211502  0.016  -0.541326  0.007658  2.202708  0.01  -0.277151  -0.495036  0.016521  2.216643  0.021
O  O87  1  0.19970716  0.22965491  0.85962372  1  -0.54682  0.02072  1.9726  0.025  -0.514962  0.012119  2.21152  0.016  -0.541376  0.007659  2.202731  0.01  -0.277175  -0.495092  0.016518  2.216671  0.021
O  O88  1  0.37730609  0.89274892  0.78359966  1  -0.60277  0.117078  1.996353  0.152  -0.603018  0.066255  2.283628  0.096  -0.652529  0.046207  2.274935  0.072  -0.334983  -0.569123  0.078068  2.289789  0.108
O  O89  1  0.62270048  0.10725548  0.21640227  1  -0.602741  0.117008  1.996683  0.152  -0.602976  0.066231  2.283941  0.096  -0.652479  0.04619  2.275239  0.071  -0.334918  -0.569084  0.078038  2.290106  0.108
O  O90  1  0.15675527  0.05513344  0.70701744  1  -0.559778  0.048882  1.882845  0.061  -0.545978  0.018885  2.103595  0.026  -0.575373  0.008787  2.09569  0.013  -0.31386  -0.521171  0.031295  2.106484  0.041
O  O91  1  0.84326138  0.94486876  0.29298249  1  -0.559832  0.048926  1.882538  0.061  -0.546075  0.018891  2.103267  0.026  -0.575476  0.008789  2.095362  0.013  -0.313953  -0.521256  0.031311  2.106151  0.041
O  O92  1  0.24688290  0.52892091  0.83524866  1  -0.560161  -0.112887  2.056821  -0.147  -0.537364  -0.067142  2.332031  -0.097  -0.581659  -0.050727  2.32865  -0.077  -0.307972  -0.507538  -0.075998  2.334649  -0.105
O  O93  1  0.75311646  0.47108010  0.16475231  1  -0.560083  -0.112895  2.056804  -0.148  -0.537333  -0.067143  2.331974  -0.097  -0.581619  -0.050726  2.328615  -0.077  -0.30794  -0.5075  -0.076007  2.334573  -0.105
O  O94  1  0.41367101  0.60842827  0.92206365  1  -0.618278  -0.000659  2.076908  -0.001  -0.601538  -0.000321  2.3697  -0.001  -0.634156  0.000239  2.355473  0.0  -0.316848  -0.577847  -0.001  2.378637  -0.002
O  O95  1  0.58632567  0.39157386  0.07793864  1  -0.618411  -0.00066  2.076843  -0.001  -0.601715  -0.000321  2.369575  -0.001  -0.634329  0.000239  2.35536  0.0  -0.316911  -0.578016  -0.001  2.3785  -0.002
