# generated using pymatgen
data_CuAg2MoH6C10N4(O3F2)2
_symmetry_space_group_name_H-M   'P 1'
_cell_length_a   7.25626521
_cell_length_b   8.14159510
_cell_length_c   13.86888746
_cell_angle_alpha   89.99913753
_cell_angle_beta   93.61900202
_cell_angle_gamma   90.00009400
_symmetry_Int_Tables_number   1
_chemical_formula_structural   CuAg2MoH6C10N4(O3F2)2
_chemical_formula_sum   'Cu2 Ag4 Mo2 H12 C20 N8 O12 F8'
_cell_volume   817.70632628
_cell_formula_units_Z   2
loop_
 _symmetry_equiv_pos_site_id
 _symmetry_equiv_pos_as_xyz
  1  'x, y, z'
loop_
 _atom_site_type_symbol
 _atom_site_label
 _atom_site_symmetry_multiplicity
 _atom_site_fract_x
 _atom_site_fract_y
 _atom_site_fract_z
 _atom_site_occupancy
 _atom_site_hle17_ddec_charge
 _atom_site_hle17_ddec_spin_density
 _atom_site_hle17_ddec_sum_bond_order
 _atom_site_hle17_magmom
 _atom_site_hse06_10hf_ddec_charge
 _atom_site_hse06_10hf_ddec_spin_density
 _atom_site_hse06_10hf_ddec_sum_bond_order
 _atom_site_hse06_10hf_magmom
 _atom_site_hse06_ddec_charge
 _atom_site_hse06_ddec_spin_density
 _atom_site_hse06_ddec_sum_bond_order
 _atom_site_hse06_magmom
 _atom_site_pbe_cm5_charge
 _atom_site_pbe_ddec_charge
 _atom_site_pbe_ddec_spin_density
 _atom_site_pbe_ddec_sum_bond_order
 _atom_site_pbe_magmom
Cu  Cu0  1  0.50002919  0.49994148  0.50000874  1  0.879542  -0.731758  1.864938  -0.513  0.871621  -0.81413  2.249925  -0.628  0.951735  -0.891874  2.186054  -0.714  0.761206  0.822946  -0.748151  2.294741  -0.565
Cu  Cu1  1  0.99998944  0.99997876  0.99999491  1  0.879135  0.731752  1.865447  0.513  0.871317  0.814139  2.250197  0.628  0.951295  0.891882  2.18651  0.714  0.761154  0.822869  0.748149  2.294696  0.565
Ag  Ag2  1  0.04703402  0.80939043  0.49036625  1  0.689148  -0.0094  1.296591  -0.005  0.574487  -0.003748  1.730374  -0.002  0.602778  -0.001176  1.677152  0.0  0.462791  0.557097  -0.009988  1.767088  -0.006
Ag  Ag3  1  0.45295119  0.30937327  0.00963535  1  0.689159  0.009415  1.296597  0.005  0.574476  0.00375  1.730427  0.002  0.60277  0.001175  1.677194  0.0  0.462755  0.557083  0.010001  1.76714  0.006
Ag  Ag4  1  0.95291948  0.19068167  0.50963391  1  0.689158  -0.009443  1.296785  -0.005  0.574439  -0.00376  1.730752  -0.002  0.602748  -0.001178  1.677467  0.0  0.46268  0.557076  -0.010031  1.767455  -0.006
Ag  Ag5  1  0.54705482  0.69066690  0.99036086  1  0.689112  0.009436  1.296844  0.005  0.574444  0.003758  1.730688  0.002  0.602727  0.001177  1.677454  0.0  0.462691  0.557071  0.010022  1.767387  0.006
Mo  Mo6  1  0.49997000  0.99995406  0.49999944  1  2.296803  0.003578  4.040373  0.004  2.298462  0.001833  4.571583  0.002  2.408591  0.001031  4.529089  0.002  1.481105  2.223868  0.003077  4.598383  0.004
Mo  Mo7  1  0.99999875  0.49998433  0.00000279  1  2.296819  -0.003586  4.040099  -0.004  2.298601  -0.001837  4.571108  -0.002  2.408724  -0.001031  4.528611  -0.002  1.481225  2.224028  -0.003077  4.597919  -0.004
H  H8  1  0.80570727  0.70632244  0.80414223  1  0.115465  -0.000793  0.937211  -0.001  0.120259  -0.000657  1.002389  -0.001  0.123147  -0.000419  0.999948  -0.001  0.122684  0.118077  -0.000875  1.004265  -0.001
H  H9  1  0.69427944  0.20632467  0.69585788  1  0.115518  0.000793  0.937031  0.001  0.120268  0.000657  1.002285  0.001  0.123155  0.000419  0.999833  0.001  0.122715  0.118062  0.000876  1.004184  0.001
H  H10  1  0.19431388  0.29367965  0.19586243  1  0.11531  -0.000795  0.937255  -0.001  0.120111  -0.000657  1.002463  -0.001  0.123008  -0.000419  1.000033  -0.001  0.122643  0.117954  -0.000876  1.004314  -0.001
H  H11  1  0.30569202  0.79368480  0.30414218  1  0.115426  0.000793  0.937236  0.001  0.120195  0.000657  1.002432  0.001  0.123092  0.000419  1.000001  0.001  0.122673  0.11803  0.000876  1.004287  0.001
H  H12  1  0.25243869  0.59350097  0.83438504  1  0.112616  -0.000564  0.959642  -0.001  0.116307  -0.00047  1.02479  -0.001  0.119735  -0.000325  1.021282  0.0  0.122432  0.113605  -0.0006  1.027659  -0.001
H  H13  1  0.24755350  0.09352494  0.66560655  1  0.112489  0.000561  0.959788  0.001  0.116233  0.000471  1.024871  0.001  0.11966  0.000325  1.021365  0.0  0.122393  0.113536  0.0006  1.027746  0.001
H  H14  1  0.74756875  0.40656008  0.16560112  1  0.112568  -0.000562  0.959661  -0.001  0.116302  -0.00047  1.024862  -0.001  0.11973  -0.000325  1.021351  0.0  0.12239  0.113612  -0.0006  1.027729  -0.001
H  H15  1  0.75244693  0.90660366  0.33439883  1  0.112546  0.000562  0.959749  0.001  0.11633  0.00047  1.024933  0.001  0.119756  0.000325  1.021425  0.0  0.122385  0.113629  0.0006  1.027807  0.001
H  H16  1  0.22080007  0.49737337  0.65984450  1  0.115946  -0.001039  0.927362  -0.002  0.122645  -0.000873  0.988596  -0.002  0.125628  -0.000643  0.986421  -0.001  0.131727  0.120161  -0.001047  0.990682  -0.002
H  H17  1  0.27921444  0.99739843  0.84015007  1  0.115852  0.00104  0.927381  0.002  0.122594  0.000873  0.988636  0.002  0.125561  0.000644  0.986479  0.001  0.131698  0.120103  0.001047  0.99072  0.002
H  H18  1  0.77924456  0.50258205  0.34016026  1  0.115906  -0.001041  0.927372  -0.002  0.122527  -0.000873  0.98866  -0.002  0.125537  -0.000643  0.986459  -0.001  0.131657  0.120043  -0.001047  0.990738  -0.002
H  H19  1  0.72076677  0.00260980  0.15983519  1  0.115895  0.001038  0.927406  0.002  0.122555  0.000873  0.988686  0.002  0.125538  0.000644  0.986513  0.001  0.131666  0.12007  0.001047  0.990767  0.002
C  C20  1  0.65788915  0.60774745  0.67660967  1  0.071051  0.005817  3.693262  0.006  0.078474  0.000809  3.937274  0.001  0.077949  0.001752  3.954858  0.003  0.124522  0.078225  0.000114  3.926702  0.001
C  C21  1  0.84211546  0.10776507  0.82338976  1  0.071046  -0.005812  3.693268  -0.006  0.078567  -0.00081  3.93707  -0.001  0.078045  -0.00175  3.954646  -0.003  0.124483  0.078312  -0.000113  3.926523  -0.001
C  C22  1  0.34215685  0.39220674  0.32339874  1  0.071198  0.005825  3.693131  0.006  0.078423  0.000813  3.937478  0.001  0.077893  0.001751  3.955064  0.003  0.124514  0.078172  0.000115  3.92692  0.001
C  C23  1  0.15785741  0.89222474  0.17660458  1  0.07117  -0.005811  3.693012  -0.006  0.078544  -0.000805  3.937134  -0.001  0.078013  -0.001751  3.954712  -0.003  0.124518  0.078299  -0.000115  3.926586  -0.001
C  C24  1  0.67478829  0.66057372  0.77220920  1  0.115295  -0.006398  3.599678  -0.006  0.074834  -0.002417  3.850134  -0.002  0.080261  -0.002539  3.864056  -0.002  0.073457  0.070832  -0.002322  3.841708  -0.002
C  C25  1  0.82520805  0.16058271  0.72779236  1  0.115239  0.006397  3.59956  0.006  0.074756  0.002418  3.850016  0.002  0.08019  0.002537  3.86394  0.002  0.073455  0.070781  0.002321  3.84159  0.002
C  C26  1  0.32523979  0.33941977  0.22779282  1  0.115605  -0.006401  3.599406  -0.006  0.07515  -0.00242  3.850074  -0.002  0.080559  -0.002538  3.864013  -0.002  0.073627  0.071132  -0.002321  3.841641  -0.002
C  C27  1  0.17476891  0.83944272  0.27221149  1  0.115395  0.006392  3.599442  0.006  0.074978  0.002413  3.849943  0.002  0.080391  0.002536  3.86388  0.002  0.073552  0.070968  0.002321  3.841501  0.002
C  C28  1  0.36837428  0.59837171  0.78827064  1  0.106084  -0.009041  3.599478  -0.01  0.07715  -0.003917  3.846973  -0.005  0.081767  -0.003662  3.860015  -0.004  0.070307  0.073654  -0.004013  3.839174  -0.005
C  C29  1  0.13162343  0.09839185  0.71172399  1  0.106336  0.009046  3.599391  0.01  0.077333  0.003917  3.847061  0.005  0.081956  0.003662  3.860098  0.004  0.070349  0.073832  0.004014  3.839271  0.005
C  C30  1  0.63164693  0.40165126  0.21172393  1  0.10632  -0.009058  3.599263  -0.01  0.077183  -0.003918  3.846898  -0.005  0.081792  -0.003662  3.859965  -0.004  0.070232  0.073682  -0.004014  3.839102  -0.005
C  C31  1  0.86836736  0.90168148  0.28827746  1  0.106409  0.009034  3.5993  0.01  0.077075  0.00392  3.847166  0.005  0.081689  0.003662  3.860228  0.004  0.070209  0.07357  0.004014  3.839371  0.005
C  C32  1  0.35087352  0.54280149  0.69306566  1  0.117752  0.006616  3.593525  0.007  0.090674  0.000773  3.84687  0.001  0.096516  0.001923  3.861103  0.003  0.074408  0.086402  -0.000172  3.83883  0.0
C  C33  1  0.14913380  0.04282414  0.80693196  1  0.117791  -0.006612  3.593538  -0.007  0.090586  -0.000772  3.847037  -0.001  0.096446  -0.001922  3.861267  -0.003  0.074392  0.08632  0.000173  3.838997  0.0
C  C34  1  0.64916419  0.45716621  0.30694246  1  0.117624  0.006627  3.593751  0.007  0.090872  0.000771  3.8469  0.001  0.096684  0.001922  3.861129  0.003  0.074618  0.086607  -0.000173  3.838848  0.0
C  C35  1  0.85085014  0.95719515  0.19305916  1  0.117617  -0.0066  3.593704  -0.007  0.090808  -0.000776  3.846951  -0.001  0.096642  -0.001922  3.861197  -0.003  0.07452  0.086544  0.000172  3.838917  0.0
C  C36  1  0.80656437  0.62152341  0.60651313  1  0.614232  0.003387  3.904425  0.006  0.565569  -0.000761  4.203327  0.001  0.602053  -0.000497  4.198948  0.001  0.208704  0.540631  -0.001118  4.205936  0.001
C  C37  1  0.69344022  0.12151934  0.89348979  1  0.614109  -0.003388  3.904527  -0.006  0.565434  0.000762  4.203408  -0.001  0.601915  0.000496  4.199023  -0.001  0.208648  0.540481  0.001119  4.206063  -0.001
C  C38  1  0.19345818  0.37845166  0.39348870  1  0.614175  0.003392  3.904394  0.006  0.565689  -0.00076  4.203135  0.001  0.60217  -0.000497  4.198746  0.001  0.2087  0.540758  -0.001119  4.205748  0.001
C  C39  1  0.30654367  0.87846556  0.10650998  1  0.614143  -0.003393  3.904168  -0.006  0.565474  0.000762  4.203147  -0.001  0.601959  0.000496  4.198757  -0.001  0.208675  0.540531  0.001119  4.20578  -0.001
N  N40  1  0.49573422  0.54969899  0.63828351  1  -0.255383  -0.069644  3.340532  -0.086  -0.219771  -0.049025  3.628005  -0.064  -0.2419  -0.04155  3.646389  -0.057  -0.332687  -0.207845  -0.051762  3.618586  -0.065
N  N41  1  0.00428415  0.04971878  0.86171658  1  -0.255412  0.06964  3.340737  0.086  -0.219736  0.049024  3.628057  0.064  -0.241841  0.041548  3.646434  0.057  -0.332591  -0.207849  0.051761  3.618629  0.065
N  N42  1  0.50431866  0.45023800  0.36172945  1  -0.255476  -0.069647  3.341136  -0.086  -0.21996  -0.049022  3.628671  -0.064  -0.242074  -0.041547  3.647047  -0.057  -0.332821  -0.208032  -0.05176  3.619247  -0.065
N  N43  1  0.99569566  0.95026366  0.13827295  1  -0.255347  0.069634  3.341055  0.086  -0.219781  0.049025  3.628423  0.064  -0.241866  0.04155  3.64679  0.057  -0.332694  -0.207911  0.051763  3.619009  0.065
N  N44  1  0.52939709  0.65733275  0.82751306  1  -0.246445  0.00643  3.21978  0.008  -0.178828  0.002148  3.506585  0.003  -0.19135  0.002424  3.51715  0.003  -0.305206  -0.170959  0.002051  3.500285  0.002
N  N45  1  0.97059789  0.15735075  0.67248416  1  -0.246442  -0.006431  3.219556  -0.008  -0.178805  -0.002149  3.506392  -0.003  -0.191333  -0.002423  3.516971  -0.003  -0.305215  -0.170938  -0.002051  3.500084  -0.002
N  N46  1  0.47062136  0.34269636  0.17248141  1  -0.246624  0.006437  3.219663  0.008  -0.179005  0.00215  3.50665  0.003  -0.191528  0.002424  3.517227  0.003  -0.305252  -0.17113  0.00205  3.50036  0.002
N  N47  1  0.02938871  0.84272504  0.32752436  1  -0.246555  -0.006421  3.219609  -0.008  -0.178871  -0.002149  3.506601  -0.003  -0.191395  -0.002422  3.51718  -0.003  -0.305162  -0.170996  -0.00205  3.500306  -0.002
O  O48  1  0.76429903  0.56414382  0.52136197  1  -0.595816  -0.088111  2.071168  -0.116  -0.5762  -0.059695  2.375906  -0.086  -0.616448  -0.046229  2.363169  -0.07  -0.316544  -0.550415  -0.067111  2.385226  -0.093
O  O49  1  0.73570831  0.06414501  0.97863794  1  -0.595587  0.088114  2.071427  0.116  -0.576043  0.059694  2.376205  0.086  -0.616285  0.046229  2.363529  0.07  -0.316477  -0.550298  0.067111  2.385514  0.093
O  O50  1  0.23573729  0.43580915  0.47864682  1  -0.595808  -0.088176  2.07073  -0.116  -0.576351  -0.059723  2.375537  -0.086  -0.61665  -0.046247  2.362901  -0.07  -0.31658  -0.550556  -0.067144  2.384854  -0.093
O  O51  1  0.26428113  0.93584112  0.02135697  1  -0.595585  0.088147  2.071038  0.116  -0.576048  0.059709  2.375839  0.086  -0.616303  0.046238  2.363182  0.07  -0.316483  -0.550299  0.067128  2.385135  0.093
O  O52  1  0.95642871  0.69139157  0.63170411  1  -0.557015  -0.019754  1.984821  -0.025  -0.502138  -0.009538  2.231645  -0.013  -0.534545  -0.004764  2.224209  -0.007  -0.299383  -0.478731  -0.014492  2.235574  -0.019
O  O53  1  0.54356905  0.19138301  0.86829435  1  -0.557  0.019763  1.984605  0.025  -0.502137  0.009541  2.231431  0.013  -0.534542  0.004766  2.223992  0.007  -0.299415  -0.478718  0.014498  2.23536  0.019
O  O54  1  0.04358836  0.30864614  0.36828960  1  -0.556973  -0.019766  1.985251  -0.025  -0.502152  -0.009542  2.232065  -0.013  -0.534532  -0.004765  2.224586  -0.007  -0.29941  -0.478766  -0.014498  2.236035  -0.019
O  O55  1  0.45641758  0.80862154  0.13170912  1  -0.557031  0.019772  1.984695  0.025  -0.502179  0.009542  2.231576  0.013  -0.534564  0.004767  2.224101  0.007  -0.299426  -0.478772  0.014501  2.23551  0.019
O  O56  1  0.25419666  0.03158211  0.50699090  1  -0.876966  -0.000731  1.674542  -0.001  -0.866763  -7.6e-05  2.000069  0.0  -0.898779  -3e-05  1.982755  0.0  -0.57108  -0.844568  -0.000431  2.011564  -0.001
O  O57  1  0.24579829  0.53152828  0.99299557  1  -0.877073  0.00074  1.674412  0.001  -0.866879  7.8e-05  1.999923  0.0  -0.898902  2.8e-05  1.982611  0.0  -0.571091  -0.844668  0.000433  2.011405  0.001
O  O58  1  0.74581488  0.96856492  0.49300405  1  -0.877259  -0.000742  1.674689  -0.001  -0.867161  -8e-05  2.000532  0.0  -0.899142  -2.8e-05  1.983057  0.0  -0.571085  -0.844942  -0.000435  2.012052  -0.001
O  O59  1  0.75417738  0.46852786  0.00699310  1  -0.877042  0.000739  1.674517  0.001  -0.866949  7.9e-05  2.000319  0.0  -0.898911  2.8e-05  1.982838  0.0  -0.571064  -0.844737  0.000434  2.01181  0.001
F  F60  1  0.44991805  0.77863069  0.45167253  1  -0.574691  0.001138  0.93333  0.0  -0.555247  0.001056  1.145617  0.0  -0.577751  0.00116  1.126471  0.0  -0.341121  -0.539164  0.000873  1.158699  0.0
F  F61  1  0.05005181  0.27866226  0.04835477  1  -0.574693  -0.001137  0.933142  0.0  -0.555249  -0.001055  1.145361  0.0  -0.577737  -0.00116  1.126221  0.0  -0.341179  -0.539199  -0.000873  1.158434  0.0
F  F62  1  0.55005187  0.22128543  0.54835703  1  -0.574699  0.001137  0.93306  0.0  -0.555208  0.001055  1.145325  0.0  -0.577719  0.001159  1.126177  0.0  -0.341106  -0.539108  0.000872  1.158386  0.0
F  F63  1  0.94993895  0.72131772  0.95165101  1  -0.574713  -0.001137  0.933106  0.0  -0.555285  -0.001055  1.145337  0.0  -0.577773  -0.001159  1.126189  0.0  -0.34117  -0.539229  -0.000872  1.158403  0.0
F  F64  1  0.51401715  0.92359388  0.63196120  1  -0.539318  0.000183  0.823315  0.0  -0.50623  0.000164  0.985958  0.0  -0.528965  9.9e-05  0.975589  0.0  -0.346114  -0.490182  0.000265  0.992884  0.0
F  F65  1  0.98594761  0.42364128  0.86803550  1  -0.539343  -0.000182  0.823351  0.0  -0.506275  -0.000164  0.985983  0.0  -0.529007  -9.8e-05  0.975603  0.0  -0.346115  -0.490236  -0.000264  0.992913  0.0
F  F66  1  0.48593235  0.07622766  0.36801431  1  -0.539352  0.000183  0.823425  0.0  -0.506199  0.000164  0.985963  0.0  -0.528935  9.9e-05  0.975598  0.0  -0.346015  -0.49015  0.000264  0.99289  0.0
F  F67  1  0.01405416  0.57629571  0.13197786  1  -0.539356  -0.000182  0.823388  0.0  -0.506297  -0.000164  0.986007  0.0  -0.529026  -9.8e-05  0.975624  0.0  -0.346075  -0.490257  -0.000265  0.992938  0.0
