# generated using pymatgen
data_Zn3H25C30N7O12
_symmetry_space_group_name_H-M   'P 1'
_cell_length_a   18.62908281
_cell_length_b   18.61102853
_cell_length_c   18.73177145
_cell_angle_alpha   109.84632920
_cell_angle_beta   109.34680127
_cell_angle_gamma   108.83308321
_symmetry_Int_Tables_number   1
_chemical_formula_structural   Zn3H25C30N7O12
_chemical_formula_sum   'Zn6 H50 C60 N14 O24'
_cell_volume   5022.87869761
_cell_formula_units_Z   2
loop_
 _symmetry_equiv_pos_site_id
 _symmetry_equiv_pos_as_xyz
  1  'x, y, z'
loop_
 _atom_site_type_symbol
 _atom_site_label
 _atom_site_symmetry_multiplicity
 _atom_site_fract_x
 _atom_site_fract_y
 _atom_site_fract_z
 _atom_site_occupancy
 _atom_site_pbe_bader_charge
 _atom_site_pbe_bader_spin_density
 _atom_site_pbe_cm5_charge
 _atom_site_pbe_ddec_charge
 _atom_site_pbe_ddec_spin_density
 _atom_site_pbe_ddec_sum_bond_order
 _atom_site_pbe_magmom
Zn  Zn0  1  0.94287491  0.00330641  0.44009550  1  1.29848  0  0.715935  0.93026  0  2.191941  0
Zn  Zn1  1  0.06296236  0.99390865  0.55832596  1  1.304364  0  0.712053  0.937563  0  2.162212  0
Zn  Zn2  1  0.06619639  0.56660445  0.00725969  1  1.299808  0  0.713505  0.932517  0  2.189595  0
Zn  Zn3  1  0.93802922  0.44500430  0.00367223  1  1.3116  0  0.718648  0.946922  0  2.160002  0
Zn  Zn4  1  0.51207491  0.43444890  0.44691240  1  1.298921  0  0.716551  0.941535  0  2.139873  0
Zn  Zn5  1  0.49910750  0.56060579  0.55732592  1  1.297135  0  0.717768  0.931037  0  2.169579  0
H  H6  1  0.08861941  0.72556148  0.31321049  1  0.046067  0  0.096625  0.093587  0  1.000336  0
H  H7  1  0.76911075  0.58948078  0.47815588  1  0.083915  0  0.105323  0.11862  0  1.001414  0
H  H8  1  0.58202113  0.73908968  0.54600439  1  0.406432  0  0.270002  0.268  0  1.017088  0
H  H9  1  0.57129685  0.82055162  0.53634628  1  0.408453  0  0.282415  0.271792  0  0.969081  0
H  H10  1  0.76536188  0.92448803  0.44324300  1  0.423804  0  0.276576  0.271552  0  0.995631  0
H  H11  1  0.66635952  0.84213444  0.37665616  1  0.382323  0  0.279585  0.26052  0  0.978448  0
H  H12  1  0.75418534  0.91090719  0.56643889  1  0.053104  0  0.107531  0.069279  0  0.956924  0
H  H13  1  0.17409675  0.45087984  0.91767961  1  0.462167  0  0.299232  0.305878  0  0.970375  0
H  H14  1  0.21690842  0.38832902  0.87875038  1  0.43994  0  0.309648  0.303714  0  0.940279  0
H  H15  1  0.79707777  0.22843479  0.71720686  1  0.041766  0  0.097654  0.118574  0  0.976535  0
H  H16  1  0.74085094  0.03282154  0.52684942  1  0.43122  0  0.264135  0.260154  0  1.046013  0
H  H17  1  0.12918348  0.24647208  0.75140600  1  0.06494  0  0.102584  0.118103  0  1.000584  0
H  H18  1  0.77030653  0.06984421  0.63142864  1  0.382047  0  0.276593  0.261378  0  0.983358  0
H  H19  1  0.80600757  0.17491540  0.54804605  1  0.038899  0  0.105189  0.05953  0  0.94818  0
H  H20  1  0.92469632  0.70440699  0.29524056  1  0.070892  0  0.102544  0.101596  0  0.981803  0
H  H21  1  0.41340860  0.22443431  0.52530626  1  0.06589  0  0.107123  0.112154  0  0.989243  0
H  H22  1  0.30168312  0.44825108  0.52570384  1  0.447936  0  0.269274  0.268295  0  1.024256  0
H  H23  1  0.20871341  0.44071996  0.46739337  1  0.390845  0  0.280725  0.270582  0  0.971998  0
H  H24  1  0.06876577  0.21108218  0.40843769  1  0.083341  0  0.092286  0.107335  0  0.990579  0
H  H25  1  0.02355143  0.31962617  0.10143019  1  0.481998  0  0.295994  0.305302  0  0.972837  0
H  H26  1  0.06224858  0.27990962  0.16550853  1  0.425806  0  0.301832  0.288408  0  0.957316  0
H  H27  1  0.27289374  0.33188003  0.29295818  1  0.454105  0  0.297833  0.30228  0  0.959921  0
H  H28  1  0.81926710  0.29635927  0.67056359  1  0.008111  0  0.089331  0.095848  0  1.00167  0
H  H29  1  0.17914624  0.27412648  0.19726700  1  0.43902  0  0.301684  0.288193  0  0.956368  0
H  H30  1  0.20302755  0.69795482  0.24032156  1  0.431634  0  0.272432  0.266687  0  1.001744  0
H  H31  1  0.21407678  0.69183952  0.32845152  1  0.374947  0  0.274189  0.255657  0  0.991556  0
H  H32  1  0.79338070  0.61846853  0.12075256  1  0.409702  0  0.290031  0.277452  0  0.96818  0
H  H33  1  0.81692854  0.60933600  0.04164041  1  0.412839  0  0.279774  0.272012  0  0.994208  0
H  H34  1  0.62903111  0.44890088  0.87714310  1  0.438348  0  0.312968  0.306252  0  0.934131  0
H  H35  1  0.72529346  0.44636235  0.92046688  1  0.470162  0  0.301456  0.312168  0  0.972859  0
H  H36  1  0.59850721  0.50313591  0.77958002  1  0.043294  0  0.105189  0.119464  0  0.995718  0
H  H37  1  0.80132303  0.53942571  0.63444873  1  0.07705  0  0.094537  0.111119  0  0.983041  0
H  H38  1  0.84742220  0.65314612  0.70936156  1  0.043472  0  0.092232  0.102436  0  0.990414  0
H  H39  1  0.30687541  0.12386105  0.54529610  1  0.079816  0  0.105904  0.110302  0  0.990566  0
H  H40  1  0.96113492  0.51278750  0.78396551  1  0.410685  0  0.275982  0.272745  0  0.988971  0
H  H41  1  0.87006103  0.45773523  0.69016161  1  0.37734  0  0.27736  0.26101  0  0.98385  0
H  H42  1  0.95019420  0.64169052  0.82427417  1  0.05733  0  0.107835  0.063266  0  0.942469  0
H  H43  1  0.88968472  0.81266028  0.07980130  1  0.400863  0  0.29037  0.283796  0  0.964578  0
H  H44  1  0.90019573  0.87910478  0.17361145  1  0.42556  0  0.286304  0.285982  0  0.982063  0
H  H45  1  0.07566265  0.84086521  0.16711535  1  0.066491  0  0.099889  0.110988  0  0.987574  0
H  H46  1  0.20759212  0.92592105  0.35997635  1  0.415149  0  0.292635  0.287492  0  0.95434  0
H  H47  1  0.15995695  0.93911701  0.42104845  1  0.419579  0  0.282553  0.280684  0  0.985047  0
H  H48  1  0.96902899  0.76483402  0.52982802  1  0.489848  0  0.300938  0.309644  0  0.97104  0
H  H49  1  0.91763790  0.66041808  0.51245415  1  0.437749  0  0.313403  0.308782  0  0.932837  0
H  H50  1  0.17513181  0.30042794  0.37966804  1  0.036376  0  0.088044  0.02626  0  1.012279  0
H  H51  1  0.58432276  0.74936061  0.41360472  1  0.042915  0  0.089662  0.02566  0  0.985875  0
H  H52  1  0.12747893  0.29645242  0.52050288  1  0.078806  0  0.100553  0.123837  0  0.977473  0
H  H53  1  0.36043679  0.69837937  0.42206264  1  0.034731  0  0.094452  0.111159  0  0.981202  0
H  H54  1  0.42217015  0.68270017  0.36853141  1  0.038666  0  0.088267  0.09581  0  1.011774  0
H  H55  1  0.30904532  0.66048569  0.23468538  1  0.066323  0  0.105489  0.061063  0  0.944747  0
C  C56  1  0.90974545  0.86999465  0.51202009  1  1.491286  0  0.221191  0.629306  0  4.116373  0
C  C57  1  0.69165452  0.73116089  0.48276794  1  -0.047893  0  -0.023074  -0.042064  0  3.934889  0
C  C58  1  0.63851501  0.77859292  0.48072131  1  0.342196  0  0.013805  0.129561  0  3.879226  0
C  C59  1  0.97629561  0.89028271  0.34965350  1  1.500721  0  0.21916  0.625854  0  4.116667  0
C  C60  1  0.72156164  0.85754718  0.49858685  1  0.362337  0  0.011029  0.110058  0  3.845022  0
C  C61  1  0.91951179  0.20337754  0.66288278  1  0.036874  0  -0.031421  -0.07322  0  3.895649  0
C  C62  1  0.99130171  0.19135920  0.66951736  1  -0.030267  0  -0.015893  -0.036838  0  4.020849  0
C  C63  1  0.07239880  0.25489032  0.74468621  1  -0.01451  0  -0.102216  -0.23105  0  3.932421  0
C  C64  1  0.08356281  0.32970056  0.81110808  1  0.411819  0  0.102776  0.293457  0  4.082687  0
C  C65  1  0.00895465  0.33869139  0.80542729  1  0.01402  0  -0.028054  -0.194252  0  3.935776  0
C  C66  1  0.92910002  0.27390183  0.73073234  1  -0.074012  0  -0.011363  0.079777  0  3.968785  0
C  C67  1  0.04079295  0.80989625  0.19454214  1  -0.057987  0  -0.091624  -0.204564  0  3.646297  0
C  C68  1  0.83362628  0.24871941  0.68569619  1  0.016257  0  -0.155273  -0.255073  0  3.857477  0
C  C69  1  0.82078732  0.16834956  0.60671186  1  0.410552  0  0.012091  0.176405  0  3.895633  0
C  C70  1  0.19771339  0.22645675  0.48779945  1  -0.010339  0  0.001028  0.08118  0  3.903327  0
C  C71  1  0.14652990  0.10687876  0.52091254  1  1.543814  0  0.219521  0.608644  0  4.141328  0
C  C72  1  0.21298818  0.16761218  0.51225612  1  -0.091616  0  -0.013869  -0.075544  0  3.977039  0
C  C73  1  0.29269385  0.16898967  0.52619096  1  -0.025618  0  -0.081384  -0.09307  0  3.982117  0
C  C74  1  0.35292901  0.22592456  0.51528928  1  0.038212  0  -0.086239  -0.114021  0  3.984892  0
C  C75  1  0.33787331  0.28703043  0.49336328  1  -0.040371  0  -0.009494  -0.048847  0  3.977881  0
C  C76  1  0.25880272  0.28489851  0.47953194  1  0.012411  0  -0.007166  -0.014893  0  3.867886  0
C  C77  1  0.20100002  0.32279877  0.45013326  1  0.376841  0  0.009022  0.177707  0  3.861873  0
C  C78  1  0.07651887  0.84368277  0.29442621  1  0.458028  0  0.095331  0.27921  0  3.76209  0
C  C79  1  0.13393783  0.25967776  0.46531194  1  -0.069622  0  -0.155249  -0.264768  0  3.840113  0
C  C80  1  0.09073657  0.47171395  0.11537687  1  1.505654  0  0.221484  0.627919  0  4.115618  0
C  C81  1  0.02781873  0.64889105  0.12080963  1  1.506429  0  0.211132  0.60399  0  4.140047  0
C  C82  1  0.86303914  0.50033833  0.90410527  1  1.472738  0  0.212716  0.611786  0  4.136562  0
C  C83  1  0.98572290  0.11683314  0.60047588  1  1.517517  0  0.224859  0.620372  0  4.108188  0
C  C84  1  0.01402222  0.40871553  0.87815083  1  1.533178  0  0.223955  0.634202  0  4.114986  0
C  C85  1  0.61885797  0.54373284  0.65718150  1  1.538249  0  0.224851  0.623043  0  4.116368  0
C  C86  1  0.62018638  0.58560836  0.47302840  1  1.516723  0  0.226061  0.616545  0  4.115628  0
C  C87  1  0.37327480  0.49621450  0.39528012  1  1.503763  0  0.224595  0.634266  0  4.111746  0
C  C88  1  0.40329954  0.35452497  0.48942453  1  1.536128  0  0.222515  0.612766  0  4.132005  0
C  C89  1  0.98364260  0.82886203  0.28198030  1  -0.011714  0  -0.011915  -0.141536  0  3.67217  0
C  C90  1  0.23513844  0.55286157  0.24937501  1  0.00512  0  -0.033299  -0.051952  0  3.964819  0
C  C91  1  0.15784096  0.47355845  0.18652797  1  -0.038065  0  -0.031827  -0.172919  0  3.997871  0
C  C92  1  0.15032657  0.39918049  0.19521522  1  0.420779  0  0.093285  0.182268  0  4.030183  0
C  C93  1  0.22338248  0.40479497  0.25966333  1  0.38372  0  0.090325  0.172798  0  4.022985  0
C  C94  1  0.29827588  0.48689342  0.32474625  1  0.063088  0  -0.029737  -0.180367  0  3.994066  0
C  C95  1  0.95787268  0.73299866  0.26537533  1  -0.023408  0  -0.075668  -0.103653  0  3.666152  0
C  C96  1  0.30015960  0.56048267  0.31914173  1  -0.027889  0  -0.027668  0.04007  0  3.999618  0
C  C97  1  0.35607215  0.65870152  0.36030881  1  -0.037181  0  -0.155386  -0.250192  0  3.860051  0
C  C98  1  0.28436706  0.65027614  0.27824614  1  0.393823  0  0.009854  0.17377  0  3.885792  0
C  C99  1  0.82246704  0.55051546  0.79799221  1  -0.006665  0  -0.014613  -0.006607  0  3.919345  0
C  C100  1  0.76180517  0.79726721  0.49209017  1  0.017074  0  -0.011839  -0.002106  0  3.953223  0
C  C101  1  0.80102553  0.51738585  0.84922421  1  -0.022842  0  -0.035194  -0.200251  0  3.962624  0
C  C102  1  0.71785806  0.50104810  0.84241699  1  0.455058  0  0.106264  0.295639  0  4.074549  0
C  C103  1  0.66202815  0.51680764  0.78440501  1  0.024983  0  -0.103038  -0.24286  0  3.937931  0
C  C104  1  0.68380756  0.54458975  0.73018271  1  -0.049124  0  -0.008916  -0.028891  0  4.00983  0
C  C105  1  0.76576385  0.56171745  0.73868327  1  0.013796  0  -0.028286  0.015528  0  3.967887  0
C  C106  1  0.82520884  0.58747795  0.70230578  1  -0.069112  0  -0.154424  -0.249935  0  3.860211  0
C  C107  1  0.04876361  0.74663211  0.27710595  1  -0.045625  0  -0.079015  -0.126675  0  3.620624  0
C  C108  1  0.89249620  0.57812086  0.77175141  1  0.380268  0  0.011558  0.168824  0  3.886799  0
C  C109  1  0.01383711  0.71447896  0.17653286  1  -0.005183  0  -0.014835  -0.071725  0  3.678386  0
C  C110  1  0.92023728  0.69826269  0.16562744  1  0.44609  0  0.092814  0.211425  0  3.718304  0
C  C111  1  0.83806795  0.79478155  0.50016045  1  0.013425  0  -0.027558  -0.182763  0  3.939995  0
C  C112  1  0.94779171  0.79626019  0.18249691  1  0.426677  0  0.084039  0.205874  0  3.751777  0
C  C113  1  0.84069231  0.71771986  0.49614988  1  0.426274  0  0.108506  0.299828  0  4.070831  0
C  C114  1  0.76696391  0.64871256  0.48268582  1  -0.022917  0  -0.099088  -0.23075  0  3.921036  0
C  C115  1  0.69256743  0.65475059  0.47778183  1  -0.0008  0  -0.01094  -0.032017  0  4.008297  0
N  N116  1  0.61329163  0.79637871  0.54765681  1  -1.124464  0  -0.643961  -0.655034  0  3.205829  0
N  N117  1  0.69291965  0.47374202  0.89422277  1  -1.234382  0  -0.589142  -0.617019  0  3.335525  0
N  N118  1  0.92207658  0.51894834  0.73587776  1  -1.119031  0  -0.642311  -0.648623  0  3.189369  0
N  N119  1  0.88994248  0.81855011  0.13593765  1  -1.171564  0  -0.626467  -0.664001  0  3.285355  0
N  N120  1  0.15258972  0.92460475  0.36048839  1  -1.179903  0  -0.621085  -0.662096  0  3.259186  0
N  N121  1  0.91227102  0.70838658  0.50110401  1  -1.261488  0  -0.595312  -0.624017  0  3.31632  0
N  N122  1  0.70705468  0.89259949  0.43970637  1  -1.119827  0  -0.631095  -0.632133  0  3.210757  0
N  N123  1  0.16495751  0.39000866  0.88376730  1  -1.241884  0  -0.60048  -0.626073  0  3.313003  0
N  N124  1  0.75436856  0.08400683  0.58222992  1  -1.150169  0  -0.646549  -0.659341  0  3.246314  0
N  N125  1  0.23618797  0.41664889  0.50329750  1  -1.164247  0  -0.646088  -0.656152  0  3.180616  0
N  N126  1  0.07629390  0.31710746  0.13777352  1  -1.227263  0  -0.603607  -0.612444  0  3.305451  0
N  N127  1  0.21439698  0.32692335  0.25882397  1  -1.219636  0  -0.599149  -0.609327  0  3.306174  0
N  N128  1  0.24723130  0.70733356  0.29724167  1  -1.157698  0  -0.645153  -0.653435  0  3.197423  0
N  N129  1  0.84045984  0.62009663  0.10402523  1  -1.170506  0  -0.617168  -0.632865  0  3.298091  0
O  O130  1  0.88831273  0.91166032  0.47518380  1  -1.179465  0  -0.30856  -0.57791  0  2.352876  0
O  O131  1  0.58103000  0.58959846  0.67246371  1  -1.12593  0  -0.3164  -0.521009  0  2.199137  0
O  O132  1  0.60076175  0.50492579  0.43059182  1  -1.12505  0  -0.316252  -0.524084  0  2.229857  0
O  O133  1  0.99020132  0.89146601  0.55962971  1  -1.139094  0  -0.318176  -0.539548  0  2.225351  0
O  O134  1  0.58137506  0.61088744  0.51228663  1  -1.173459  0  -0.303507  -0.562706  0  2.32861  0
O  O135  1  0.40271754  0.44344867  0.37643714  1  -1.169407  0  -0.312734  -0.580022  0  2.28272  0
O  O136  1  0.40444774  0.55940062  0.47278794  1  -1.137816  0  -0.315223  -0.524328  0  2.249525  0
O  O137  1  0.44042694  0.33111150  0.44577482  1  -1.125099  0  -0.317625  -0.524755  0  2.214338  0
O  O138  1  0.41738420  0.43240131  0.52923544  1  -1.171274  0  -0.304409  -0.570944  0  2.331727  0
O  O139  1  0.92528845  0.92223936  0.32950575  1  -1.131275  0  -0.319905  -0.531587  0  2.213743  0
O  O140  1  0.02301611  0.90831616  0.42709401  1  -1.175543  0  -0.314465  -0.5779  0  2.330325  0
O  O141  1  0.00879778  0.41598071  0.08068066  1  -1.141751  0  -0.318762  -0.542944  0  2.237453  0
O  O142  1  0.06912736  0.09298592  0.48114989  1  -1.171279  0  -0.308899  -0.564347  0  2.343091  0
O  O143  1  0.16971237  0.07231009  0.56746077  1  -1.137595  0  -0.323302  -0.54012  0  2.221272  0
O  O144  1  0.92855101  0.08748052  0.52094925  1  -1.131001  0  -0.316294  -0.525583  0  2.242307  0
O  O145  1  0.03764451  0.08806643  0.62344521  1  -1.161981  0  -0.314892  -0.567451  0  2.304321  0
O  O146  1  0.11820408  0.52738723  0.09272178  1  -1.170691  0  -0.310629  -0.567599  0  2.347105  0
O  O147  1  0.08176538  0.67378925  0.09346533  1  -1.136579  0  -0.327862  -0.544085  0  2.219349  0
O  O148  1  0.98502750  0.57024933  0.10241007  1  -1.177543  0  -0.317777  -0.572139  0  2.347353  0
O  O149  1  0.94178304  0.53866952  0.92119982  1  -1.174723  0  -0.312222  -0.576804  0  2.355799  0
O  O150  1  0.83573265  0.44719634  0.93151909  1  -1.138706  0  -0.317154  -0.538846  0  2.251958  0
O  O151  1  0.07579931  0.48879049  0.91452927  1  -1.148018  0  -0.321364  -0.549305  0  2.239642  0
O  O152  1  0.95759167  0.38568862  0.90108079  1  -1.163999  0  -0.30587  -0.555913  0  2.306748  0
O  O153  1  0.60475656  0.49565457  0.58174232  1  -1.16683  0  -0.306977  -0.568414  0  2.305108  0
