# generated using pymatgen
data_ZnH19C26N3O5
_symmetry_space_group_name_H-M   'P 1'
_cell_length_a   12.16253500
_cell_length_b   12.70740184
_cell_length_c   14.76339082
_cell_angle_alpha   98.22654795
_cell_angle_beta   90.00010003
_cell_angle_gamma   90.00002485
_symmetry_Int_Tables_number   1
_chemical_formula_structural   ZnH19C26N3O5
_chemical_formula_sum   'Zn4 H76 C104 N12 O20'
_cell_volume   2258.26528244
_cell_formula_units_Z   4
loop_
 _symmetry_equiv_pos_site_id
 _symmetry_equiv_pos_as_xyz
  1  'x, y, z'
loop_
 _atom_site_type_symbol
 _atom_site_label
 _atom_site_symmetry_multiplicity
 _atom_site_fract_x
 _atom_site_fract_y
 _atom_site_fract_z
 _atom_site_occupancy
 _atom_site_pbe_bader_charge
 _atom_site_pbe_bader_spin_density
 _atom_site_pbe_cm5_charge
 _atom_site_pbe_ddec_charge
 _atom_site_pbe_ddec_spin_density
 _atom_site_pbe_ddec_sum_bond_order
 _atom_site_pbe_magmom
Zn  Zn0  1  0.59634278  0.69522830  0.62068470  1  1.256039  0  0.68066  0.741988  0  2.34871  0
Zn  Zn1  1  0.09634205  0.80477315  0.87931775  1  1.256005  0  0.680665  0.741979  0  2.348853  0
Zn  Zn2  1  0.40365563  0.30477073  0.37931617  1  1.256018  0  0.680666  0.742002  0  2.348862  0
Zn  Zn3  1  0.90365636  0.19522588  0.12068177  1  1.255922  0  0.680692  0.742041  0  2.348786  0
H  H4  1  0.34447596  0.12589470  0.82340658  1  0.63115  0  0.281294  0.287333  0  1.067947  0
H  H5  1  0.84447689  0.37410573  0.67659593  1  0.631126  0  0.28129  0.287295  0  1.067933  0
H  H6  1  0.65552409  0.87410513  0.17659372  1  0.631145  0  0.281282  0.2873  0  1.067968  0
H  H7  1  0.15552152  0.62589489  0.32340447  1  0.631048  0  0.281289  0.287324  0  1.067885  0
H  H8  1  0.74468311  0.93202427  0.91614799  1  0.103107  0  0.099018  0.104329  0  1.04841  0
H  H9  1  0.24468247  0.56797649  0.58384985  1  0.103127  0  0.099002  0.104303  0  1.048448  0
H  H10  1  0.25531530  0.06797316  0.08385336  1  0.103208  0  0.099024  0.104328  0  1.048397  0
H  H11  1  0.75531512  0.43202493  0.41614997  1  0.103144  0  0.098982  0.104305  0  1.048444  0
H  H12  1  0.37018999  0.65809001  0.53636742  1  0.128512  0  0.120321  0.091593  0  1.013663  0
H  H13  1  0.87018905  0.84191243  0.96363148  1  0.128448  0  0.120294  0.091583  0  1.013681  0
H  H14  1  0.62980924  0.34191140  0.46363511  1  0.12848  0  0.120324  0.091601  0  1.013654  0
H  H15  1  0.12980854  0.15808818  0.03637027  1  0.128316  0  0.120294  0.091573  0  1.013675  0
H  H16  1  0.16643789  0.82792261  0.34162730  1  0.086098  0  0.105121  0.106747  0  1.036539  0
H  H17  1  0.66643622  0.67208218  0.15837286  1  0.08599  0  0.105116  0.106804  0  1.036476  0
H  H18  1  0.83356134  0.17207881  0.65837185  1  0.086087  0  0.105121  0.106763  0  1.036496  0
H  H19  1  0.33356383  0.32791924  0.84162629  1  0.086033  0  0.105125  0.10679  0  1.036508  0
H  H20  1  0.19643231  0.12442787  0.35160842  1  0.162214  0  0.112049  0.133969  0  1.020903  0
H  H21  1  0.69643072  0.37557574  0.14839417  1  0.162265  0  0.112036  0.133864  0  1.020962  0
H  H22  1  0.80356692  0.87557354  0.64839208  1  0.162177  0  0.112038  0.13394  0  1.020891  0
H  H23  1  0.30356523  0.62442567  0.85160701  1  0.162213  0  0.112015  0.133885  0  1.020867  0
H  H24  1  0.24484845  0.75795721  0.44880908  1  0.133669  0  0.11275  0.130325  0  1.030715  0
H  H25  1  0.74484659  0.74204446  0.05118877  1  0.133647  0  0.112747  0.13031  0  1.030695  0
H  H26  1  0.75514831  0.24204260  0.55119325  1  0.133746  0  0.112773  0.130299  0  1.030777  0
H  H27  1  0.25515100  0.25795378  0.94880998  1  0.133682  0  0.112764  0.130316  0  1.03069  0
H  H28  1  0.93793228  0.96153004  0.11676157  1  0.151029  0  0.117245  0.097552  0  1.034298  0
H  H29  1  0.43793144  0.53847255  0.38323937  1  0.150978  0  0.117265  0.09762  0  1.034143  0
H  H30  1  0.06206613  0.03847217  0.88323903  1  0.151009  0  0.117234  0.097556  0  1.034246  0
H  H31  1  0.56206779  0.46152807  0.61676238  1  0.151038  0  0.117264  0.097605  0  1.03419  0
H  H32  1  0.44824312  0.97937649  0.77019647  1  0.060733  0  0.099679  0.108114  0  1.059647  0
H  H33  1  0.94824647  0.52062678  0.72980739  1  0.060973  0  0.099692  0.108128  0  1.059611  0
H  H34  1  0.55175529  0.02062175  0.22980227  1  0.06076  0  0.099658  0.108078  0  1.059661  0
H  H35  1  0.05175276  0.47937064  0.27019599  1  0.060765  0  0.099685  0.108158  0  1.059571  0
H  H36  1  0.04915381  0.84117454  0.20154472  1  0.055459  0  0.105569  0.11294  0  1.006508  0
H  H37  1  0.54915325  0.65882778  0.29845766  1  0.055406  0  0.105561  0.112966  0  1.006526  0
H  H38  1  0.95084624  0.15882527  0.79845761  1  0.055461  0  0.105534  0.112911  0  1.006553  0
H  H39  1  0.45084680  0.34117284  0.70154341  1  0.055432  0  0.105565  0.11293  0  1.00648  0
H  H40  1  0.34271100  0.00438276  0.34758617  1  0.128123  0  0.105949  0.114638  0  1.030353  0
H  H41  1  0.84271028  0.49562097  0.15241190  1  0.128137  0  0.105956  0.114658  0  1.030377  0
H  H42  1  0.65729152  0.99561548  0.65241257  1  0.128141  0  0.105929  0.114649  0  1.030281  0
H  H43  1  0.15729059  0.50437886  0.84758569  1  0.128134  0  0.105987  0.114657  0  1.030341  0
H  H44  1  0.54200630  0.20516016  0.00470179  1  0.07774  0  0.104021  0.118313  0  1.010299  0
H  H45  1  0.04200335  0.29484256  0.49529911  1  0.077796  0  0.104038  0.118332  0  1.010298  0
H  H46  1  0.45799539  0.79483808  0.99529627  1  0.077703  0  0.104078  0.118397  0  1.010193  0
H  H47  1  0.95799506  0.70515965  0.50470149  1  0.077765  0  0.10403  0.118331  0  1.010263  0
H  H48  1  0.08194459  0.23029476  0.26034667  1  0.101124  0  0.122297  0.099058  0  0.987465  0
H  H49  1  0.58194314  0.26970720  0.23965351  1  0.101176  0  0.122286  0.09906  0  0.987411  0
H  H50  1  0.91805546  0.76970427  0.73965285  1  0.101119  0  0.122304  0.099098  0  0.987428  0
H  H51  1  0.41805444  0.73029501  0.76034776  1  0.101128  0  0.122306  0.099105  0  0.987424  0
H  H52  1  0.52449408  0.94873859  0.38979120  1  0.118974  0  0.111009  0.125569  0  0.998679  0
H  H53  1  0.02449267  0.55126531  0.11020863  1  0.119038  0  0.111014  0.125575  0  0.998671  0
H  H54  1  0.47550350  0.05126203  0.61020852  1  0.118944  0  0.110992  0.125529  0  0.99871  0
H  H55  1  0.97550574  0.44873611  0.88979119  1  0.119015  0  0.110992  0.12553  0  0.9987  0
H  H56  1  0.63935672  0.83899245  0.48204011  1  0.095213  0  0.116775  0.088233  0  1.005633  0
H  H57  1  0.13935434  0.66101232  0.01796068  1  0.095288  0  0.116737  0.088236  0  1.005706  0
H  H58  1  0.36064168  0.16100976  0.51795981  1  0.095208  0  0.116777  0.088267  0  1.00562  0
H  H59  1  0.86064407  0.33899148  0.98204012  1  0.095246  0  0.116789  0.088299  0  1.005638  0
H  H60  1  0.28076155  0.92226773  0.74937252  1  0.119909  0  0.119031  0.092551  0  0.99294  0
H  H61  1  0.78076497  0.57772748  0.75062805  1  0.119951  0  0.119011  0.092479  0  0.992926  0
H  H62  1  0.71923850  0.07772890  0.25062873  1  0.119972  0  0.119014  0.092509  0  0.992908  0
H  H63  1  0.21923591  0.42226996  0.24937127  1  0.119952  0  0.119014  0.09248  0  0.992935  0
H  H64  1  0.03624153  0.88421382  0.50268517  1  0.067364  0  0.107337  0.10777  0  1.003042  0
H  H65  1  0.53624056  0.61578600  0.99731496  1  0.06736  0  0.107322  0.107751  0  1.003069  0
H  H66  1  0.96376921  0.11578045  0.49731104  1  0.06748  0  0.107349  0.10781  0  1.002936  0
H  H67  1  0.46376854  0.38422017  0.00268885  1  0.067482  0  0.107338  0.107779  0  1.00297  0
H  H68  1  0.15654963  0.85468163  0.62411319  1  0.150865  0  0.108389  0.131617  0  1.031064  0
H  H69  1  0.65655252  0.64531987  0.87588394  1  0.150791  0  0.108408  0.131636  0  1.031067  0
H  H70  1  0.84345289  0.14531820  0.37588508  1  0.15087  0  0.108391  0.131626  0  1.031027  0
H  H71  1  0.34345164  0.35468155  0.12411453  1  0.150813  0  0.108393  0.13161  0  1.031035  0
H  H72  1  0.23170661  0.23541827  0.70732879  1  0.077651  0  0.109727  0.077651  0  1.01471  0
H  H73  1  0.73170198  0.26457969  0.79267189  1  0.077622  0  0.109743  0.077696  0  1.014755  0
H  H74  1  0.76829755  0.76457997  0.29266927  1  0.077602  0  0.109748  0.077692  0  1.014778  0
H  H75  1  0.26829725  0.73542092  0.20732850  1  0.07761  0  0.109734  0.077683  0  1.014757  0
H  H76  1  0.10235514  0.18185520  0.58116383  1  0.117219  0  0.104155  0.110902  0  1.048632  0
H  H77  1  0.60235080  0.31814666  0.91883513  1  0.117161  0  0.104163  0.110933  0  1.048651  0
H  H78  1  0.89764984  0.81814305  0.41883288  1  0.117138  0  0.104144  0.110916  0  1.048682  0
H  H79  1  0.39765172  0.68185634  0.08116625  1  0.117129  0  0.104142  0.110916  0  1.04868  0
C  C80  1  0.59680843  0.94486137  0.83843615  1  0.013776  0  -0.024254  -0.010623  0  4.030133  0
C  C81  1  0.09681041  0.55514327  0.66156331  1  0.013981  0  -0.024296  -0.010655  0  4.029993  0
C  C82  1  0.40318998  0.05513606  0.16156520  1  0.014062  0  -0.024247  -0.010526  0  4.030016  0
C  C83  1  0.90318799  0.44485577  0.33843553  1  0.013952  0  -0.024293  -0.010674  0  4.029979  0
C  C84  1  0.67120254  0.97834014  0.90832783  1  -0.02923  0  -0.093957  -0.138563  0  3.969119  0
C  C85  1  0.17120354  0.52166137  0.59167000  1  -0.029371  0  -0.093941  -0.13852  0  3.969203  0
C  C86  1  0.32879669  0.02165889  0.09167237  1  -0.029324  0  -0.093946  -0.138512  0  3.969078  0
C  C87  1  0.82879569  0.47833845  0.40832894  1  -0.029545  0  -0.093912  -0.138556  0  3.9691  0
C  C88  1  0.48216114  0.09955476  0.88668780  1  0.530133  0  0.07606  0.323705  0  4.093038  0
C  C89  1  0.98216194  0.40044973  0.61331475  1  0.529694  0  0.076115  0.32368  0  4.093102  0
C  C90  1  0.51783892  0.90044664  0.11331338  1  0.529655  0  0.07617  0.323794  0  4.092975  0
C  C91  1  0.01783646  0.59955089  0.38668633  1  0.529774  0  0.076055  0.323603  0  4.093089  0
C  C92  1  0.40124435  0.72305238  0.50275902  1  0.410005  0  0.052821  0.102601  0  3.931286  0
C  C93  1  0.90124345  0.77695166  0.99724081  1  0.40992  0  0.052871  0.102662  0  3.931037  0
C  C94  1  0.59875488  0.27694903  0.49724283  1  0.410204  0  0.052786  0.10258  0  3.931304  0
C  C95  1  0.09875414  0.22304975  0.00276037  1  0.410051  0  0.052853  0.102636  0  3.931176  0
C  C96  1  0.20227664  0.90464211  0.33229059  1  -0.115178  0  -0.07749  -0.118875  0  3.948765  0
C  C97  1  0.70227661  0.59536270  0.16771029  1  -0.114945  0  -0.077477  -0.118962  0  3.948684  0
C  C98  1  0.79772258  0.09535772  0.66770835  1  -0.115158  0  -0.077475  -0.118882  0  3.948677  0
C  C99  1  0.29772345  0.40463712  0.83228798  1  -0.115018  0  -0.077472  -0.118919  0  3.948683  0
C  C100  1  0.14242541  0.08354062  0.29925669  1  -0.039932  0  -0.074177  -0.159489  0  3.891862  0
C  C101  1  0.64242148  0.41646217  0.20074369  1  -0.039877  0  -0.074129  -0.159368  0  3.891859  0
C  C102  1  0.85757710  0.91645920  0.70074225  1  -0.039896  0  -0.074154  -0.159475  0  3.891969  0
C  C103  1  0.35757528  0.58353925  0.79925546  1  -0.039884  0  -0.074139  -0.159372  0  3.891928  0
C  C104  1  0.65270461  0.07383356  0.96601688  1  0.010057  0  -0.021237  -0.011783  0  4.021857  0
C  C105  1  0.15270402  0.42616755  0.53398205  1  0.009895  0  -0.021277  -0.011852  0  4.021977  0
C  C106  1  0.34729462  0.92616627  0.03398274  1  0.01005  0  -0.021277  -0.011889  0  4.021883  0
C  C107  1  0.84729520  0.57383308  0.46601631  1  0.010061  0  -0.021232  -0.011708  0  4.021842  0
C  C108  1  0.61839101  0.84446702  0.77456511  1  1.557183  0  0.192248  0.553374  0  4.245646  0
C  C109  1  0.11839318  0.65553444  0.72543670  1  1.557331  0  0.192331  0.553392  0  4.24561  0
C  C110  1  0.38160822  0.15552880  0.22544078  1  1.557131  0  0.192228  0.553303  0  4.245612  0
C  C111  1  0.88160359  0.34446459  0.27456350  1  1.557356  0  0.1924  0.55342  0  4.245606  0
C  C112  1  0.33152036  0.77951749  0.45331840  1  -0.031439  0  -0.076422  -0.16467  0  3.894458  0
C  C113  1  0.83151930  0.72048503  0.04667967  1  -0.031484  0  -0.076402  -0.164705  0  3.894414  0
C  C114  1  0.66847722  0.22048233  0.54668325  1  -0.031665  0  -0.076423  -0.164614  0  3.894571  0
C  C115  1  0.16847828  0.27951321  0.95331840  1  -0.03139  0  -0.076448  -0.164703  0  3.894352  0
C  C116  1  0.99744378  0.99275179  0.16876276  1  0.473668  0  0.04659  0.094895  0  3.936264  0
C  C117  1  0.49744364  0.50725003  0.33123953  1  0.473634  0  0.046645  0.094938  0  3.936087  0
C  C118  1  0.00255545  0.00724723  0.83123947  1  0.473679  0  0.046621  0.094899  0  3.936259  0
C  C119  1  0.50255477  0.49275218  0.66876175  1  0.473681  0  0.046603  0.094889  0  3.936248  0
C  C120  1  0.50369521  0.00589826  0.82669370  1  -0.050194  0  -0.104337  -0.238182  0  3.94766  0
C  C121  1  0.00369824  0.49410592  0.67330541  1  -0.050229  0  -0.104401  -0.238216  0  3.947566  0
C  C122  1  0.49630319  0.99409997  0.17330639  1  -0.050063  0  -0.104345  -0.238191  0  3.947593  0
C  C123  1  0.99630181  0.50589390  0.32669625  1  -0.050073  0  -0.104344  -0.238156  0  3.947478  0
C  C124  1  0.05924302  0.92715752  0.21641722  1  -0.031615  0  -0.081912  -0.171081  0  3.92667  0
C  C125  1  0.55924322  0.57284480  0.28358653  1  -0.031722  0  -0.081911  -0.171117  0  3.926606  0
C  C126  1  0.94075621  0.07284229  0.78358578  1  -0.031637  0  -0.081887  -0.17103  0  3.926695  0
C  C127  1  0.44075519  0.42715662  0.71641329  1  -0.031653  0  -0.081921  -0.171058  0  3.926754  0
C  C128  1  0.37377304  0.86403886  0.41184484  1  0.026385  0  0.009474  0.1507  0  4.016268  0
C  C129  1  0.87376956  0.63596607  0.08815495  1  0.02638  0  0.009437  0.150695  0  4.016343  0
C  C130  1  0.62622619  0.13596017  0.58815468  1  0.026357  0  0.009437  0.150595  0  4.016339  0
C  C131  1  0.12622884  0.36403455  0.91184342  1  0.026399  0  0.009488  0.150704  0  4.016229  0
C  C132  1  0.30502747  0.93054903  0.36250585  1  0.009836  0  -0.080447  -0.123037  0  3.932801  0
C  C133  1  0.80502735  0.56945586  0.13749384  1  0.009691  0  -0.080416  -0.122967  0  3.93277  0
C  C134  1  0.69497176  0.06945160  0.63749252  1  0.009826  0  -0.080416  -0.123001  0  3.932706  0
C  C135  1  0.19497188  0.43054398  0.86250375  1  0.009684  0  -0.080473  -0.122948  0  3.932677  0
C  C136  1  0.13503487  0.97223577  0.28272420  1  0.037651  0  0.010369  0.148645  0  4.02273  0
C  C137  1  0.63503326  0.52776820  0.21727648  1  0.037752  0  0.010332  0.148593  0  4.022553  0
C  C138  1  0.86496518  0.02776484  0.71727620  1  0.037696  0  0.010365  0.148649  0  4.022771  0
C  C139  1  0.36496350  0.47223322  0.78272266  1  0.037711  0  0.010342  0.148536  0  4.022866  0
C  C140  1  0.55735853  0.13309444  0.95688924  1  -0.073265  0  -0.097682  -0.217237  0  3.931242  0
C  C141  1  0.05735794  0.36690898  0.54311053  1  -0.07303  0  -0.097736  -0.217239  0  3.931251  0
C  C142  1  0.44264152  0.86690459  0.04311028  1  -0.073233  0  -0.097778  -0.217371  0  3.931206  0
C  C143  1  0.94264046  0.63309323  0.45688871  1  -0.073028  0  -0.097701  -0.217237  0  3.931163  0
C  C144  1  0.07747674  0.14381041  0.24920834  1  0.48104  0  0.053375  0.110705  0  3.915787  0
C  C145  1  0.57747371  0.35619234  0.25079126  1  0.481055  0  0.05341  0.110752  0  3.915778  0
C  C146  1  0.92252413  0.85619022  0.75079071  1  0.48104  0  0.053368  0.110666  0  3.915918  0
C  C147  1  0.42252387  0.64380986  0.74921001  1  0.481027  0  0.053386  0.110676  0  3.915758  0
C  C148  1  0.48730695  0.88476423  0.42123243  1  -0.039282  0  -0.082097  -0.182056  0  3.930688  0
C  C149  1  0.98730509  0.61523838  0.07876859  1  -0.039228  0  -0.082085  -0.181984  0  3.930595  0
C  C150  1  0.51269146  0.11523559  0.57876719  1  -0.039297  0  -0.082065  -0.181967  0  3.930504  0
C  C151  1  0.01269414  0.38476223  0.92123249  1  -0.039282  0  -0.082088  -0.182012  0  3.930584  0
C  C152  1  0.74045918  0.11439654  0.03215795  1  1.510008  0  0.191977  0.556424  0  4.202583  0
C  C153  1  0.24045786  0.38560474  0.46783899  1  1.509876  0  0.192048  0.556461  0  4.202605  0
C  C154  1  0.25954333  0.88560249  0.96784022  1  1.509939  0  0.192049  0.556508  0  4.202385  0
C  C155  1  0.75954466  0.61439668  0.53215947  1  1.509877  0  0.191981  0.556407  0  4.202607  0
C  C156  1  0.55148440  0.82431186  0.47204354  1  0.456643  0  0.04475  0.090361  0  3.955032  0
C  C157  1  0.05148205  0.67569206  0.02795634  1  0.456683  0  0.044658  0.090115  0  3.955323  0
C  C158  1  0.44851483  0.17568797  0.52795540  1  0.456645  0  0.044758  0.090378  0  3.954978  0
C  C159  1  0.94851636  0.32431015  0.97204494  1  0.456673  0  0.044702  0.090222  0  3.955042  0
C  C160  1  0.24114889  0.97816426  0.71004305  1  0.445397  0  0.047388  0.095597  0  3.955556  0
C  C161  1  0.74114743  0.52183331  0.78995574  1  0.445296  0  0.0474  0.095603  0  3.955445  0
C  C162  1  0.75885527  0.02183238  0.28995617  1  0.445344  0  0.04741  0.095559  0  3.95544  0
C  C163  1  0.25885344  0.47816731  0.21004331  1  0.445359  0  0.047402  0.095601  0  3.955437  0
C  C164  1  0.03617497  0.97073701  0.52056332  1  0.015583  0  -0.078248  -0.113049  0  3.949487  0
C  C165  1  0.53617392  0.52926441  0.97943497  1  0.015576  0  -0.078261  -0.11309  0  3.949402  0
C  C166  1  0.96383083  0.02925806  0.47943096  1  -0.087995  0  -0.078295  -0.113116  0  3.949477  0
C  C167  1  0.46383189  0.47074176  0.02056951  1  -0.087981  0  -0.078277  -0.113066  0  3.94947  0
C  C168  1  0.11537789  0.01200357  0.59079332  1  -0.04811  0  0.007226  0.142813  0  4.027599  0
C  C169  1  0.61537772  0.48799671  0.90920546  1  -0.048126  0  0.007199  0.142877  0  4.027531  0
C  C170  1  0.88462545  0.98799308  0.40920455  1  -0.048115  0  0.00721  0.142789  0  4.027508  0
C  C171  1  0.38462809  0.51200628  0.09079659  1  -0.04816  0  0.007226  0.14278  0  4.027607  0
C  C172  1  0.17048344  0.94011958  0.63880263  1  -0.02761  0  -0.083282  -0.177568  0  3.916404  0
C  C173  1  0.67048133  0.55988113  0.86119644  1  -0.027565  0  -0.083297  -0.177584  0  3.916331  0
C  C174  1  0.82952072  0.05987945  0.36119621  1  -0.027605  0  -0.083333  -0.177573  0  3.916264  0
C  C175  1  0.32952119  0.44012108  0.13880415  1  -0.02751  0  -0.083297  -0.177493  0  3.916252  0
C  C176  1  0.21251320  0.15138847  0.68698179  1  0.481562  0  0.038411  0.080139  0  3.990066  0
C  C177  1  0.71251112  0.34860869  0.81301741  1  0.481807  0  0.038453  0.080188  0  3.99  0
C  C178  1  0.78748849  0.84860738  0.31301665  1  0.4818  0  0.038526  0.080284  0  3.990123  0
C  C179  1  0.28749058  0.65139192  0.18698299  1  0.481795  0  0.038548  0.080345  0  3.990043  0
C  C180  1  0.13922741  0.12077728  0.61605153  1  -0.023624  0  -0.084134  -0.173872  0  3.925662  0
C  C181  1  0.63922385  0.37922301  0.88394728  1  -0.023846  0  -0.084152  -0.173984  0  3.925652  0
C  C182  1  0.86077511  0.87922016  0.38394643  1  -0.023879  0  -0.084129  -0.173929  0  3.925725  0
C  C183  1  0.36077703  0.62077919  0.11605467  1  -0.023877  0  -0.08414  -0.173959  0  3.925789  0
N  N184  1  0.50929092  0.74519165  0.51314412  1  -1.24809  0  -0.329285  -0.228153  0  3.547176  0
N  N185  1  0.00929040  0.75481214  0.98685444  1  -1.248132  0  -0.329193  -0.22799  0  3.547243  0
N  N186  1  0.49070749  0.25481057  0.48685513  1  -1.248117  0  -0.329287  -0.228204  0  3.547255  0
N  N187  1  0.99070801  0.24518927  0.01314673  1  -1.248173  0  -0.329265  -0.228119  0  3.547228  0
N  N188  1  0.00591181  0.09971187  0.18493614  1  -1.298868  0  -0.330132  -0.240046  0  3.572359  0
N  N189  1  0.50590894  0.40029163  0.31506346  1  -1.298829  0  -0.330226  -0.24016  0  3.572431  0
N  N190  1  0.99408741  0.90028795  0.81506416  1  -1.298856  0  -0.330154  -0.240064  0  3.572447  0
N  N191  1  0.49408865  0.59971138  0.68493724  1  -1.298823  0  -0.330155  -0.240065  0  3.572319  0
N  N192  1  0.26283005  0.08215838  0.73462721  1  -1.259265  0  -0.311496  -0.252711  0  3.420835  0
N  N193  1  0.76282790  0.41783882  0.76537140  1  -1.259115  0  -0.31148  -0.252678  0  3.420799  0
N  N194  1  0.73717082  0.91783826  0.26537134  1  -1.259141  0  -0.311533  -0.252714  0  3.420761  0
N  N195  1  0.23717133  0.58216180  0.23462900  1  -1.259124  0  -0.311578  -0.252835  0  3.420749  0
O  O196  1  0.68065024  0.77434026  0.79739255  1  -1.183605  0  -0.321276  -0.558716  0  2.167591  0
O  O197  1  0.18065815  0.72565648  0.70260672  1  -1.183787  0  -0.321409  -0.55881  0  2.167588  0
O  O198  1  0.31934570  0.22565240  0.20261023  1  -1.183788  0  -0.32129  -0.5587  0  2.167559  0
O  O199  1  0.81934190  0.27434255  0.29739212  1  -1.183846  0  -0.321477  -0.558849  0  2.167628  0
O  O200  1  0.56873598  0.83735612  0.69586869  1  -1.176449  0  -0.342448  -0.572387  0  2.323016  0
O  O201  1  0.06873914  0.66265247  0.80413258  1  -1.176457  0  -0.342375  -0.572315  0  2.323146  0
O  O202  1  0.43126243  0.16264448  0.30413712  1  -1.176198  0  -0.342426  -0.572407  0  2.323091  0
O  O203  1  0.93125762  0.33735292  0.19586706  1  -1.176427  0  -0.342389  -0.57233  0  2.323158  0
O  O204  1  0.81998290  0.05341482  0.04652581  1  -1.176269  0  -0.325888  -0.554827  0  2.215382  0
O  O205  1  0.31997828  0.44658811  0.45346942  1  -1.176146  0  -0.325865  -0.554744  0  2.215484  0
O  O206  1  0.18002044  0.94658580  0.95347391  1  -1.17621  0  -0.32591  -0.554841  0  2.215246  0
O  O207  1  0.68002177  0.55341332  0.54652634  1  -1.176131  0  -0.325874  -0.554826  0  2.215284  0
O  O208  1  0.73928515  0.21195065  0.07018006  1  -1.175339  0  -0.328053  -0.554171  0  2.205664  0
O  O209  1  0.23928616  0.28805063  0.42981755  1  -1.175418  0  -0.328092  -0.554244  0  2.205764  0
O  O210  1  0.26071573  0.78805078  0.92981570  1  -1.175459  0  -0.328074  -0.55419  0  2.205723  0
O  O211  1  0.76072047  0.71194999  0.57018149  1  -1.175412  0  -0.328065  -0.554194  0  2.205722  0
O  O212  1  0.39180826  0.15988767  0.87742614  1  -1.201916  0  -0.364852  -0.470083  0  2.385328  0
O  O213  1  0.89181400  0.34011437  0.62257732  1  -1.201785  0  -0.364817  -0.469994  0  2.385344  0
O  O214  1  0.60819014  0.84011454  0.12257446  1  -1.201891  0  -0.364864  -0.470067  0  2.38537  0
O  O215  1  0.10818688  0.65988703  0.37742453  1  -1.201706  0  -0.364827  -0.47003  0  2.385231  0
