# generated using pymatgen
data_Zn2H31C37(N3O)3
_symmetry_space_group_name_H-M   'P 1'
_cell_length_a   15.05707178
_cell_length_b   14.97601881
_cell_length_c   15.03224934
_cell_angle_alpha   111.27205607
_cell_angle_beta   105.11660825
_cell_angle_gamma   112.85803357
_symmetry_Int_Tables_number   1
_chemical_formula_structural   Zn2H31C37(N3O)3
_chemical_formula_sum   'Zn4 H62 C74 N18 O6'
_cell_volume   2572.54013264
_cell_formula_units_Z   2
loop_
 _symmetry_equiv_pos_site_id
 _symmetry_equiv_pos_as_xyz
  1  'x, y, z'
loop_
 _atom_site_type_symbol
 _atom_site_label
 _atom_site_symmetry_multiplicity
 _atom_site_fract_x
 _atom_site_fract_y
 _atom_site_fract_z
 _atom_site_occupancy
 _atom_site_pbe_bader_charge
 _atom_site_pbe_bader_spin_density
 _atom_site_pbe_cm5_charge
 _atom_site_pbe_ddec_charge
 _atom_site_pbe_ddec_spin_density
 _atom_site_pbe_ddec_sum_bond_order
 _atom_site_pbe_magmom
Zn  Zn0  1  0.98192658  0.11735397  0.62692431  1  1.181385  0  0.741984  0.602585  0  2.460273  0
Zn  Zn1  1  0.99505684  0.85053497  0.35834988  1  1.184015  0  0.745944  0.602318  0  2.486717  0
Zn  Zn2  1  0.84168416  0.83947658  0.48047085  1  1.196781  0  0.746261  0.629454  0  2.387084  0
Zn  Zn3  1  0.12199110  0.12560411  0.50035124  1  1.191182  0  0.750842  0.611893  0  2.487222  0
H  H4  1  0.15368648  0.16554762  0.83600063  1  0.13704  0  0.113065  0.104071  0  1.014347  0
H  H5  1  0.45467475  0.79196431  0.50049537  1  0.047791  0  0.101728  0.102795  0  1.001821  0
H  H6  1  0.65941789  0.15230134  0.73073269  1  0.023012  0  0.089335  0.080966  0  1.042206  0
H  H7  1  0.29448469  0.79624227  0.50233196  1  0.051687  0  0.098215  0.095925  0  1.007909  0
H  H8  1  0.91315909  0.24829393  0.24225835  1  0.040007  0  0.095944  0.095021  0  1.009222  0
H  H9  1  0.75055491  0.42569906  0.43419928  1  0.045976  0  0.096406  0.094016  0  1.011917  0
H  H10  1  0.89693414  0.39714590  0.22219382  1  0.035082  0  0.095247  0.093713  0  1.011759  0
H  H11  1  0.76630180  0.27714327  0.45378189  1  0.042306  0  0.096469  0.094041  0  1.012071  0
H  H12  1  0.14148058  0.79979351  0.49524617  1  0.066005  0  0.115504  0.10299  0  1.010042  0
H  H13  1  0.80310728  0.15603558  0.69946069  1  0.079664  0  0.106806  0.084584  0  1.036048  0
H  H14  1  0.97208447  0.99664858  0.07501426  1  0.04363  0  0.098449  0.107383  0  1.040539  0
H  H15  1  0.06003384  0.82620438  0.15589816  1  0.090093  0  0.111607  0.101755  0  1.020043  0
H  H16  1  0.24965865  0.02306173  0.94943900  1  0.089751  0  0.108846  0.128088  0  0.985557  0
H  H17  1  0.75130028  0.57796083  0.43183522  1  0.072069  0  0.11887  0.106292  0  0.997101  0
H  H18  1  0.99438933  0.16896777  0.32080122  1  0.071869  0  0.112104  0.096412  0  1.018546  0
H  H19  1  0.33231567  0.39064428  0.66150020  1  0.115665  0  0.120481  0.113765  0  1.016221  0
H  H20  1  0.63913502  0.79408375  0.29649176  1  0.130251  0  0.11893  0.113059  0  1.027038  0
H  H21  1  0.94515183  0.58605051  0.26348169  1  0.066691  0  0.114209  0.102091  0  1.00947  0
H  H22  1  0.81091318  0.16400629  0.50070299  1  0.082517  0  0.113407  0.098225  0  1.02161  0
H  H23  1  0.18413077  0.36311167  0.86888071  1  0.083053  0  0.112889  0.101292  0  1.02269  0
H  H24  1  0.85630044  0.84939519  0.15404786  1  0.09966  0  0.110014  0.101059  0  1.036614  0
H  H25  1  0.34129811  0.16657047  0.65950997  1  0.102294  0  0.11078  0.094582  0  1.040884  0
H  H26  1  0.04446657  0.51272680  0.84993482  1  0.052383  0  0.1052  0.112963  0  1.021459  0
H  H27  1  0.60414828  0.79030673  0.48590022  1  0.096708  0  0.118103  0.10993  0  1.007229  0
H  H28  1  0.93784340  0.80238154  0.68166207  1  0.087104  0  0.114635  0.104662  0  1.009818  0
H  H29  1  0.19621800  0.18745023  0.33497343  1  0.102429  0  0.118948  0.108642  0  0.990102  0
H  H30  1  0.50539435  0.89112252  0.10186540  1  0.048939  0  0.09946  0.062362  0  0.957899  0
H  H31  1  0.63652836  0.93162318  0.19324458  1  0.041037  0  0.092489  0.04979  0  1.018727  0
H  H32  1  0.57894659  0.05339204  0.28839414  1  0.022374  0  0.091249  0.122354  0  1.016075  0
H  H33  1  0.45514853  0.93213433  0.25174501  1  0.056276  0  0.094002  0.130702  0  0.989183  0
H  H34  1  0.58295665  0.96607636  0.34247789  1  0.052398  0  0.090691  0.126076  0  1.001336  0
H  H35  1  0.45652429  0.34321440  0.79405621  1  0.041651  0  0.091148  0.045617  0  1.004326  0
H  H36  1  0.59639558  0.45268021  0.88300535  1  0.062365  0  0.092701  0.050603  0  1.008122  0
H  H37  1  0.91361111  0.65204531  0.98156756  1  0.041257  0  0.101611  0.106235  0  1.038248  0
H  H38  1  0.62938322  0.44532952  0.72647755  1  0.049309  0  0.088604  0.126323  0  1.005515  0
H  H39  1  0.57518400  0.30873117  0.71198603  1  0.020354  0  0.088371  0.118299  0  1.028812  0
H  H40  1  0.48971672  0.33597280  0.63454145  1  0.013748  0  0.091515  0.125641  0  0.996918  0
H  H41  1  0.92084884  0.10244850  0.01834099  1  0.014667  0  0.093433  0.050877  0  0.974815  0
H  H42  1  0.82285758  0.95521989  0.95668166  1  0.02355  0  0.090973  0.046788  0  1.017368  0
H  H43  1  0.72668601  0.94989110  0.78766611  1  0.074473  0  0.092005  0.133522  0  1.002673  0
H  H44  1  0.73058158  0.04615704  0.90237340  1  0.052319  0  0.094766  0.132084  0  0.988722  0
H  H45  1  0.82195878  0.09786016  0.85221055  1  0.0096  0  0.082275  0.112555  0  1.021921  0
H  H46  1  0.33064637  0.19721981  0.25143791  1  0.045569  0  0.094227  0.046996  0  1.002916  0
H  H47  1  0.44233965  0.20737515  0.22645754  1  0.050324  0  0.095516  0.054993  0  0.963685  0
H  H48  1  0.22028603  0.57267871  0.84777515  1  0.080211  0  0.112931  0.119515  0  0.974767  0
H  H49  1  0.47181647  0.10920584  0.32581644  1  0.043982  0  0.088683  0.123217  0  1.038085  0
H  H50  1  0.47730748  0.23298000  0.40902970  1  0.021697  0  0.086793  0.11627  0  1.002914  0
H  H51  1  0.35841017  0.09631384  0.34881124  1  0.047645  0  0.087391  0.124963  0  1.018409  0
H  H52  1  0.90182382  0.35285857  0.85616284  1  0.040142  0  0.097519  0.054374  0  0.981921  0
H  H53  1  0.90199385  0.47918001  0.88281573  1  0.023667  0  0.092783  0.044536  0  1.015905  0
H  H54  1  0.82295130  0.46294785  0.00838887  1  0.026722  0  0.092395  0.126523  0  1.004473  0
H  H55  1  0.73679410  0.34008447  0.87647837  1  0.017955  0  0.096277  0.132965  0  1.004663  0
H  H56  1  0.82054169  0.33559809  0.98106479  1  0.047451  0  0.097826  0.135853  0  0.988391  0
H  H57  1  0.98107851  0.62639638  0.87199144  1  -0.001254  0  0.088051  0.033151  0  1.0364  0
H  H58  1  0.06691192  0.77679003  0.96328672  1  0.058934  0  0.101357  0.065084  0  0.982565  0
H  H59  1  0.77386940  0.62589510  0.04296301  1  0.069363  0  0.105555  0.106886  0  0.994519  0
H  H60  1  0.10223231  0.79822079  0.81470514  1  0.075287  0  0.094932  0.134971  0  1.020423  0
H  H61  1  0.14280651  0.71067127  0.84250752  1  0.03896  0  0.096262  0.134499  0  0.994573  0
H  H62  1  0.01847859  0.64769803  0.72583460  1  0.041979  0  0.091565  0.125466  0  0.992402  0
H  H63  1  0.18491130  0.53994018  0.15515138  1  0.090355  0  0.116624  0.137504  0  0.975263  0
H  H64  1  0.77892159  0.76775994  0.79108540  1  0.11201  0  0.119443  0.142263  0  0.979311  0
H  H65  1  0.49846207  0.15606278  0.73406706  1  0.027224  0  0.093382  0.089818  0  1.026357  0
C  C66  1  0.09463990  0.07508666  0.78082820  1  0.362124  0  0.002231  -0.056342  0  3.97389  0
C  C67  1  0.85340929  0.67128249  0.95231956  1  -0.007798  0  -0.108893  -0.225638  0  4.014973  0
C  C68  1  0.21340691  0.56646374  0.91599963  1  0.002822  0  -0.079926  -0.097202  0  3.99247  0
C  C69  1  0.77433693  0.65700720  0.98762712  1  -0.047188  0  -0.086189  -0.109139  0  4.024182  0
C  C70  1  0.30416800  0.58785935  0.99696264  1  0.035526  0  0.002769  0.054429  0  3.95479  0
C  C71  1  0.69581148  0.68149970  0.95418691  1  0.065186  0  -0.001914  0.045414  0  3.965678  0
C  C72  1  0.29225996  0.57890985  0.08450276  1  0.035601  0  0.009171  0.033428  0  4.053658  0
C  C73  1  0.69973576  0.72273180  0.88301126  1  0.031691  0  0.007203  0.030764  0  4.072219  0
C  C74  1  0.19309747  0.54756094  0.08796360  1  0.039139  0  -0.088635  -0.224325  0  3.933656  0
C  C75  1  0.77692214  0.73567222  0.84547560  1  0.074666  0  -0.084762  -0.220417  0  3.92422  0
C  C76  1  0.10283235  0.52234122  0.00354375  1  0.447258  0  0.078362  0.249553  0  4.106332  0
C  C77  1  0.09217539  0.91358887  0.21521211  1  0.408221  0  0.003767  -0.061776  0  3.992642  0
C  C78  1  0.85375986  0.70880691  0.87916455  1  0.439001  0  0.08534  0.259759  0  4.0933  0
C  C79  1  0.50575610  0.70643062  0.07225899  1  0.531405  0  0.08111  0.155092  0  4.027744  0
C  C80  1  0.50109937  0.56195353  0.89166597  1  0.534423  0  0.072512  0.139483  0  4.03451  0
C  C81  1  0.17578745  0.89034113  0.53006177  1  0.427072  0  0.004249  -0.053463  0  3.966381  0
C  C82  1  0.76873068  0.06625097  0.64599230  1  0.376859  0  0.0015  -0.065806  0  4.02807  0
C  C83  1  0.60675369  0.72609841  0.07531982  1  -0.006229  0  -0.010089  -0.03623  0  4.005277  0
C  C84  1  0.40143854  0.53169661  0.89502815  1  -0.009111  0  -0.011954  -0.031604  0  4.006943  0
C  C85  1  0.60179256  0.65719966  0.97801919  1  -0.017499  0  -0.017813  -0.074751  0  4.009622  0
C  C86  1  0.40498083  0.60947323  0.98708439  1  0.01918  0  -0.018176  -0.078742  0  3.993058  0
C  C87  1  0.48821273  0.07587617  0.68187861  1  -0.020512  0  -0.100996  -0.141333  0  4.018962  0
C  C88  1  0.28483337  0.98190887  0.59532726  1  -0.032704  0  -0.037114  -0.039932  0  4.076019  0
C  C89  1  0.46535407  0.87256197  0.55205287  1  -0.004357  0  -0.091901  -0.125325  0  3.990628  0
C  C90  1  0.57915679  0.07365904  0.67981756  1  -0.041378  0  -0.101876  -0.139335  0  4.018844  0
C  C91  1  0.37457624  0.87490901  0.55379064  1  -0.025487  0  -0.094294  -0.126962  0  3.997759  0
C  C92  1  0.56947262  0.97286784  0.61147834  1  -0.021541  0  -0.012629  0.081995  0  4.054969  0
C  C93  1  0.38284843  0.97733323  0.61490768  1  -0.040219  0  -0.012887  0.082218  0  4.047259  0
C  C94  1  0.87707007  0.28669076  0.28477164  1  -0.051576  0  -0.098719  -0.135272  0  4.003256  0
C  C95  1  0.78545970  0.38655374  0.39054641  1  -0.039338  0  -0.099394  -0.138551  0  4.017581  0
C  C96  1  0.86794107  0.37141199  0.27343941  1  -0.027424  0  -0.099749  -0.138076  0  4.011206  0
C  C97  1  0.79439509  0.30187053  0.40169447  1  -0.062994  0  -0.099122  -0.136404  0  4.015888  0
C  C98  1  0.82736443  0.42800179  0.33084539  1  0.01837  0  -0.01676  0.077454  0  4.058631  0
C  C99  1  0.66248885  0.97277769  0.59961533  1  0.016077  0  -0.035942  -0.041934  0  4.100303  0
C  C100  1  0.84641147  0.25429921  0.35427631  1  0.002521  0  -0.012988  0.081775  0  4.047573  0
C  C101  1  0.01488752  0.99994453  0.94912752  1  0.451807  0  0.075677  0.198119  0  4.070476  0
C  C102  1  0.20792619  0.02666733  0.07662587  1  0.482075  0  0.064107  0.175126  0  4.105117  0
C  C103  1  0.03249155  0.00387425  0.04647625  1  -0.051357  0  -0.118448  -0.275621  0  4.066452  0
C  C104  1  0.18795868  0.01728410  0.97620107  1  -0.03147  0  -0.099147  -0.230335  0  3.994824  0
C  C105  1  0.80178103  0.59677489  0.39310697  1  0.407597  0  0.00643  -0.053448  0  3.992359  0
C  C106  1  0.95680243  0.16044440  0.37228111  1  0.424475  0  0.006879  -0.048256  0  3.963853  0
C  C107  1  0.12700885  0.01426651  0.10937893  1  0.015551  0  -0.023787  -0.006514  0  4.078034  0
C  C108  1  0.09106600  0.00072252  0.91008259  1  0.035278  0  -0.015612  0.006297  0  4.016941  0
C  C109  1  0.28068323  0.36683209  0.69761192  1  0.398289  0  0.006596  -0.052521  0  3.999453  0
C  C110  1  0.83812476  0.53215059  0.33834565  1  0.024658  0  -0.039714  -0.04348  0  4.09553  0
C  C111  1  0.70703937  0.81570429  0.27838800  1  0.416407  0  0.017857  -0.026803  0  3.91117  0
C  C112  1  0.89960448  0.60046464  0.30655855  1  0.390755  0  -0.000704  -0.068877  0  4.007548  0
C  C113  1  0.86378321  0.15880614  0.46452423  1  0.426353  0  0.004783  -0.050568  0  3.962333  0
C  C114  1  0.20520651  0.35358351  0.80374156  1  0.442633  0  0.005181  -0.054383  0  3.991717  0
C  C115  1  0.81653075  0.84167502  0.20377335  1  0.406311  0  0.001929  -0.055236  0  3.964555  0
C  C116  1  0.27707261  0.07730188  0.61416591  1  0.383986  0  0.006611  -0.046467  0  3.953765  0
C  C117  1  0.66763713  0.88002345  0.53783405  1  0.424118  0  0.010735  -0.051335  0  3.969183  0
C  C118  1  0.98398451  0.88957783  0.70170861  1  0.391189  0  0.007364  -0.049207  0  3.963776  0
C  C119  1  0.16104212  0.09765862  0.30609162  1  0.342922  0  0.00532  -0.066941  0  4.013584  0
C  C120  1  0.06413427  0.98791188  0.80292428  1  0.030995  0  -0.037956  -0.024465  0  4.083714  0
C  C121  1  0.88065012  0.18820898  0.38869679  1  -0.023692  0  -0.039431  -0.048666  0  4.075972  0
C  C122  1  0.13310059  0.00995425  0.20677262  1  0.037206  0  -0.034621  -0.013092  0  4.094684  0
C  C123  1  0.37882869  0.59654744  0.17056322  1  0.844451  0  0.1827  0.258704  0  4.026189  0
C  C124  1  0.62236241  0.75096546  0.84710808  1  0.819152  0  0.177452  0.240115  0  4.026411  0
C  C125  1  0.55062036  0.89584071  0.17586895  1  0.397162  0  -0.067324  0.088738  0  3.898448  0
C  C126  1  0.54096575  0.96556449  0.27034837  1  -0.067815  0  -0.244007  -0.393958  0  3.968017  0
C  C127  1  0.52804012  0.41353326  0.80341874  1  0.380299  0  -0.070589  0.082448  0  3.920298  0
C  C128  1  0.55727422  0.37366334  0.71387417  1  -0.040865  0  -0.24685  -0.397334  0  3.976823  0
C  C129  1  0.86384056  0.02155794  0.94003531  1  0.451123  0  -0.068884  0.091291  0  3.916611  0
C  C130  1  0.78131086  0.02953155  0.86623657  1  -0.07159  0  -0.2483  -0.396306  0  3.972209  0
C  C131  1  0.37682849  0.15616429  0.23931481  1  0.389959  0  -0.06727  0.094359  0  3.911004  0
C  C132  1  0.30146229  0.42471779  0.80551337  1  0.006736  0  -0.038282  -0.028617  0  4.068127  0
C  C133  1  0.42343471  0.14741498  0.33599265  1  -0.070328  0  -0.250617  -0.401289  0  3.976959  0
C  C134  1  0.90676962  0.42624597  0.91695605  1  0.418973  0  -0.065908  0.087643  0  3.930906  0
C  C135  1  0.81671499  0.38905432  0.94779362  1  -0.021796  0  -0.241192  -0.398003  0  3.956867  0
C  C136  1  0.01302603  0.70909286  0.87745467  1  0.420994  0  -0.066603  0.089781  0  3.912518  0
C  C137  1  0.07227909  0.71675081  0.81074921  1  -0.072155  0  -0.243431  -0.397235  0  3.950763  0
C  C138  1  0.70644339  0.79984918  0.17939780  1  0.016315  0  -0.036987  -0.027571  0  4.044868  0
C  C139  1  0.11347329  0.53241162  0.91714010  1  -0.022659  0  -0.105501  -0.218473  0  4.018728  0
N  N140  1  0.03583618  0.03173953  0.67436915  1  -0.779879  0  -0.289723  -0.18858  0  3.633036  0
N  N141  1  0.92671727  0.11947569  0.49162750  1  -0.834003  0  -0.281631  -0.177687  0  3.627209  0
N  N142  1  0.13392073  0.26273455  0.70341628  1  -0.811785  0  -0.271607  -0.177535  0  3.538568  0
N  N143  1  0.87553033  0.87498405  0.30701270  1  -0.802583  0  -0.291049  -0.19175  0  3.637032  0
N  N144  1  0.17234346  0.04397015  0.56162761  1  -0.789614  0  -0.278793  -0.178287  0  3.604335  0
N  N145  1  0.76877579  0.91589095  0.54823661  1  -0.787428  0  -0.26638  -0.173453  0  3.529084  0
N  N146  1  0.96838858  0.91760259  0.62579480  1  -0.780129  0  -0.280162  -0.179346  0  3.62575  0
N  N147  1  0.13847538  0.05657978  0.36882973  1  -0.782802  0  -0.281436  -0.177282  0  3.593269  0
N  N148  1  0.44637706  0.60934208  0.24254241  1  -1.139359  0  -0.323842  -0.387529  0  2.710219  0
N  N149  1  0.56113877  0.77618864  0.81778339  1  -1.121908  0  -0.316268  -0.363618  0  2.676172  0
N  N150  1  0.09502296  0.94174635  0.31245657  1  -0.800779  0  -0.271621  -0.176956  0  3.522771  0
N  N151  1  0.10966236  0.92864769  0.50960033  1  -0.76106  0  -0.290197  -0.190513  0  3.606996  0
N  N152  1  0.83177209  0.03183232  0.61578801  1  -0.785391  0  -0.271844  -0.170028  0  3.549607  0
N  N153  1  0.83875190  0.69469421  0.39413214  1  -0.782356  0  -0.266187  -0.169401  0  3.535154  0
N  N154  1  0.98359670  0.12037776  0.43493146  1  -0.73714  0  -0.277184  -0.172877  0  3.624461  0
N  N155  1  0.18165137  0.27096306  0.63800527  1  -0.80408  0  -0.283262  -0.179845  0  3.583646  0
N  N156  1  0.80799590  0.85921411  0.35253719  1  -0.7914  0  -0.279912  -0.180311  0  3.620515  0
N  N157  1  0.89976398  0.69725360  0.34007190  1  -0.785802  0  -0.270843  -0.17401  0  3.542963  0
O  O158  1  0.50331220  0.78147942  0.15666699  1  -1.076299  0  -0.193244  -0.23455  0  2.562341  0
O  O159  1  0.50298815  0.49638281  0.79988265  1  -1.072651  0  -0.198506  -0.232134  0  2.546645  0
O  O160  1  0.92564564  0.99470226  0.88791125  1  -1.06531  0  -0.184677  -0.208366  0  2.532088  0
O  O161  1  0.30515636  0.04457624  0.14094686  1  -1.070113  0  -0.21811  -0.253409  0  2.452123  0
O  O162  1  0.00906639  0.48983440  0.01338125  1  -1.065419  0  -0.193922  -0.222479  0  2.506753  0
O  O163  1  0.92328833  0.72097076  0.83570268  1  -1.079179  0  -0.179572  -0.204722  0  2.528803  0
