# generated using pymatgen
data_CdH8C6N2O7
_symmetry_space_group_name_H-M   'P 1'
_cell_length_a   5.65971962
_cell_length_b   10.88890372
_cell_length_c   15.29541423
_cell_angle_alpha   89.99978550
_cell_angle_beta   89.99978058
_cell_angle_gamma   90.00066228
_symmetry_Int_Tables_number   1
_chemical_formula_structural   CdH8C6N2O7
_chemical_formula_sum   'Cd4 H32 C24 N8 O28'
_cell_volume   942.62796113
_cell_formula_units_Z   4
loop_
 _symmetry_equiv_pos_site_id
 _symmetry_equiv_pos_as_xyz
  1  'x, y, z'
loop_
 _atom_site_type_symbol
 _atom_site_label
 _atom_site_symmetry_multiplicity
 _atom_site_fract_x
 _atom_site_fract_y
 _atom_site_fract_z
 _atom_site_occupancy
 _atom_site_hle17_bader_spin_density
 _atom_site_hle17_ddec_charge
 _atom_site_hle17_ddec_spin_density
 _atom_site_hle17_ddec_sum_bond_order
 _atom_site_hle17_magmom
 _atom_site_hse06_10hf_bader_spin_density
 _atom_site_hse06_10hf_ddec_charge
 _atom_site_hse06_10hf_ddec_spin_density
 _atom_site_hse06_10hf_ddec_sum_bond_order
 _atom_site_hse06_10hf_magmom
 _atom_site_hse06_bader_spin_density
 _atom_site_hse06_ddec_charge
 _atom_site_hse06_ddec_spin_density
 _atom_site_hse06_ddec_sum_bond_order
 _atom_site_hse06_magmom
 _atom_site_pbe_bader_spin_density
 _atom_site_pbe_cm5_charge
 _atom_site_pbe_ddec_charge
 _atom_site_pbe_ddec_spin_density
 _atom_site_pbe_ddec_sum_bond_order
 _atom_site_pbe_magmom
Cd  Cd0  1  0.55274388  0.90684502  0.35114814  1  0  1.224141  0  1.601517  0  0  1.04592  0  2.038692  0  0  1.101065  0  1.982743  0  0  0.775596  1.006571  0  2.077102  0
Cd  Cd1  1  0.94725692  0.09315324  0.85114784  1  0  1.224147  0  1.601544  0  0  1.045921  0  2.038727  0  0  1.101062  0  1.982781  0  0  0.775617  1.006569  0  2.077125  0
Cd  Cd2  1  0.44725195  0.40684449  0.14885098  1  0  1.224165  0  1.601534  0  0  1.045945  0  2.038717  0  0  1.101087  0  1.982765  0  0  0.775619  1.006577  0  2.077149  0
Cd  Cd3  1  0.05274224  0.59315549  0.64885248  1  0  1.224202  0  1.601471  0  0  1.045987  0  2.038618  0  0  1.101132  0  1.98267  0  0  0.775637  1.006606  0  2.077084  0
H  H4  1  0.23126470  0.10229367  0.40657190  1  0  0.397878  0  0.905828  0  0  0.354727  0  0.996677  0  0  0.365874  0  0.980583  0  0  0.283615  0.346855  0  1.008011  0
H  H5  1  0.26873364  0.89770678  0.90657298  1  0  0.397891  0  0.905778  0  0  0.354736  0  0.996656  0  0  0.365886  0  0.98056  0  0  0.283605  0.346865  0  1.007989  0
H  H6  1  0.76873677  0.60229136  0.09342802  1  0  0.397903  0  0.905786  0  0  0.354745  0  0.996648  0  0  0.365896  0  0.980551  0  0  0.283598  0.346875  0  1.00798  0
H  H7  1  0.73125811  0.39771010  0.59342720  1  0  0.397816  0  0.905894  0  0  0.354672  0  0.996751  0  0  0.365821  0  0.980656  0  0  0.283567  0.3468  0  1.008085  0
H  H8  1  0.08936717  0.05450353  0.32207287  1  0  0.421065  0  0.877767  0  0  0.38799  0  0.946567  0  0  0.398887  0  0.93081  0  0  0.289094  0.380258  0  0.957732  0
H  H9  1  0.41062860  0.94549461  0.82207168  1  0  0.421092  0  0.877738  0  0  0.388015  0  0.946532  0  0  0.398915  0  0.930771  0  0  0.289119  0.380284  0  0.957697  0
H  H10  1  0.91062796  0.55450531  0.17792979  1  0  0.421051  0  0.877804  0  0  0.387989  0  0.946568  0  0  0.398888  0  0.93081  0  0  0.289114  0.380258  0  0.957732  0
H  H11  1  0.58936773  0.44549754  0.67792771  1  0  0.421072  0  0.877771  0  0  0.388009  0  0.946545  0  0  0.398908  0  0.930784  0  0  0.289104  0.380277  0  0.957709  0
H  H12  1  0.26867613  0.72438757  0.42692487  1  0  0.432285  0  0.862097  0  0  0.399903  0  0.92866  0  0  0.409857  0  0.914416  0  0  0.296032  0.392841  0  0.938761  0
H  H13  1  0.23132552  0.27561644  0.92692044  1  0  0.432423  0  0.86222  0  0  0.400042  0  0.928517  0  0  0.409995  0  0.914274  0  0  0.296085  0.392981  0  0.938614  0
H  H14  1  0.73132274  0.22438549  0.07307931  1  0  0.432359  0  0.862147  0  0  0.399975  0  0.928574  0  0  0.409929  0  0.914329  0  0  0.296071  0.392916  0  0.938668  0
H  H15  1  0.76867590  0.77561332  0.57307678  1  0  0.432335  0  0.862102  0  0  0.399956  0  0.928583  0  0  0.40991  0  0.914339  0  0  0.296061  0.392897  0  0.938679  0
H  H16  1  0.14140429  0.84924359  0.44895165  1  0  0.430386  0  0.875179  0  0  0.396486  0  0.94262  0  0  0.408129  0  0.925994  0  0  0.288846  0.388287  0  0.954295  0
H  H17  1  0.35858827  0.15076214  0.94895393  1  0  0.430335  0  0.875265  0  0  0.396384  0  0.942769  0  0  0.408021  0  0.926154  0  0  0.288785  0.388182  0  0.954446  0
H  H18  1  0.85859556  0.34924056  0.05104893  1  0  0.430392  0  0.875158  0  0  0.396444  0  0.942665  0  0  0.408081  0  0.92605  0  0  0.288816  0.388244  0  0.954339  0
H  H19  1  0.64140509  0.65075929  0.55104428  1  0  0.430409  0  0.875146  0  0  0.396473  0  0.942629  0  0  0.40811  0  0.926012  0  0  0.28886  0.388276  0  0.9543  0
H  H20  1  0.85220495  0.67191781  0.33882365  1  0  0.429446  0  0.864971  0  0  0.396909  0  0.930357  0  0  0.409022  0  0.91261  0  0  0.28724  0.388303  0  0.942959  0
H  H21  1  0.64780129  0.32808327  0.83882181  1  0  0.42947  0  0.864961  0  0  0.396958  0  0.930322  0  0  0.409073  0  0.912568  0  0  0.287243  0.388347  0  0.942928  0
H  H22  1  0.14779629  0.17191448  0.16117348  1  0  0.429489  0  0.864905  0  0  0.396962  0  0.93027  0  0  0.409072  0  0.912525  0  0  0.287283  0.388353  0  0.942873  0
H  H23  1  0.35220305  0.82808176  0.66117593  1  0  0.429491  0  0.864903  0  0  0.396963  0  0.930272  0  0  0.409073  0  0.91253  0  0  0.287287  0.388356  0  0.942874  0
H  H24  1  0.70129695  0.67595104  0.25233507  1  0  0.420526  0  0.878902  0  0  0.391973  0  0.939546  0  0  0.401844  0  0.925156  0  0  0.283803  0.384978  0  0.949729  0
H  H25  1  0.79870320  0.32404957  0.75233305  1  0  0.420473  0  0.878963  0  0  0.391915  0  0.939623  0  0  0.401787  0  0.925232  0  0  0.283779  0.38492  0  0.949803  0
H  H26  1  0.29870262  0.17594633  0.24766269  1  0  0.420474  0  0.878992  0  0  0.391908  0  0.93966  0  0  0.401783  0  0.925265  0  0  0.283778  0.38491  0  0.949845  0
H  H27  1  0.20129399  0.82404761  0.74766405  1  0  0.420515  0  0.878914  0  0  0.391964  0  0.939556  0  0  0.401835  0  0.925166  0  0  0.283805  0.384971  0  0.949733  0
H  H28  1  0.03234025  0.78045959  0.06158473  1  0  0.090278  0  0.961387  0  0  0.090164  0  1.036124  0  0  0.0936  0  1.032876  0  0  0.119254  0.087611  0  1.038634  0
H  H29  1  0.46766022  0.21954085  0.56158734  1  0  0.09029  0  0.961325  0  0  0.090181  0  1.036106  0  0  0.093635  0  1.032815  0  0  0.119259  0.087625  0  1.038613  0
H  H30  1  0.96765456  0.28045884  0.43841276  1  0  0.09033  0  0.961317  0  0  0.090199  0  1.036097  0  0  0.093654  0  1.032805  0  0  0.119237  0.087642  0  1.038603  0
H  H31  1  0.53234703  0.71954263  0.93841723  1  0  0.090285  0  0.961436  0  0  0.090134  0  1.036195  0  0  0.093586  0  1.032906  0  0  0.119223  0.087576  0  1.038714  0
H  H32  1  0.12599952  0.78691831  0.22394313  1  0  0.098569  0  0.929476  0  0  0.10285  0  0.997596  0  0  0.107043  0  0.993715  0  0  0.123916  0.099661  0  1.000789  0
H  H33  1  0.37400265  0.21307300  0.72394587  1  0  0.098564  0  0.929485  0  0  0.102816  0  0.997645  0  0  0.107015  0  0.993748  0  0  0.123927  0.099628  0  1.000818  0
H  H34  1  0.87398129  0.28691601  0.27605435  1  0  0.098507  0  0.92953  0  0  0.102828  0  0.997616  0  0  0.107024  0  0.99373  0  0  0.123904  0.099637  0  1.000802  0
H  H35  1  0.62599915  0.71307897  0.77605871  1  0  0.098496  0  0.929497  0  0  0.102793  0  0.997612  0  0  0.106986  0  0.99373  0  0  0.123879  0.099601  0  1.000803  0
C  C36  1  0.77200394  0.02714692  0.18296149  1  0  0.62873  0  3.933024  0  0  0.569303  0  4.242915  0  0  0.602361  0  4.237905  0  0  0.21293  0.547008  0  4.245534  0
C  C37  1  0.72799523  0.97285223  0.68296373  1  0  0.628689  0  3.93348  0  0  0.569284  0  4.243347  0  0  0.602339  0  4.238347  0  0  0.212901  0.546991  0  4.245966  0
C  C38  1  0.22799411  0.52714658  0.31703797  1  0  0.628791  0  3.933335  0  0  0.569412  0  4.243172  0  0  0.602465  0  4.238175  0  0  0.212918  0.547119  0  4.245793  0
C  C39  1  0.27201054  0.47285526  0.81703951  1  0  0.628668  0  3.933106  0  0  0.569308  0  4.242927  0  0  0.602357  0  4.237935  0  0  0.212924  0.547012  0  4.245542  0
C  C40  1  0.56566490  0.95290992  0.14754914  1  0  0.042897  0  3.690284  0  0  0.039165  0  3.935014  0  0  0.037128  0  3.95365  0  0  0.121126  0.039984  0  3.923045  0
C  C41  1  0.93433997  0.04708850  0.64754898  1  0  0.042824  0  3.690275  0  0  0.039113  0  3.935001  0  0  0.037075  0  3.953643  0  0  0.121053  0.039925  0  3.923033  0
C  C42  1  0.43433724  0.45290823  0.35245378  1  0  0.042748  0  3.690433  0  0  0.039006  0  3.935122  0  0  0.03697  0  3.95376  0  0  0.121035  0.039814  0  3.923156  0
C  C43  1  0.06566525  0.54709066  0.85245343  1  0  0.042907  0  3.690315  0  0  0.039151  0  3.935022  0  0  0.037118  0  3.953662  0  0  0.121133  0.03997  0  3.923049  0
C  C44  1  0.51962414  0.94216606  0.05754704  1  0  0.09325  0  3.657442  0  0  0.091774  0  3.904668  0  0  0.094139  0  3.917916  0  0  0.141614  0.089716  0  3.896449  0
C  C45  1  0.98038704  0.05783376  0.55754810  1  0  0.0933  0  3.657508  0  0  0.091767  0  3.904765  0  0  0.094131  0  3.918018  0  0  0.141634  0.089711  0  3.896533  0
C  C46  1  0.48037246  0.44216601  0.44245329  1  0  0.093297  0  3.657785  0  0  0.091875  0  3.904947  0  0  0.09424  0  3.918195  0  0  0.141625  0.089827  0  3.896705  0
C  C47  1  0.01963078  0.55783517  0.94245493  1  0  0.093165  0  3.657616  0  0  0.091745  0  3.904807  0  0  0.094109  0  3.918057  0  0  0.141538  0.08969  0  3.89658  0
C  C48  1  0.18832715  0.82703768  0.08646784  1  0  0.137372  0  3.632128  0  0  0.102683  0  3.903518  0  0  0.109087  0  3.914531  0  0  0.069333  0.098269  0  3.896471  0
C  C49  1  0.31167658  0.17296079  0.58647012  1  0  0.137483  0  3.631946  0  0  0.102688  0  3.903426  0  0  0.109097  0  3.914439  0  0  0.069324  0.098272  0  3.896373  0
C  C50  1  0.81166162  0.32704071  0.41353018  1  0  0.137345  0  3.63224  0  0  0.102646  0  3.903656  0  0  0.109055  0  3.91467  0  0  0.069347  0.098234  0  3.896601  0
C  C51  1  0.68833494  0.67296272  0.91353457  1  0  0.137349  0  3.63241  0  0  0.102754  0  3.903658  0  0  0.109161  0  3.914677  0  0  0.069361  0.098339  0  3.896607  0
C  C52  1  0.23766483  0.83239534  0.17571024  1  0  0.09707  0  3.632218  0  0  0.066157  0  3.890635  0  0  0.069058  0  3.905621  0  0  0.05995  0.063801  0  3.880939  0
C  C53  1  0.26233788  0.16759990  0.67571259  1  0  0.097005  0  3.632256  0  0  0.066132  0  3.890714  0  0  0.069032  0  3.905707  0  0  0.059906  0.063779  0  3.881009  0
C  C54  1  0.76232405  0.33239579  0.32428712  1  0  0.097139  0  3.632335  0  0  0.066153  0  3.890848  0  0  0.069052  0  3.905838  0  0  0.05992  0.0638  0  3.881135  0
C  C55  1  0.73766822  0.66760353  0.82429211  1  0  0.097155  0  3.632133  0  0  0.06621  0  3.890509  0  0  0.069107  0  3.905501  0  0  0.060029  0.063859  0  3.8808  0
C  C56  1  0.67839409  0.99183758  0.98688817  1  0  0.620587  0  3.973394  0  0  0.558067  0  4.283428  0  0  0.59319  0  4.274909  0  0  0.204483  0.534102  0  4.288423  0
C  C57  1  0.82160871  0.00816639  0.48688853  1  0  0.620487  0  3.973125  0  0  0.558046  0  4.283081  0  0  0.59317  0  4.274563  0  0  0.204379  0.534083  0  4.288074  0
C  C58  1  0.32160856  0.49183333  0.51311045  1  0  0.620695  0  3.973071  0  0  0.558136  0  4.283127  0  0  0.593257  0  4.274603  0  0  0.204429  0.534173  0  4.288121  0
C  C59  1  0.17840659  0.50816277  0.01311099  1  0  0.620633  0  3.97318  0  0  0.558054  0  4.283283  0  0  0.593176  0  4.274762  0  0  0.204421  0.534091  0  4.288278  0
N  N60  1  0.42492552  0.89495769  0.20484818  1  0  -0.287275  0  3.267116  0  0  -0.219803  0  3.52117  0  0  -0.233299  0  3.539783  0  0  -0.303231  -0.210243  0  3.508589  0
N  N61  1  0.07508217  0.10504015  0.70485029  1  0  -0.287251  0  3.267142  0  0  -0.219771  0  3.521156  0  0  -0.233273  0  3.53978  0  0  -0.303205  -0.210213  0  3.508571  0
N  N62  1  0.57506651  0.39495165  0.29514966  1  0  -0.287221  0  3.267134  0  0  -0.219734  0  3.521189  0  0  -0.233236  0  3.539813  0  0  -0.303161  -0.210174  0  3.508605  0
N  N63  1  0.92492962  0.60503956  0.79515327  1  0  -0.287263  0  3.266961  0  0  -0.219812  0  3.521037  0  0  -0.233313  0  3.539658  0  0  -0.303257  -0.210249  0  3.508449  0
N  N64  1  0.33067964  0.88011432  0.02780892  1  0  -0.259261  0  3.076685  0  0  -0.212105  0  3.32767  0  0  -0.22057  0  3.337957  0  0  -0.274818  -0.206462  0  3.321188  0
N  N65  1  0.16932828  0.11988630  0.52781022  1  0  -0.259277  0  3.076726  0  0  -0.212065  0  3.327746  0  0  -0.220528  0  3.338032  0  0  -0.274795  -0.206429  0  3.321266  0
N  N66  1  0.66930676  0.38011342  0.47218831  1  0  -0.259266  0  3.076863  0  0  -0.212131  0  3.327842  0  0  -0.220595  0  3.338126  0  0  -0.274788  -0.206496  0  3.321357  0
N  N67  1  0.83068914  0.61988695  0.97219134  1  0  -0.25927  0  3.076854  0  0  -0.212163  0  3.327791  0  0  -0.220629  0  3.338076  0  0  -0.274821  -0.206527  0  3.321313  0
O  O68  1  0.24737693  0.08083718  0.34342554  1  0  -0.844251  0  1.910627  0  0  -0.780237  0  2.11138  0  0  -0.802108  0  2.077742  0  0  -0.57629  -0.764488  0  2.134527  0
O  O69  1  0.25261859  0.91915901  0.84342331  1  0  -0.844276  0  1.9105  0  0  -0.780302  0  2.111335  0  0  -0.802136  0  2.077612  0  0  -0.576294  -0.764543  0  2.134456  0
O  O70  1  0.75261877  0.58083720  0.15657705  1  0  -0.844248  0  1.910576  0  0  -0.780278  0  2.111379  0  0  -0.802104  0  2.077648  0  0  -0.576288  -0.764511  0  2.134493  0
O  O71  1  0.74737362  0.41916393  0.65657288  1  0  -0.844183  0  1.910701  0  0  -0.780203  0  2.111405  0  0  -0.802061  0  2.077736  0  0  -0.576253  -0.764444  0  2.134538  0
O  O72  1  0.30145248  0.81110343  0.44102504  1  0  -0.8314  0  1.869057  0  0  -0.763038  0  2.068842  0  0  -0.786983  0  2.034522  0  0  -0.589943  -0.746071  0  2.092507  0
O  O73  1  0.19854017  0.18890142  0.94102350  1  0  -0.831483  0  1.869247  0  0  -0.763072  0  2.068986  0  0  -0.787023  0  2.034686  0  0  -0.58995  -0.746125  0  2.092677  0
O  O74  1  0.69854300  0.31110123  0.05897629  1  0  -0.831491  0  1.869117  0  0  -0.763082  0  2.068917  0  0  -0.787029  0  2.034613  0  0  -0.589964  -0.746127  0  2.092591  0
O  O75  1  0.80145403  0.68889950  0.55897396  1  0  -0.831484  0  1.869047  0  0  -0.763087  0  2.068896  0  0  -0.787031  0  2.034585  0  0  -0.589993  -0.746128  0  2.092569  0
O  O76  1  0.70630427  0.70763820  0.31293489  1  0  -0.854411  0  1.83694  0  0  -0.796979  0  2.026505  0  0  -0.81859  0  1.992729  0  0  -0.598897  -0.781532  0  2.050068  0
O  O77  1  0.79370226  0.29236393  0.81293295  1  0  -0.854384  0  1.836997  0  0  -0.796985  0  2.026485  0  0  -0.818593  0  1.992708  0  0  -0.598881  -0.781539  0  2.050052  0
O  O78  1  0.29370483  0.20762919  0.18706149  1  0  -0.854424  0  1.836976  0  0  -0.79699  0  2.026542  0  0  -0.818597  0  1.992767  0  0  -0.598932  -0.78154  0  2.050105  0
O  O79  1  0.20629246  0.79236691  0.68706227  1  0  -0.854445  0  1.836932  0  0  -0.797024  0  2.026496  0  0  -0.818633  0  1.992724  0  0  -0.598944  -0.781573  0  2.050057  0
O  O80  1  0.82275498  0.01467177  0.26376936  1  0  -0.653505  0  2.06654  0  0  -0.586278  0  2.320054  0  0  -0.615943  0  2.310315  0  0  -0.316315  -0.56543  0  2.32588  0
O  O81  1  0.67725035  0.98533338  0.76376378  1  0  -0.653408  0  2.067015  0  0  -0.58617  0  2.320491  0  0  -0.615837  0  2.310752  0  0  -0.316294  -0.565328  0  2.326316  0
O  O82  1  0.17725164  0.51467247  0.23623668  1  0  -0.653466  0  2.06693  0  0  -0.586259  0  2.320415  0  0  -0.61593  0  2.310694  0  0  -0.316316  -0.565415  0  2.326242  0
O  O83  1  0.32275923  0.48533622  0.73623681  1  0  -0.653444  0  2.066789  0  0  -0.586243  0  2.320233  0  0  -0.615904  0  2.310498  0  0  -0.316338  -0.565394  0  2.326056  0
O  O84  1  0.88044499  0.09483097  0.12933807  1  0  -0.604495  0  2.005054  0  0  -0.542373  0  2.221544  0  0  -0.567868  0  2.213786  0  0  -0.291468  -0.524647  0  2.226498  0
O  O85  1  0.61956362  0.90516755  0.62933736  1  0  -0.60453  0  2.005041  0  0  -0.542417  0  2.221519  0  0  -0.567919  0  2.213772  0  0  -0.291457  -0.524695  0  2.226477  0
O  O86  1  0.11955986  0.59483245  0.37066579  1  0  -0.604569  0  2.004977  0  0  -0.542459  0  2.221458  0  0  -0.567962  0  2.213713  0  0  -0.291451  -0.524734  0  2.226418  0
O  O87  1  0.38044419  0.40516635  0.87066345  1  0  -0.604528  0  2.004966  0  0  -0.542425  0  2.221426  0  0  -0.567921  0  2.213676  0  0  -0.291461  -0.5247  0  2.226381  0
O  O88  1  0.62159889  0.09349087  0.95089036  1  0  -0.632979  0  2.061897  0  0  -0.552758  0  2.290097  0  0  -0.583721  0  2.279637  0  0  -0.305708  -0.530878  0  2.296546  0
O  O89  1  0.87839725  0.90651605  0.45089220  1  0  -0.632927  0  2.061943  0  0  -0.552784  0  2.290182  0  0  -0.583732  0  2.279687  0  0  -0.305674  -0.530906  0  2.296636  0
O  O90  1  0.37838438  0.59348092  0.54910277  1  0  -0.632996  0  2.061927  0  0  -0.552802  0  2.290187  0  0  -0.583758  0  2.279722  0  0  -0.305707  -0.530927  0  2.296644  0
O  O91  1  0.12160740  0.40651591  0.04910626  1  0  -0.63299  0  2.061926  0  0  -0.552785  0  2.290203  0  0  -0.583737  0  2.279734  0  0  -0.305676  -0.530906  0  2.296654  0
O  O92  1  0.84789660  0.92601335  0.96243310  1  0  -0.596914  0  1.98322  0  0  -0.540456  0  2.223055  0  0  -0.571188  0  2.218949  0  0  -0.300133  -0.518429  0  2.224961  0
O  O93  1  0.65210825  0.07400544  0.46243351  1  0  -0.596903  0  1.982894  0  0  -0.540478  0  2.22268  0  0  -0.571212  0  2.218576  0  0  -0.300093  -0.518448  0  2.224581  0
O  O94  1  0.15210284  0.42599876  0.53756830  1  0  -0.597027  0  1.982916  0  0  -0.540503  0  2.222688  0  0  -0.571241  0  2.218583  0  0  -0.3001  -0.518469  0  2.22459  0
O  O95  1  0.34792088  0.57399170  0.03756649  1  0  -0.59689  0  1.982997  0  0  -0.540416  0  2.222891  0  0  -0.571155  0  2.218788  0  0  -0.300079  -0.518386  0  2.224799  0
