# generated using pymatgen
data_ZnH17C28(NO2)3
_symmetry_space_group_name_H-M   'P 1'
_cell_length_a   16.25501750
_cell_length_b   17.19711928
_cell_length_c   23.75397087
_cell_angle_alpha   88.99554491
_cell_angle_beta   85.63548748
_cell_angle_gamma   87.05977384
_symmetry_Int_Tables_number   1
_chemical_formula_structural   ZnH17C28(NO2)3
_chemical_formula_sum   'Zn2 H34 C56 N6 O12'
_cell_volume   6611.58160539
_cell_formula_units_Z   2
loop_
 _symmetry_equiv_pos_site_id
 _symmetry_equiv_pos_as_xyz
  1  'x, y, z'
loop_
 _atom_site_type_symbol
 _atom_site_label
 _atom_site_symmetry_multiplicity
 _atom_site_fract_x
 _atom_site_fract_y
 _atom_site_fract_z
 _atom_site_occupancy
 _atom_site_pbe_bader_charge
 _atom_site_pbe_bader_spin_density
 _atom_site_pbe_cm5_charge
 _atom_site_pbe_ddec_charge
 _atom_site_pbe_ddec_spin_density
 _atom_site_pbe_ddec_sum_bond_order
 _atom_site_pbe_magmom
Zn  Zn0  1  0.58571770  0.50017281  0.49776236  1  1.285155  0  0.662424  0.81296  0  2.429093  0
Zn  Zn1  1  0.41456700  0.49754432  0.50732321  1  1.282149  0  0.663596  0.813972  0  2.444897  0
H  H2  1  0.65471262  0.11485009  0.43846413  1  0.049022  0  0.096931  0.094048  0  1.003984  0
H  H3  1  0.33892722  0.88750656  0.45963197  1  0.055576  0  0.097244  0.094412  0  1.004268  0
H  H4  1  0.60035837  0.87582079  0.41052956  1  0.026552  0  0.098998  0.097642  0  1.006864  0
H  H5  1  0.38834461  0.12519009  0.44312531  1  0.04286  0  0.098258  0.096234  0  1.010276  0
H  H6  1  0.27949895  0.57617542  0.44865128  1  0.148242  0  0.131088  0.106983  0  0.9704  0
H  H7  1  0.72077459  0.42200345  0.55738896  1  0.144863  0  0.132659  0.108531  0  0.964139  0
H  H8  1  0.71165624  0.59328964  0.43358729  1  0.112777  0  0.130912  0.105562  0  0.97067  0
H  H9  1  0.28868821  0.40445927  0.57214968  1  0.132382  0  0.132742  0.107864  0  0.961816  0
H  H10  1  0.99666294  0.56392002  0.45762613  1  0.058064  0  0.10752  0.103535  0  0.997154  0
H  H11  1  0.00370195  0.43373621  0.54816448  1  0.062988  0  0.107597  0.103057  0  0.998985  0
H  H12  1  0.13487682  0.39385749  0.57803446  1  0.088681  0  0.113378  0.119101  0  0.987242  0
H  H13  1  0.86560123  0.60376081  0.42772573  1  0.069234  0  0.113183  0.118407  0  0.986731  0
H  H14  1  0.87387016  0.42435310  0.55763462  1  0.082059  0  0.112398  0.117289  0  0.995403  0
H  H15  1  0.12627767  0.57332879  0.44816497  1  0.077341  0  0.112328  0.117263  0  0.995227  0
H  H16  1  0.57564818  0.31628115  0.94342602  1  0.131566  0  0.114232  0.127957  0  0.989994  0
H  H17  1  0.42656552  0.68320024  0.06147824  1  0.090295  0  0.113975  0.127438  0  0.988758  0
H  H18  1  0.63136087  0.51834204  0.78015532  1  0.088524  0  0.107825  0.113968  0  0.981899  0
H  H19  1  0.37004874  0.48567725  0.22442356  1  0.067638  0  0.107713  0.114309  0  0.98144  0
H  H20  1  0.62974348  0.51836595  0.67440785  1  0.084454  0  0.103976  0.105843  0  1.003403  0
H  H21  1  0.37197052  0.48439167  0.33029480  1  0.088993  0  0.103969  0.106263  0  1.003388  0
H  H22  1  0.36808684  0.49245165  0.68981745  1  0.106134  0  0.104162  0.106498  0  1.002132  0
H  H23  1  0.63493576  0.49997714  0.31493144  1  0.077524  0  0.104477  0.106944  0  1.002454  0
H  H24  1  0.36922307  0.49173752  0.79562889  1  0.055671  0  0.107823  0.114017  0  0.982489  0
H  H25  1  0.63374021  0.50217205  0.20898935  1  0.07799  0  0.107648  0.114064  0  0.98277  0
H  H26  1  0.38567331  0.26184442  0.47475365  1  0.131059  0  0.10096  0.104088  0  1.006621  0
H  H27  1  0.60714844  0.73579193  0.43743029  1  0.078845  0  0.099929  0.100495  0  1.011437  0
H  H28  1  0.34729512  0.74589511  0.48491414  1  0.0902  0  0.101547  0.104666  0  1.004315  0
H  H29  1  0.65001448  0.25310035  0.46960334  1  0.115098  0  0.10239  0.106356  0  0.999907  0
H  H30  1  0.40061361  0.00351402  0.43725032  1  0.046431  0  0.097637  0.09308  0  1.014124  0
H  H31  1  0.59052696  0.99939107  0.42535835  1  0.021437  0  0.09736  0.092646  0  1.012133  0
H  H32  1  0.60029618  0.24764405  0.03055406  1  0.449301  0  0.321586  0.31602  0  0.925248  0
H  H33  1  0.58065550  0.29407746  0.09708159  1  0.52595  0  0.305701  0.322107  0  0.983222  0
H  H34  1  0.40089567  0.75153696  0.97471404  1  0.446454  0  0.321696  0.316788  0  0.923623  0
H  H35  1  0.42006357  0.70547016  0.90802843  1  0.515363  0  0.30582  0.323106  0  0.979903  0
C  C36  1  0.51343183  0.34717249  0.49592015  1  1.540137  0  0.209848  0.588365  0  4.176058  0
C  C37  1  0.48455822  0.64971649  0.48411779  1  1.554011  0  0.211026  0.589952  0  4.174539  0
C  C38  1  0.57399046  0.51264793  0.75996494  1  -0.05613  0  -0.084425  -0.151681  0  3.981417  0
C  C39  1  0.42775946  0.48889005  0.24462295  1  0.042177  0  -0.084783  -0.153652  0  3.982577  0
C  C40  1  0.57309311  0.51252244  0.70139039  1  0.043021  0  -0.080004  -0.076094  0  3.970887  0
C  C41  1  0.42874716  0.48828302  0.30315315  1  -0.039256  0  -0.080672  -0.075903  0  3.974538  0
C  C42  1  0.49886582  0.50500720  0.67603113  1  0.005495  0  -0.014615  -0.03029  0  3.949734  0
C  C43  1  0.50345037  0.49259654  0.32839373  1  0.018025  0  -0.014861  -0.029809  0  3.958873  0
C  C44  1  0.42536710  0.49781071  0.71012278  1  -0.096467  0  -0.079667  -0.076027  0  3.974158  0
C  C45  1  0.57742031  0.49721574  0.29447692  1  -0.061122  0  -0.080404  -0.076294  0  3.975768  0
C  C46  1  0.42601659  0.49747388  0.76870013  1  0.019258  0  -0.085305  -0.153251  0  3.983201  0
C  C47  1  0.57671356  0.49837744  0.23593423  1  -0.000596  0  -0.08558  -0.154096  0  3.983767  0
C  C48  1  0.50037213  0.50490250  0.79326071  1  0.357022  0  0.090838  0.196213  0  4.016143  0
C  C49  1  0.50179717  0.49423740  0.21143906  1  0.316573  0  0.090226  0.20236  0  4.019713  0
C  C50  1  0.51743406  0.26503104  0.47573729  1  0.007412  0  -0.019497  -0.031003  0  3.958807  0
C  C51  1  0.47816427  0.73285940  0.46450456  1  -0.029674  0  -0.019027  -0.031776  0  3.961108  0
C  C52  1  0.44416514  0.22859656  0.46688782  1  -0.122615  0  -0.086018  -0.088644  0  4.0005  0
C  C53  1  0.54874180  0.76990837  0.44214252  1  -0.059838  0  -0.087149  -0.08962  0  4.002687  0
C  C54  1  0.44629573  0.15218399  0.44903173  1  -0.010268  0  -0.093651  -0.135282  0  3.978199  0
C  C55  1  0.54450517  0.84832243  0.42737778  1  -0.026383  0  -0.093212  -0.136055  0  3.973801  0
C  C56  1  0.52206072  0.10870422  0.43996391  1  0.011084  0  -0.010508  0.114906  0  4.049153  0
C  C57  1  0.46944029  0.89314152  0.43555738  1  -0.001753  0  -0.010186  0.117278  0  4.045708  0
C  C58  1  0.49802360  0.50398223  0.61284139  1  1.544744  0  0.216127  0.59529  0  4.165314  0
C  C59  1  0.50420277  0.49303395  0.39146144  1  1.576867  0  0.212622  0.588396  0  4.176139  0
C  C60  1  0.59539039  0.14707505  0.44644114  1  -0.073913  0  -0.093339  -0.140931  0  3.983996  0
C  C61  1  0.39794053  0.85412518  0.45435058  1  -0.038133  0  -0.093756  -0.140834  0  3.983986  0
C  C62  1  0.59328192  0.22393585  0.46404473  1  -0.04158  0  -0.086034  -0.088425  0  3.994248  0
C  C63  1  0.40215358  0.77539025  0.46875611  1  -0.020854  0  -0.087194  -0.090872  0  4.002102  0
C  C64  1  0.52755827  0.02537178  0.42964173  1  -0.041674  0  -0.092159  -0.13119  0  3.999945  0
C  C65  1  0.46354634  0.97772581  0.43170833  1  -0.045794  0  -0.092042  -0.131945  0  4.00162  0
C  C66  1  0.24411178  0.53689410  0.47643499  1  0.479903  0  0.061654  0.10575  0  3.924941  0
C  C67  1  0.75610087  0.46112471  0.52943012  1  0.463357  0  0.06278  0.105486  0  3.925607  0
C  C68  1  0.15898185  0.53472093  0.47671153  1  -0.039705  0  -0.077899  -0.175696  0  3.931845  0
C  C69  1  0.84125998  0.46304492  0.52910732  1  -0.042384  0  -0.077812  -0.175494  0  3.933232  0
C  C70  1  0.11649963  0.48308717  0.51378096  1  0.040346  0  0.00914  0.146635  0  4.040619  0
C  C71  1  0.88386094  0.51457887  0.49202071  1  -0.013283  0  0.009554  0.147646  0  4.039831  0
C  C72  1  0.16435005  0.43516312  0.54864329  1  0.003485  0  -0.078304  -0.182096  0  3.942213  0
C  C73  1  0.83605446  0.56251400  0.45711973  1  0.011581  0  -0.078174  -0.181598  0  3.93837  0
C  C74  1  0.24952585  0.44063391  0.54584379  1  0.459283  0  0.064341  0.109368  0  3.926296  0
C  C75  1  0.75085868  0.55717850  0.45990991  1  0.471573  0  0.064489  0.109794  0  3.921442  0
C  C76  1  0.02713533  0.47728390  0.51777575  1  -0.034901  0  -0.075644  -0.114079  0  3.961707  0
C  C77  1  0.97322935  0.52034345  0.48799318  1  -0.041789  0  -0.076499  -0.115728  0  3.961456  0
C  C78  1  0.47301874  0.56603139  0.12541678  1  1.32802  0  0.239594  0.441246  0  4.100304  0
C  C79  1  0.52980548  0.43371617  0.87940349  1  1.307458  0  0.239237  0.435298  0  4.100955  0
C  C80  1  0.52808281  0.42718046  0.12186500  1  1.292739  0  0.23448  0.448293  0  4.097836  0
C  C81  1  0.47344928  0.57220938  0.88289780  1  1.274071  0  0.234608  0.44336  0  4.099886  0
C  C82  1  0.52836562  0.42896744  0.06047781  1  -0.01956  0  -0.030268  -0.206236  0  3.977662  0
C  C83  1  0.47333620  0.57047529  0.94431881  1  0.055618  0  -0.030042  -0.206119  0  3.977761  0
C  C84  1  0.50130254  0.49790172  0.03227797  1  -0.033436  0  -0.007875  0.029355  0  4.045327  0
C  C85  1  0.50074578  0.50165025  0.97252447  1  0.013953  0  -0.008515  0.026818  0  4.047461  0
C  C86  1  0.47367765  0.56573787  0.06306334  1  -0.002404  0  -0.009978  -0.047554  0  4.023636  0
C  C87  1  0.52868862  0.43387201  0.94178065  1  0.02656  0  -0.010468  -0.047358  0  4.02336  0
C  C88  1  0.55564562  0.36180833  0.02878007  1  0.536037  0  0.120227  0.313437  0  4.090505  0
C  C89  1  0.44604337  0.63757495  0.97609163  1  0.500611  0  0.119492  0.313631  0  4.088734  0
C  C90  1  0.55503341  0.36664588  0.96906900  1  -0.072773  0  -0.078764  -0.190324  0  3.903979  0
C  C91  1  0.44712020  0.63284821  0.03578266  1  0.017175  0  -0.078526  -0.189547  0  3.902478  0
N  N92  1  0.50090408  0.49593007  0.15071411  1  -1.228183  0  -0.23086  -0.225086  0  3.590965  0
N  N93  1  0.50125237  0.50358756  0.85405390  1  -1.225445  0  -0.23122  -0.207397  0  3.564997  0
N  N94  1  0.28862633  0.49086765  0.51054226  1  -1.25321  0  -0.315346  -0.189757  0  3.50928  0
N  N95  1  0.71161394  0.50719154  0.49533440  1  -1.209498  0  -0.315979  -0.189245  0  3.504986  0
N  N96  1  0.58173500  0.29470913  0.05395561  1  -1.281776  0  -0.572641  -0.596149  0  3.347721  0
N  N97  1  0.41945293  0.70465208  0.95111100  1  -1.265389  0  -0.572341  -0.597719  0  3.343781  0
O  O98  1  0.58136474  0.37977636  0.50026695  1  -1.17274  0  -0.324175  -0.555036  0  2.303288  0
O  O99  1  0.41728794  0.61676651  0.49812888  1  -1.164963  0  -0.322241  -0.5528  0  2.315083  0
O  O100  1  0.44146657  0.37925031  0.50653153  1  -1.168635  0  -0.324896  -0.56081  0  2.333663  0
O  O101  1  0.55701180  0.61789561  0.48559668  1  -1.168154  0  -0.320852  -0.556268  0  2.324003  0
O  O102  1  0.56751568  0.50632161  0.58426930  1  -1.166185  0  -0.31861  -0.553472  0  2.326739  0
O  O103  1  0.43437977  0.49476255  0.41978315  1  -1.172573  0  -0.319195  -0.554303  0  2.328094  0
O  O104  1  0.42799310  0.50065985  0.59253361  1  -1.162594  0  -0.318761  -0.547691  0  2.316644  0
O  O105  1  0.57455890  0.49201451  0.41176913  1  -1.162558  0  -0.319559  -0.547092  0  2.316596  0
O  O106  1  0.45016621  0.62312091  0.15414432  1  -1.111555  0  -0.291452  -0.45244  0  2.060028  0
O  O107  1  0.55353016  0.37688986  0.85065831  1  -1.113635  0  -0.291039  -0.452494  0  2.065219  0
O  O108  1  0.55023489  0.36887894  0.14978238  1  -1.11623  0  -0.284432  -0.458609  0  2.100769  0
O  O109  1  0.45071833  0.63032877  0.85501569  1  -1.114857  0  -0.285515  -0.460513  0  2.101417  0
