# generated using pymatgen
data_CuH16C16S2I
_symmetry_space_group_name_H-M   'P 1'
_cell_length_a   11.31087101
_cell_length_b   12.90184941
_cell_length_c   12.90189337
_cell_angle_alpha   107.61948143
_cell_angle_beta   89.99969226
_cell_angle_gamma   90.00057946
_symmetry_Int_Tables_number   1
_chemical_formula_structural   CuH16C16S2I
_chemical_formula_sum   'Cu4 H64 C64 S8 I4'
_cell_volume   1794.46246222
_cell_formula_units_Z   4
loop_
 _symmetry_equiv_pos_site_id
 _symmetry_equiv_pos_as_xyz
  1  'x, y, z'
loop_
 _atom_site_type_symbol
 _atom_site_label
 _atom_site_symmetry_multiplicity
 _atom_site_fract_x
 _atom_site_fract_y
 _atom_site_fract_z
 _atom_site_occupancy
 _atom_site_pbe_bader_charge
 _atom_site_pbe_bader_spin_density
 _atom_site_pbe_cm5_charge
 _atom_site_pbe_ddec_charge
 _atom_site_pbe_ddec_spin_density
 _atom_site_pbe_ddec_sum_bond_order
 _atom_site_pbe_magmom
Cu  Cu0  1  0.28768937  0.56104547  0.56104573  1  0.383175  0  0.236575  0.073253  0  2.766844  0
Cu  Cu1  1  0.78768855  0.43895154  0.43895376  1  0.383028  0  0.236603  0.07325  0  2.766886  0
Cu  Cu2  1  0.26389243  0.75201277  0.75201314  1  0.3666  0  0.237405  0.062965  0  2.921189  0
Cu  Cu3  1  0.76389410  0.24798731  0.24798811  1  0.366587  0  0.237405  0.062965  0  2.921206  0
H  H4  1  0.18304933  0.42927628  0.30876816  1  0.096802  0  0.081678  0.114098  0  1.04756  0
H  H5  1  0.68305557  0.57072553  0.69123163  1  0.095411  0  0.08171  0.114198  0  1.047545  0
H  H6  1  0.18305711  0.30876344  0.42927174  1  0.095338  0  0.081672  0.114109  0  1.047663  0
H  H7  1  0.68305133  0.69123180  0.57072229  1  0.096388  0  0.081699  0.114169  0  1.04754  0
H  H8  1  0.33956951  0.41269681  0.28976831  1  0.074417  0  0.086561  0.113758  0  1.028936  0
H  H9  1  0.83957582  0.58730306  0.71023176  1  0.074355  0  0.086573  0.113753  0  1.028947  0
H  H10  1  0.33957815  0.28976716  0.41269581  1  0.072377  0  0.086565  0.113739  0  1.02901  0
H  H11  1  0.83957249  0.71023191  0.58730481  1  0.07248  0  0.086546  0.113741  0  1.02894  0
H  H12  1  0.41026918  0.39128660  0.11172911  1  0.051081  0  0.095623  0.098341  0  1.011053  0
H  H13  1  0.91027376  0.60871302  0.88826979  1  0.051256  0  0.095648  0.098361  0  1.010956  0
H  H14  1  0.41027731  0.11172541  0.39128738  1  0.051248  0  0.095625  0.098322  0  1.01097  0
H  H15  1  0.91027005  0.88827180  0.60871238  1  0.051285  0  0.095629  0.098358  0  1.011018  0
H  H16  1  0.40931565  0.44512395  0.94283749  1  0.033951  0  0.095677  0.09369  0  1.039721  0
H  H17  1  0.90931320  0.55487971  0.05716180  1  0.033918  0  0.095685  0.093703  0  1.039714  0
H  H18  1  0.40931475  0.94283623  0.44512478  1  0.033931  0  0.095651  0.093646  0  1.039771  0
H  H19  1  0.90931499  0.05716262  0.55487700  1  0.033861  0  0.09568  0.093688  0  1.039811  0
H  H20  1  0.09383095  0.63306229  0.04961546  1  0.052681  0  0.099159  0.103453  0  1.004512  0
H  H21  1  0.59382705  0.36693557  0.95038516  1  0.052642  0  0.099122  0.103428  0  1.004439  0
H  H22  1  0.09382932  0.04961424  0.63306406  1  0.05269  0  0.099143  0.103425  0  1.004396  0
H  H23  1  0.59383221  0.95038441  0.36693523  1  0.052701  0  0.099118  0.10343  0  1.004445  0
H  H24  1  0.09524646  0.58014506  0.21775620  1  0.060955  0  0.092411  0.093248  0  1.06523  0
H  H25  1  0.59525039  0.41985196  0.78224184  1  0.060919  0  0.0924  0.093232  0  1.065359  0
H  H26  1  0.09525210  0.21775686  0.58014319  1  0.060989  0  0.092406  0.093246  0  1.06529  0
H  H27  1  0.59525006  0.78224172  0.41985142  1  0.061289  0  0.092402  0.093263  0  1.06537  0
H  H28  1  0.18413304  0.83306831  0.56212147  1  0.100771  0  0.090664  0.109648  0  1.028135  0
H  H29  1  0.68413704  0.16693027  0.43787817  1  0.100724  0  0.090684  0.109681  0  1.028189  0
H  H30  1  0.18413595  0.56212059  0.83307090  1  0.10093  0  0.090673  0.109668  0  1.028177  0
H  H31  1  0.68413590  0.43787966  0.16693154  1  0.100746  0  0.090667  0.109649  0  1.028196  0
H  H32  1  0.34036245  0.83904779  0.55364458  1  0.075441  0  0.092641  0.109964  0  1.016858  0
H  H33  1  0.84036632  0.16095287  0.44635416  1  0.075348  0  0.092662  0.109972  0  1.01684  0
H  H34  1  0.34036611  0.55364217  0.83904980  1  0.075173  0  0.092681  0.110023  0  1.01678  0
H  H35  1  0.84036531  0.44635852  0.16095050  1  0.075198  0  0.092685  0.110035  0  1.016768  0
H  H36  1  0.48916171  0.57474649  0.36282880  1  0.087965  0  0.08603  0.112198  0  1.035233  0
H  H37  1  0.98916483  0.42525467  0.63717482  1  0.088257  0  0.086014  0.112191  0  1.035218  0
H  H38  1  0.48916603  0.36283162  0.57474917  1  0.087855  0  0.08603  0.112208  0  1.035219  0
H  H39  1  0.98916140  0.63717355  0.42525250  1  0.087992  0  0.085989  0.112108  0  1.035231  0
H  H40  1  0.44499229  0.70264030  0.44987155  1  0.05337  0  0.086021  0.101641  0  1.050175  0
H  H41  1  0.94499534  0.29736127  0.55013007  1  0.05339  0  0.086039  0.101644  0  1.050134  0
H  H42  1  0.44499094  0.44987438  0.70264088  1  0.053334  0  0.086029  0.10163  0  1.050215  0
H  H43  1  0.94499316  0.55012636  0.29735973  1  0.053373  0  0.086004  0.101595  0  1.050169  0
H  H44  1  0.58364309  0.59286011  0.20624708  1  0.068205  0  0.092412  0.087981  0  1.050225  0
H  H45  1  0.08364424  0.40713926  0.79375247  1  0.068191  0  0.092395  0.087966  0  1.050254  0
H  H46  1  0.58364055  0.20625269  0.59285939  1  0.068196  0  0.092409  0.087976  0  1.050189  0
H  H47  1  0.08364412  0.79375146  0.40713610  1  0.068205  0  0.092409  0.087999  0  1.050232  0
H  H48  1  0.57918538  0.64795346  0.03811666  1  0.071202  0  0.095515  0.097961  0  1.028143  0
H  H49  1  0.07918398  0.35204507  0.96188267  1  0.071229  0  0.095532  0.09798  0  1.028094  0
H  H50  1  0.57918087  0.03811942  0.64795116  1  0.071264  0  0.09551  0.097947  0  1.028023  0
H  H51  1  0.07918495  0.96188389  0.35204410  1  0.071226  0  0.095502  0.097939  0  1.028045  0
H  H52  1  0.27532628  0.84926914  0.16126747  1  0.067342  0  0.096172  0.097038  0  1.009323  0
H  H53  1  0.77531967  0.15072943  0.83873485  1  0.067265  0  0.09617  0.097051  0  1.009287  0
H  H54  1  0.27532196  0.16126795  0.84927112  1  0.067337  0  0.09618  0.097042  0  1.009212  0
H  H55  1  0.77532311  0.83873222  0.15073010  1  0.067287  0  0.096191  0.097062  0  1.009341  0
H  H56  1  0.27870891  0.79172057  0.32621312  1  0.059767  0  0.09384  0.093275  0  1.041741  0
H  H57  1  0.77870752  0.20827884  0.67378943  1  0.059778  0  0.093836  0.093316  0  1.041724  0
H  H58  1  0.27870833  0.32621583  0.79172439  1  0.05971  0  0.093872  0.093308  0  1.041719  0
H  H59  1  0.77870633  0.67378687  0.20828064  1  0.059736  0  0.093836  0.093305  0  1.04171  0
H  H60  1  0.41550335  0.98455913  0.85766882  1  0.053414  0  0.103143  0.122657  0  0.965467  0
H  H61  1  0.91550651  0.01544216  0.14233054  1  0.053385  0  0.10313  0.12263  0  0.965522  0
H  H62  1  0.41550930  0.85767043  0.98455721  1  0.051141  0  0.103132  0.122655  0  0.965484  0
H  H63  1  0.91550322  0.14233090  0.01544448  1  0.051143  0  0.103114  0.122611  0  0.965514  0
H  H64  1  0.47543420  0.91828400  0.72713389  1  0.089156  0  0.089674  0.108913  0  1.020623  0
H  H65  1  0.97543822  0.08171776  0.27286454  1  0.089099  0  0.089662  0.10889  0  1.020669  0
H  H66  1  0.47544047  0.72713378  0.91828303  1  0.089133  0  0.089648  0.108915  0  1.020672  0
H  H67  1  0.97543638  0.27286643  0.08171884  1  0.089108  0  0.089648  0.108874  0  1.020649  0
C  C68  1  0.26395692  0.28641404  0.46490021  1  -0.130791  0  -0.150984  -0.225361  0  3.861755  0
C  C69  1  0.76395427  0.71358355  0.53509723  1  -0.131893  0  -0.151022  -0.225418  0  3.861413  0
C  C70  1  0.26395054  0.46490205  0.28641529  1  -0.132312  0  -0.150964  -0.225254  0  3.861405  0
C  C71  1  0.76395446  0.53509800  0.71358440  1  -0.130954  0  -0.151023  -0.225387  0  3.861439  0
C  C72  1  0.25314186  0.17707857  0.48252522  1  -0.043989  0  -0.019863  0.11711  0  3.987557  0
C  C73  1  0.75313528  0.82292136  0.51747294  1  -0.043837  0  -0.019906  0.117064  0  3.987449  0
C  C74  1  0.25313041  0.48252515  0.17707888  1  -0.043652  0  -0.019941  0.117043  0  3.987512  0
C  C75  1  0.75313523  0.51747480  0.82292006  1  -0.043912  0  -0.019954  0.11702  0  3.987566  0
C  C76  1  0.33888911  0.09698811  0.44212088  1  -0.028856  0  -0.093507  -0.129832  0  3.977455  0
C  C77  1  0.83888498  0.90300857  0.55788215  1  -0.028893  0  -0.093498  -0.129897  0  3.977277  0
C  C78  1  0.33888509  0.44211609  0.09698934  1  -0.028886  0  -0.093455  -0.129844  0  3.97728  0
C  C79  1  0.83888458  0.55788134  0.90301003  1  -0.028918  0  -0.093486  -0.129899  0  3.977482  0
C  C80  1  0.33837746  0.00195713  0.47247573  1  -0.032496  0  -0.093655  -0.130634  0  3.98902  0
C  C81  1  0.83837461  0.99804680  0.52752628  1  -0.032422  0  -0.093667  -0.130623  0  3.989023  0
C  C82  1  0.33837101  0.47247295  0.00195577  1  -0.03245  0  -0.093631  -0.130558  0  3.989306  0
C  C83  1  0.83837221  0.52752687  0.99804196  1  -0.032268  0  -0.093672  -0.130588  0  3.989128  0
C  C84  1  0.25218797  0.98436226  0.54301171  1  -0.03638  0  -0.020268  0.113587  0  3.980084  0
C  C85  1  0.75218922  0.01563696  0.45699245  1  -0.036198  0  -0.020219  0.113638  0  3.980165  0
C  C86  1  0.25219114  0.54300268  0.98436174  1  -0.036211  0  -0.020347  0.113393  0  3.98023  0
C  C87  1  0.75218693  0.45699160  0.01563713  1  -0.036314  0  -0.020247  0.113539  0  3.98005  0
C  C88  1  0.16142839  0.57716750  0.06118482  1  -0.079936  0  -0.093905  -0.129756  0  3.986193  0
C  C89  1  0.66142786  0.42283411  0.93881346  1  -0.079924  0  -0.093989  -0.129965  0  3.986576  0
C  C90  1  0.16143178  0.06118683  0.57716525  1  -0.079801  0  -0.093985  -0.129853  0  3.986602  0
C  C91  1  0.66143154  0.93881561  0.42283405  1  -0.079935  0  -0.093912  -0.129832  0  3.986447  0
C  C92  1  0.16200259  0.54710735  0.15585213  1  0.028095  0  -0.098536  -0.140643  0  3.99448  0
C  C93  1  0.66200299  0.45288782  0.84414741  1  0.028133  0  -0.098444  -0.140446  0  3.99452  0
C  C94  1  0.16200620  0.15585117  0.54711168  1  0.028188  0  -0.098503  -0.140607  0  3.994599  0
C  C95  1  0.66200380  0.84414564  0.45288910  1  0.027792  0  -0.098527  -0.140626  0  3.994457  0
C  C96  1  0.26106282  0.88772456  0.58447888  1  -0.154002  0  -0.147728  -0.223812  0  3.885899  0
C  C97  1  0.76106632  0.11227548  0.41552159  1  -0.153866  0  -0.147804  -0.223936  0  3.885904  0
C  C98  1  0.26106456  0.58447558  0.88772540  1  -0.153731  0  -0.147819  -0.223948  0  3.885868  0
C  C99  1  0.76106370  0.41552364  0.11227485  1  -0.153484  0  -0.147815  -0.22394  0  3.885877  0
C  C100  1  0.42529077  0.64108220  0.37170776  1  -0.113926  0  -0.153585  -0.235378  0  3.885739  0
C  C101  1  0.92529317  0.35891841  0.62829445  1  -0.114287  0  -0.153577  -0.235405  0  3.885979  0
C  C102  1  0.42529193  0.37171004  0.64108324  1  -0.113866  0  -0.153578  -0.235401  0  3.885936  0
C  C103  1  0.92528937  0.62829214  0.35891633  1  -0.113919  0  -0.153545  -0.235265  0  3.885611  0
C  C104  1  0.43036521  0.68640431  0.27710858  1  0.027546  0  -0.019351  0.114206  0  3.972527  0
C  C105  1  0.93036473  0.31359632  0.72289207  1  0.027617  0  -0.019327  0.114252  0  3.972511  0
C  C106  1  0.43036512  0.27711339  0.68640582  1  0.028262  0  -0.019373  0.11423  0  3.972496  0
C  C107  1  0.93036393  0.72289042  0.31359186  1  0.027958  0  -0.019315  0.114254  0  3.972418  0
C  C108  1  0.51712337  0.65056849  0.19686958  1  -0.105721  0  -0.093253  -0.12585  0  3.974298  0
C  C109  1  0.01712380  0.34943198  0.80313137  1  -0.105711  0  -0.093213  -0.125811  0  3.974253  0
C  C110  1  0.51712113  0.19687263  0.65056857  1  -0.105996  0  -0.09326  -0.125914  0  3.974183  0
C  C111  1  0.01712604  0.80312941  0.34942972  1  -0.105645  0  -0.093235  -0.125851  0  3.974047  0
C  C112  1  0.51493922  0.68238423  0.10257519  1  -0.029469  0  -0.094523  -0.129563  0  3.969115  0
C  C113  1  0.01493693  0.31761540  0.89742474  1  -0.029437  0  -0.094556  -0.129588  0  3.968984  0
C  C114  1  0.51493498  0.10257827  0.68238228  1  -0.030704  0  -0.094472  -0.129489  0  3.968743  0
C  C115  1  0.01493676  0.89742530  0.31761181  1  -0.029476  0  -0.0945  -0.129508  0  3.968977  0
C  C116  1  0.42583247  0.75136038  0.08693451  1  0.000269  0  -0.021653  0.111187  0  3.990486  0
C  C117  1  0.92582920  0.24863860  0.91306646  1  0.000284  0  -0.021611  0.111238  0  3.99033  0
C  C118  1  0.42582748  0.08693736  0.75136119  1  0.001435  0  -0.021652  0.111199  0  3.990358  0
C  C119  1  0.92583243  0.91306484  0.24863915  1  0.000248  0  -0.021662  0.111169  0  3.990565  0
C  C120  1  0.34513841  0.79478807  0.17157159  1  -0.061807  0  -0.096128  -0.130787  0  3.990955  0
C  C121  1  0.84513516  0.20521025  0.82842956  1  -0.061796  0  -0.096096  -0.130787  0  3.990869  0
C  C122  1  0.34513732  0.17157521  0.79479006  1  -0.061624  0  -0.096138  -0.130822  0  3.990982  0
C  C123  1  0.84513537  0.82842873  0.20520882  1  -0.061756  0  -0.096076  -0.13074  0  3.990844  0
C  C124  1  0.34708032  0.76233738  0.26484009  1  -0.073472  0  -0.094423  -0.127895  0  3.989325  0
C  C125  1  0.84707889  0.23766095  0.73516106  1  -0.073533  0  -0.094468  -0.127998  0  3.989358  0
C  C126  1  0.34707945  0.26484293  0.76234226  1  -0.073964  0  -0.094502  -0.127944  0  3.989446  0
C  C127  1  0.84707976  0.73515869  0.23766216  1  -0.073939  0  -0.094501  -0.12804  0  3.989375  0
C  C128  1  0.40988597  0.97864118  0.77087581  1  -0.118363  0  -0.143685  -0.222248  0  3.892608  0
C  C129  1  0.90988956  0.02136006  0.22912356  1  -0.118355  0  -0.143724  -0.222278  0  3.892719  0
C  C130  1  0.40989121  0.77087596  0.97863944  1  -0.11841  0  -0.14368  -0.222313  0  3.892805  0
C  C131  1  0.90988698  0.22912451  0.02136203  1  -0.118363  0  -0.143693  -0.22223  0  3.892641  0
S  S132  1  0.27926810  0.39750360  0.59276914  1  -0.020174  0  -0.029775  0.083132  0  3.156748  0
S  S133  1  0.77926672  0.60249494  0.40722927  1  -0.020222  0  -0.029758  0.083133  0  3.156639  0
S  S134  1  0.27926541  0.59277102  0.39750282  1  -0.020222  0  -0.02977  0.083074  0  3.156579  0
S  S135  1  0.77926853  0.40722753  0.60249637  1  -0.020013  0  -0.029816  0.083065  0  3.156776  0
S  S136  1  0.26192809  0.92003463  0.73291211  1  2.3e-05  0  -0.040166  0.062691  0  3.122522  0
S  S137  1  0.76193036  0.07996381  0.26708868  1  9.4e-05  0  -0.040147  0.062749  0  3.122524  0
S  S138  1  0.26193262  0.73291024  0.92003574  1  -9.2e-05  0  -0.040133  0.062768  0  3.12257  0
S  S139  1  0.76192848  0.26708985  0.07996707  1  -0.000189  0  -0.040155  0.062728  0  3.122534  0
I  I140  1  0.07673680  0.65109775  0.65109888  1  -0.505554  0  -0.227719  -0.398447  0  1.826772  0
I  I141  1  0.57673814  0.34889998  0.34890177  1  -0.505538  0  -0.227726  -0.398462  0  1.826818  0
I  I142  1  0.47070209  0.66756978  0.66756827  1  -0.4839  0  -0.190517  -0.353416  0  1.93522  0
I  I143  1  0.97070334  0.33243119  0.33243306  1  -0.483941  0  -0.190504  -0.353361  0  1.93521  0
