# generated using pymatgen
data_CdH19C26(NO2)3
_symmetry_space_group_name_H-M   'P 1'
_cell_length_a   10.04997814
_cell_length_b   10.54005223
_cell_length_c   13.41098723
_cell_angle_alpha   80.27728875
_cell_angle_beta   64.97428923
_cell_angle_gamma   61.65014821
_symmetry_Int_Tables_number   1
_chemical_formula_structural   CdH19C26(NO2)3
_chemical_formula_sum   'Cd2 H38 C52 N6 O12'
_cell_volume   1131.92613097
_cell_formula_units_Z   2
loop_
 _symmetry_equiv_pos_site_id
 _symmetry_equiv_pos_as_xyz
  1  'x, y, z'
loop_
 _atom_site_type_symbol
 _atom_site_label
 _atom_site_symmetry_multiplicity
 _atom_site_fract_x
 _atom_site_fract_y
 _atom_site_fract_z
 _atom_site_occupancy
 _atom_site_hle17_bader_spin_density
 _atom_site_hle17_ddec_charge
 _atom_site_hle17_ddec_spin_density
 _atom_site_hle17_ddec_sum_bond_order
 _atom_site_hle17_magmom
 _atom_site_hse06_10hf_bader_spin_density
 _atom_site_hse06_10hf_ddec_charge
 _atom_site_hse06_10hf_ddec_spin_density
 _atom_site_hse06_10hf_ddec_sum_bond_order
 _atom_site_hse06_10hf_magmom
 _atom_site_hse06_bader_spin_density
 _atom_site_hse06_ddec_charge
 _atom_site_hse06_ddec_spin_density
 _atom_site_hse06_ddec_sum_bond_order
 _atom_site_hse06_magmom
 _atom_site_pbe_bader_spin_density
 _atom_site_pbe_cm5_charge
 _atom_site_pbe_ddec_charge
 _atom_site_pbe_ddec_spin_density
 _atom_site_pbe_ddec_sum_bond_order
 _atom_site_pbe_magmom
Cd  Cd0  1  0.50987099  0.78730192  0.89045530  1  0  1.150004  0  1.581826  0  0  0.967052  0  2.014568  0  0  1.028951  0  1.95698  0  0  0.75643  0.923466  0  2.053147  0
Cd  Cd1  1  0.49012288  0.21271409  0.10952901  1  0  1.149957  0  1.581813  0  0  0.966992  0  2.014592  0  0  1.028904  0  1.956987  0  0  0.756425  0.923409  0  2.053169  0
H  H2  1  0.15471321  0.65433611  0.08181962  1  0  0.329414  0  0.836528  0  0  0.322343  0  0.878573  0  0  0.32845  0  0.8747  0  0  0.344461  0.318054  0  0.881314  0
H  H3  1  0.84527234  0.34566840  0.91817740  1  0  0.32945  0  0.836372  0  0  0.322251  0  0.878575  0  0  0.328359  0  0.874702  0  0  0.344415  0.317963  0  0.881316  0
H  H4  1  0.90532595  0.61358055  0.73708800  1  0  0.089635  0  0.920683  0  0  0.100227  0  0.97906  0  0  0.103145  0  0.976519  0  0  0.122615  0.097975  0  0.9811  0
H  H5  1  0.09468674  0.38642242  0.26290882  1  0  0.089649  0  0.920675  0  0  0.100215  0  0.97907  0  0  0.103132  0  0.976532  0  0  0.122612  0.097964  0  0.981108  0
H  H6  1  0.17778652  0.54485631  0.74472907  1  0  0.103474  0  0.961555  0  0  0.115317  0  1.019002  0  0  0.118122  0  1.019019  0  0  0.10859  0.113308  0  1.019084  0
H  H7  1  0.82221694  0.45516012  0.25527681  1  0  0.103417  0  0.961604  0  0  0.115269  0  1.019036  0  0  0.118091  0  1.019011  0  0  0.108546  0.113272  0  1.019107  0
H  H8  1  0.18444818  0.60988350  0.91028108  1  0  0.113694  0  0.938937  0  0  0.122816  0  1.001293  0  0  0.126299  0  0.998381  0  0  0.112651  0.1204  0  1.003284  0
H  H9  1  0.81553204  0.39015015  0.08972972  1  0  0.113785  0  0.938974  0  0  0.122923  0  1.001279  0  0  0.1264  0  0.998377  0  0  0.112682  0.120505  0  1.00327  0
H  H10  1  0.65353320  0.77815519  0.05813875  1  0  0.08699  0  0.984115  0  0  0.095081  0  1.051265  0  0  0.098223  0  1.047731  0  0  0.122222  0.092717  0  1.053835  0
H  H11  1  0.34644686  0.22187047  0.94184898  1  0  0.086986  0  0.9839  0  0  0.09503  0  1.051115  0  0  0.098146  0  1.047635  0  0  0.122171  0.092663  0  1.053687  0
H  H12  1  0.56256870  0.87591327  0.42198545  1  0  0.113219  0  0.963192  0  0  0.121347  0  1.026892  0  0  0.124695  0  1.024951  0  0  0.106654  0.119047  0  1.027868  0
H  H13  1  0.43742175  0.12412184  0.57801749  1  0  0.113222  0  0.963037  0  0  0.121217  0  1.026913  0  0  0.12456  0  1.024984  0  0  0.106592  0.118919  0  1.027881  0
H  H14  1  0.69462400  0.83060057  0.55330561  1  0  0.105711  0  0.941766  0  0  0.117514  0  0.997853  0  0  0.120722  0  0.995775  0  0  0.103238  0.114987  0  0.999781  0
H  H15  1  0.30537177  0.16940745  0.44669979  1  0  0.105718  0  0.941814  0  0  0.11757  0  0.997835  0  0  0.120783  0  0.995747  0  0  0.103243  0.115045  0  0.999761  0
H  H16  1  0.99794038  0.72079218  0.48859411  1  0  0.079561  0  0.971223  0  0  0.092278  0  1.030965  0  0  0.094144  0  1.031356  0  0  0.094458  0.090984  0  1.030606  0
H  H17  1  0.00205939  0.27918291  0.51140577  1  0  0.0795  0  0.971341  0  0  0.092268  0  1.031025  0  0  0.094136  0  1.031426  0  0  0.094444  0.090973  0  1.030665  0
H  H18  1  0.17995732  0.65405431  0.29167629  1  0  0.104669  0  0.993961  0  0  0.115515  0  1.052432  0  0  0.117085  0  1.053453  0  0  0.100781  0.114628  0  1.051188  0
H  H19  1  0.82003796  0.34592308  0.70832254  1  0  0.10458  0  0.994097  0  0  0.115473  0  1.05251  0  0  0.117041  0  1.053534  0  0  0.100782  0.114612  0  1.051239  0
H  H20  1  0.92741174  0.02883609  0.10912428  1  0  0.114975  0  0.951174  0  0  0.121477  0  1.017584  0  0  0.12539  0  1.014005  0  0  0.104011  0.118627  0  1.020292  0
H  H21  1  0.07259393  0.97118673  0.89086684  1  0  0.115079  0  0.951135  0  0  0.121408  0  1.017758  0  0  0.125323  0  1.014175  0  0  0.103991  0.118559  0  1.020466  0
H  H22  1  0.67348934  0.14211605  0.28032209  1  0  0.122368  0  0.952063  0  0  0.132305  0  1.011133  0  0  0.135747  0  1.009717  0  0  0.107414  0.129882  0  1.012357  0
H  H23  1  0.32652228  0.85787423  0.71967257  1  0  0.122325  0  0.952098  0  0  0.132245  0  1.01121  0  0  0.135687  0  1.009791  0  0  0.107361  0.12982  0  1.012435  0
H  H24  1  0.97153199  0.11107109  0.44642603  1  0  0.107499  0  0.96456  0  0  0.11835  0  1.024787  0  0  0.121351  0  1.024316  0  0  0.103351  0.116114  0  1.025454  0
H  H25  1  0.02848574  0.88888210  0.55357553  1  0  0.107528  0  0.964463  0  0  0.118432  0  1.024662  0  0  0.121438  0  1.024177  0  0  0.103358  0.116193  0  1.025331  0
H  H26  1  0.22316294  0.99744006  0.27843044  1  0  0.097946  0  0.977739  0  0  0.109517  0  1.037753  0  0  0.112153  0  1.035888  0  0  0.102974  0.10746  0  1.039421  0
H  H27  1  0.77684874  0.00254589  0.72156462  1  0  0.09786  0  0.977654  0  0  0.109426  0  1.037698  0  0  0.112062  0  1.035832  0  0  0.102914  0.107374  0  1.03936  0
H  H28  1  0.74314368  0.40596323  0.40765301  1  0  0.099675  0  0.982368  0  0  0.11066  0  1.042968  0  0  0.113541  0  1.042556  0  0  0.100612  0.10872  0  1.043256  0
H  H29  1  0.25689968  0.59399338  0.59235431  1  0  0.099712  0  0.982373  0  0  0.110637  0  1.043026  0  0  0.113521  0  1.042608  0  0  0.100668  0.108699  0  1.043316  0
H  H30  1  0.67954179  0.58744248  0.53997840  1  0  0.101259  0  0.960627  0  0  0.108934  0  1.026632  0  0  0.111949  0  1.024994  0  0  0.103412  0.106891  0  1.027511  0
H  H31  1  0.32048472  0.41252756  0.46002547  1  0  0.101107  0  0.960688  0  0  0.10886  0  1.026616  0  0  0.111886  0  1.024976  0  0  0.103422  0.106814  0  1.027503  0
H  H32  1  0.47420193  0.36213215  0.81042585  1  0  0.098213  0  0.953684  0  0  0.105674  0  1.020685  0  0  0.108863  0  1.018017  0  0  0.10068  0.103435  0  1.022553  0
H  H33  1  0.52581177  0.63784776  0.18957812  1  0  0.098123  0  0.953658  0  0  0.105556  0  1.020699  0  0  0.108741  0  1.01804  0  0  0.100619  0.103317  0  1.022567  0
H  H34  1  0.54093004  0.17909380  0.67772303  1  0  0.11657  0  0.97629  0  0  0.124993  0  1.041181  0  0  0.129096  0  1.037968  0  0  0.107532  0.122013  0  1.04355  0
H  H35  1  0.45908076  0.82088528  0.32229314  1  0  0.116648  0  0.97625  0  0  0.125117  0  1.041086  0  0  0.129182  0  1.037924  0  0  0.107545  0.122138  0  1.043454  0
H  H36  1  0.41607123  0.07492145  0.81131322  1  0  0.387252  0  0.937773  0  0  0.347669  0  1.016799  0  0  0.359047  0  1.000883  0  0  0.276083  0.339692  0  1.027972  0
H  H37  1  0.58390886  0.92510405  0.18869169  1  0  0.387277  0  0.93776  0  0  0.347716  0  1.016755  0  0  0.359097  0  1.000834  0  0  0.276086  0.339737  0  1.027932  0
H  H38  1  0.56302003  0.03111518  0.85045396  1  0  0.41358  0  0.900628  0  0  0.380539  0  0.969173  0  0  0.392093  0  0.952561  0  0  0.280072  0.372351  0  0.980907  0
H  H39  1  0.43697137  0.96890551  0.14954038  1  0  0.413528  0  0.900722  0  0  0.380504  0  0.96923  0  0  0.392058  0  0.952618  0  0  0.280034  0.372311  0  0.980973  0
C  C40  1  0.91306190  0.63656729  0.81025551  1  0  0.129641  0  3.692318  0  0  0.093971  0  3.953104  0  0  0.103743  0  3.968911  0  0  0.048961  0.087825  0  3.942236  0
C  C41  1  0.08694424  0.36343770  0.18974467  1  0  0.129609  0  3.692195  0  0  0.093978  0  3.952937  0  0  0.103747  0  3.968748  0  0  0.048982  0.087832  0  3.942072  0
C  C42  1  0.06295389  0.60093188  0.81451319  1  0  -0.102022  0  3.725938  0  0  -0.117092  0  3.985777  0  0  -0.12438  0  4.006592  0  0  -0.076469  -0.112681  0  3.972407  0
C  C43  1  0.93704789  0.39908146  0.18549129  1  0  -0.10187  0  3.725956  0  0  -0.11695  0  3.985767  0  0  -0.124233  0  4.006596  0  0  -0.076373  -0.112552  0  3.972396  0
C  C44  1  0.06636552  0.63541336  0.90887640  1  0  -0.028228  0  3.660876  0  0  -0.05634  0  3.911545  0  0  -0.0518  0  3.928835  0  0  -0.057348  -0.058967  0  3.900086  0
C  C45  1  0.93361744  0.36460875  0.09113018  1  0  -0.02834  0  3.660898  0  0  -0.056477  0  3.911549  0  0  -0.051941  0  3.928843  0  0  -0.057419  -0.059101  0  3.900092  0
C  C46  1  0.91702372  0.70164737  0.99979468  1  0  -0.053584  0  3.784613  0  0  -0.030942  0  4.023705  0  0  -0.038477  0  4.045897  0  0  0.00185  -0.026872  0  4.009123  0
C  C47  1  0.08295302  0.29837406  0.00020795  1  0  -0.053735  0  3.784708  0  0  -0.03099  0  4.023783  0  0  -0.038522  0  4.045964  0  0  0.001825  -0.026923  0  4.009204  0
C  C48  1  0.77204009  0.73016364  0.98948889  1  0  0.110328  0  3.663713  0  0  0.068576  0  3.914286  0  0  0.07688  0  3.931573  0  0  0.052652  0.062882  0  3.903709  0
C  C49  1  0.22794322  0.26985361  0.01051059  1  0  0.110229  0  3.663693  0  0  0.068479  0  3.91426  0  0  0.076771  0  3.931571  0  0  0.052623  0.062785  0  3.903681  0
C  C50  1  0.90367449  0.73280919  0.10638708  1  0  0.355134  0  3.765028  0  0  0.316364  0  4.044006  0  0  0.333685  0  4.057627  0  0  0.229247  0.305321  0  4.03427  0
C  C51  1  0.09630616  0.26721313  0.89361721  1  0  0.354934  0  3.765038  0  0  0.315963  0  4.044201  0  0  0.333285  0  4.057817  0  0  0.229018  0.304923  0  4.03446  0
C  C52  1  0.79887681  0.78426495  0.28215138  1  0  0.139771  0  3.838164  0  0  0.141025  0  4.080794  0  0  0.142928  0  4.106404  0  0  0.086408  0.139604  0  4.063825  0
C  C53  1  0.20110825  0.21575522  0.71785173  1  0  0.139679  0  3.838107  0  0  0.140801  0  4.080907  0  0  0.142702  0  4.106513  0  0  0.086398  0.139381  0  4.063936  0
C  C54  1  0.69590268  0.82722733  0.39311352  1  0  -0.136644  0  3.722899  0  0  -0.15724  0  3.976075  0  0  -0.160086  0  3.996558  0  0  -0.090628  -0.155393  0  3.961612  0
C  C55  1  0.30408226  0.17279733  0.60688696  1  0  -0.136595  0  3.722659  0  0  -0.157036  0  3.975906  0  0  -0.159882  0  3.996394  0  0  -0.09063  -0.15519  0  3.961441  0
C  C56  1  0.77055804  0.80294171  0.46588996  1  0  -0.071415  0  3.763083  0  0  -0.089415  0  4.02215  0  0  -0.091388  0  4.043349  0  0  -0.096319  -0.087889  0  4.007924  0
C  C57  1  0.22943368  0.19706780  0.53411060  1  0  -0.071455  0  3.763235  0  0  -0.089493  0  4.022265  0  0  -0.091469  0  4.043468  0  0  -0.096287  -0.087966  0  4.008037  0
C  C58  1  0.94332236  0.74009008  0.42916959  1  0  -0.061125  0  3.77025  0  0  -0.076704  0  4.022362  0  0  -0.079473  0  4.04682  0  0  -0.093825  -0.075114  0  4.005975  0
C  C59  1  0.05667727  0.25989791  0.57082982  1  0  -0.061071  0  3.770458  0  0  -0.076695  0  4.02257  0  0  -0.079474  0  4.047043  0  0  -0.093859  -0.075106  0  4.006187  0
C  C60  1  0.04736039  0.70006897  0.31896609  1  0  -0.159399  0  3.763443  0  0  -0.175597  0  4.010444  0  0  -0.179428  0  4.033982  0  0  -0.100351  -0.173355  0  3.994851  0
C  C61  1  0.95263759  0.29991589  0.68103265  1  0  -0.159441  0  3.763681  0  0  -0.175683  0  4.010739  0  0  -0.179513  0  4.034277  0  0  -0.100436  -0.17346  0  3.995127  0
C  C62  1  0.97258260  0.72171016  0.24645547  1  0  0.157974  0  3.803136  0  0  0.149933  0  4.050682  0  0  0.152911  0  4.074597  0  0  0.097116  0.147553  0  4.035956  0
C  C63  1  0.02740755  0.27829395  0.75354612  1  0  0.158146  0  3.803338  0  0  0.150075  0  4.05094  0  0  0.153058  0  4.074846  0  0  0.097221  0.147691  0  4.036221  0
C  C64  1  0.24372490  0.92818294  0.08331409  1  0  0.634656  0  3.921524  0  0  0.585177  0  4.210928  0  0  0.620466  0  4.205165  0  0  0.194249  0.561448  0  4.213536  0
C  C65  1  0.75627575  0.07182635  0.91667247  1  0  0.634495  0  3.921341  0  0  0.584969  0  4.210744  0  0  0.620253  0  4.204989  0  0  0.194186  0.561242  0  4.21335  0
C  C66  1  0.09275279  0.00405834  0.18244465  1  0  -0.102249  0  3.793105  0  0  -0.08217  0  4.033132  0  0  -0.093791  0  4.058518  0  0  -0.034147  -0.074453  0  4.015703  0
C  C67  1  0.90725195  0.99594518  0.81754641  1  0  -0.102362  0  3.793234  0  0  -0.082085  0  4.032999  0  0  -0.093709  0  4.058392  0  0  -0.034179  -0.07437  0  4.015574  0
C  C68  1  0.93701287  0.04620748  0.18320633  1  0  -0.042114  0  3.72382  0  0  -0.068247  0  3.978574  0  0  -0.06488  0  3.997514  0  0  -0.082625  -0.06992  0  3.965767  0
C  C69  1  0.06298855  0.95380451  0.81678719  1  0  -0.042186  0  3.723834  0  0  -0.068257  0  3.978552  0  0  -0.064892  0  3.997494  0  0  -0.082573  -0.069931  0  3.965747  0
C  C70  1  0.79530800  0.11005710  0.27754439  1  0  -0.176767  0  3.718657  0  0  -0.197139  0  3.973602  0  0  -0.204478  0  3.994169  0  0  -0.098011  -0.192354  0  3.960113  0
C  C71  1  0.20469751  0.88993650  0.72245038  1  0  -0.176766  0  3.718623  0  0  -0.197133  0  3.973544  0  0  -0.20448  0  3.994094  0  0  -0.098033  -0.192348  0  3.960056  0
C  C72  1  0.80933392  0.13252366  0.37165619  1  0  0.288735  0  3.787534  0  0  0.278038  0  4.049439  0  0  0.2909  0  4.06429  0  0  0.090355  0.269226  0  4.039172  0
C  C73  1  0.19067407  0.86745671  0.62834281  1  0  0.28883  0  3.78769  0  0  0.278123  0  4.049588  0  0  0.291036  0  4.064386  0  0  0.09039  0.269311  0  4.039321  0
C  C74  1  0.96282011  0.09391775  0.37198750  1  0  -0.207019  0  3.772744  0  0  -0.224856  0  4.024381  0  0  -0.232519  0  4.044687  0  0  -0.107579  -0.219668  0  4.010693  0
C  C75  1  0.03719400  0.90605298  0.62800977  1  0  -0.207231  0  3.772665  0  0  -0.225137  0  4.02433  0  0  -0.232809  0  4.044624  0  0  -0.107705  -0.219946  0  4.010646  0
C  C76  1  0.10361995  0.02980238  0.27743751  1  0  -0.040891  0  3.746882  0  0  -0.063516  0  3.991699  0  0  -0.060699  0  4.012544  0  0  -0.083581  -0.064952  0  3.977298  0
C  C77  1  0.89639106  0.97018486  0.72255465  1  0  -0.040528  0  3.746522  0  0  -0.063193  0  3.991304  0  0  -0.06038  0  4.012153  0  0  -0.083411  -0.064636  0  3.976907  0
C  C78  1  0.64437749  0.28327897  0.53576974  1  0  0.282136  0  3.791243  0  0  0.272308  0  4.050763  0  0  0.28446  0  4.066251  0  0  0.088996  0.2646  0  4.039362  0
C  C79  1  0.35563912  0.71669744  0.46423738  1  0  0.282291  0  3.791723  0  0  0.272361  0  4.051338  0  0  0.284551  0  4.066788  0  0  0.089038  0.264654  0  4.039936  0
C  C80  1  0.68537971  0.39684974  0.49593801  1  0  -0.197879  0  3.776068  0  0  -0.215165  0  4.026481  0  0  -0.222366  0  4.046847  0  0  -0.10362  -0.210491  0  4.012478  0
C  C81  1  0.31464535  0.60312515  0.50407332  1  0  -0.198029  0  3.776249  0  0  -0.215274  0  4.026766  0  0  -0.22248  0  4.047131  0  0  -0.10375  -0.210601  0  4.012764  0
C  C82  1  0.64838072  0.49833386  0.56970714  1  0  -0.028888  0  3.720407  0  0  -0.054137  0  3.969805  0  0  -0.049998  0  3.986813  0  0  -0.077727  -0.056278  0  3.957856  0
C  C83  1  0.35163030  0.50165328  0.43030145  1  0  -0.028603  0  3.720253  0  0  -0.053855  0  3.96962  0  0  -0.049754  0  3.986633  0  0  -0.077674  -0.055997  0  3.957669  0
C  C84  1  0.56973952  0.48775580  0.68355200  1  0  -0.096255  0  3.780127  0  0  -0.07375  0  4.014795  0  0  -0.083892  0  4.037596  0  0  -0.030737  -0.067699  0  4.000203  0
C  C85  1  0.43026587  0.51222952  0.31645332  1  0  -0.096401  0  3.779904  0  0  -0.074031  0  4.014732  0  0  -0.084101  0  4.037444  0  0  -0.030835  -0.067973  0  4.000135  0
C  C86  1  0.52968560  0.37299539  0.72198702  1  0  -0.046417  0  3.739311  0  0  -0.070181  0  3.992757  0  0  -0.067479  0  4.011762  0  0  -0.084369  -0.072084  0  3.979698  0
C  C87  1  0.47031653  0.62699197  0.27802062  1  0  -0.04627  0  3.739208  0  0  -0.069957  0  3.992674  0  0  -0.06728  0  4.011665  0  0  -0.084288  -0.07186  0  3.979611  0
C  C88  1  0.56757015  0.27041640  0.64861909  1  0  -0.180235  0  3.739088  0  0  -0.204916  0  3.999479  0  0  -0.211195  0  4.018496  0  0  -0.102322  -0.200138  0  3.985498  0
C  C89  1  0.43243545  0.72956639  0.35139163  1  0  -0.180437  0  3.739538  0  0  -0.205129  0  3.999919  0  0  -0.211387  0  4.018951  0  0  -0.102378  -0.200347  0  3.985933  0
C  C90  1  0.54125647  0.59074811  0.76272213  1  0  0.616649  0  3.972392  0  0  0.569218  0  4.265072  0  0  0.603712  0  4.260381  0  0  0.182661  0.545834  0  4.267759  0
C  C91  1  0.45874092  0.40924630  0.23727811  1  0  0.616718  0  3.972329  0  0  0.569355  0  4.264962  0  0  0.603825  0  4.260269  0  0  0.182665  0.54597  0  4.267654  0
N  N92  1  0.76925683  0.70023196  0.89745927  1  0  -0.341097  0  3.261481  0  0  -0.262081  0  3.535255  0  0  -0.28359  0  3.552787  0  0  -0.326934  -0.247718  0  3.522481  0
N  N93  1  0.23074194  0.29977457  0.10253636  1  0  -0.34098  0  3.261514  0  0  -0.26196  0  3.535252  0  0  -0.283468  0  3.552778  0  0  -0.326923  -0.247594  0  3.522472  0
N  N94  1  0.03461562  0.69161870  0.13467121  1  0  -0.380623  0  3.344319  0  0  -0.328506  0  3.582699  0  0  -0.345525  0  3.594448  0  0  -0.373344  -0.317091  0  3.574753  0
N  N95  1  0.96537105  0.30838997  0.86532729  1  0  -0.380573  0  3.344237  0  0  -0.328196  0  3.582548  0  0  -0.345214  0  3.594298  0  0  -0.373194  -0.31678  0  3.574595  0
N  N96  1  0.76063208  0.79063716  0.19314292  1  0  -0.462282  0  3.065587  0  0  -0.409713  0  3.318018  0  0  -0.428672  0  3.333763  0  0  -0.327245  -0.397059  0  3.307163  0
N  N97  1  0.23935023  0.20939040  0.80686258  1  0  -0.462027  0  3.065355  0  0  -0.409306  0  3.317795  0  0  -0.42826  0  3.333539  0  0  -0.327007  -0.396657  0  3.306937  0
O  O98  1  0.52385731  0.99280407  0.81045852  1  0  -0.836606  0  1.906583  0  0  -0.769487  0  2.115119  0  0  -0.793315  0  2.078975  0  0  -0.595243  -0.752361  0  2.140008  0
O  O99  1  0.47611713  0.00722389  0.18954346  1  0  -0.836585  0  1.906628  0  0  -0.769477  0  2.1151  0  0  -0.793317  0  2.07897  0  0  -0.59521  -0.752377  0  2.140056  0
O  O100  1  0.23036253  0.89382741  0.00229652  1  0  -0.629837  0  1.956618  0  0  -0.568701  0  2.200075  0  0  -0.597488  0  2.18982  0  0  -0.329178  -0.548927  0  2.206689  0
O  O101  1  0.76962651  0.10618733  0.99769168  1  0  -0.62969  0  1.956423  0  0  -0.568576  0  2.199893  0  0  -0.597364  0  2.189649  0  0  -0.329121  -0.548798  0  2.2065  0
O  O102  1  0.38610787  0.89558864  0.08033482  1  0  -0.670657  0  2.018279  0  0  -0.599088  0  2.252895  0  0  -0.629239  0  2.242822  0  0  -0.327205  -0.577863  0  2.258687  0
O  O103  1  0.61390305  0.10441362  0.91964246  1  0  -0.670629  0  2.018207  0  0  -0.599056  0  2.25286  0  0  -0.629201  0  2.242788  0  0  -0.327193  -0.577837  0  2.25865  0
O  O104  1  0.66695722  0.18540542  0.46616530  1  0  -0.296636  0  2.358639  0  0  -0.226111  0  2.5825  0  0  -0.245307  0  2.585262  0  0  -0.144893  -0.21217  0  2.579542  0
O  O105  1  0.33305952  0.81456440  0.53384392  1  0  -0.296672  0  2.358894  0  0  -0.22609  0  2.582745  0  0  -0.24533  0  2.585504  0  0  -0.14483  -0.212149  0  2.579786  0
O  O106  1  0.46740248  0.58246367  0.86597611  1  0  -0.655465  0  1.888655  0  0  -0.600956  0  2.115173  0  0  -0.627473  0  2.103159  0  0  -0.348739  -0.582013  0  2.122277  0
O  O107  1  0.53263116  0.41751164  0.13402724  1  0  -0.655425  0  1.888663  0  0  -0.600906  0  2.11513  0  0  -0.627425  0  2.103128  0  0  -0.348616  -0.581962  0  2.122236  0
O  O108  1  0.59701176  0.68393960  0.72307514  1  0  -0.646423  0  1.954984  0  0  -0.582183  0  2.195243  0  0  -0.611815  0  2.184997  0  0  -0.338278  -0.561538  0  2.201527  0
O  O109  1  0.40295257  0.31607620  0.27691926  1  0  -0.646452  0  1.95491  0  0  -0.582259  0  2.195192  0  0  -0.611889  0  2.18495  0  0  -0.338348  -0.56161  0  2.201482  0
