# generated using pymatgen
data_CdH15C19NO6
_symmetry_space_group_name_H-M   'P 1'
_cell_length_a   8.01617865
_cell_length_b   10.91277182
_cell_length_c   10.91276086
_cell_angle_alpha   70.26471548
_cell_angle_beta   77.45021707
_cell_angle_gamma   77.45008564
_symmetry_Int_Tables_number   1
_chemical_formula_structural   CdH15C19NO6
_chemical_formula_sum   'Cd2 H30 C38 N2 O12'
_cell_volume   866.26590004
_cell_formula_units_Z   2
loop_
 _symmetry_equiv_pos_site_id
 _symmetry_equiv_pos_as_xyz
  1  'x, y, z'
loop_
 _atom_site_type_symbol
 _atom_site_label
 _atom_site_symmetry_multiplicity
 _atom_site_fract_x
 _atom_site_fract_y
 _atom_site_fract_z
 _atom_site_occupancy
 _atom_site_hle17_bader_spin_density
 _atom_site_hle17_ddec_charge
 _atom_site_hle17_ddec_spin_density
 _atom_site_hle17_ddec_sum_bond_order
 _atom_site_hle17_magmom
 _atom_site_hse06_10hf_bader_spin_density
 _atom_site_hse06_10hf_ddec_charge
 _atom_site_hse06_10hf_ddec_spin_density
 _atom_site_hse06_10hf_ddec_sum_bond_order
 _atom_site_hse06_10hf_magmom
 _atom_site_hse06_bader_spin_density
 _atom_site_hse06_ddec_charge
 _atom_site_hse06_ddec_spin_density
 _atom_site_hse06_ddec_sum_bond_order
 _atom_site_hse06_magmom
 _atom_site_pbe_bader_spin_density
 _atom_site_pbe_cm5_charge
 _atom_site_pbe_ddec_charge
 _atom_site_pbe_ddec_spin_density
 _atom_site_pbe_ddec_sum_bond_order
 _atom_site_pbe_magmom
Cd  Cd0  1  0.24999927  0.12273573  0.87726476  1  0  1.163662  0  1.621069  0  0  0.979559  0  2.054833  0  0  1.037878  0  2.000323  0  0  0.7596  0.938605  0  2.091492  0
Cd  Cd1  1  0.75000080  0.87726471  0.12273542  1  0  1.163672  0  1.621067  0  0  0.97957  0  2.054825  0  0  1.037889  0  2.000315  0  0  0.759609  0.938616  0  2.091482  0
H  H2  1  0.57569495  0.15401590  0.93841354  1  0  0.424148  0  0.871339  0  0  0.394749  0  0.933568  0  0  0.405361  0  0.918257  0  0  0.293004  0.387321  0  0.944254  0
H  H3  1  0.92430581  0.06158775  0.84598399  1  0  0.424239  0  0.871276  0  0  0.394785  0  0.93354  0  0  0.405397  0  0.918228  0  0  0.293011  0.387357  0  0.944226  0
H  H4  1  0.42430534  0.84598354  0.06158785  1  0  0.424126  0  0.871413  0  0  0.394713  0  0.933641  0  0  0.405325  0  0.918329  0  0  0.29298  0.387284  0  0.944328  0
H  H5  1  0.07569511  0.93841467  0.15401448  1  0  0.424243  0  0.871211  0  0  0.394793  0  0.933512  0  0  0.405405  0  0.9182  0  0  0.293013  0.387366  0  0.944198  0
H  H6  1  0.62115710  0.06683176  0.84735496  1  0  0.42678  0  0.872369  0  0  0.395397  0  0.937082  0  0  0.406355  0  0.921053  0  0  0.292535  0.387638  0  0.94842  0
H  H7  1  0.87884242  0.15264576  0.93316711  1  0  0.426793  0  0.872364  0  0  0.395414  0  0.937069  0  0  0.406371  0  0.921041  0  0  0.292538  0.387655  0  0.948406  0
H  H8  1  0.37884190  0.93316769  0.15264574  1  0  0.426842  0  0.87228  0  0  0.39548  0  0.936964  0  0  0.406437  0  0.920936  0  0  0.292582  0.387721  0  0.948302  0
H  H9  1  0.12115743  0.84735566  0.06683187  1  0  0.426789  0  0.872359  0  0  0.395412  0  0.937062  0  0  0.406369  0  0.921033  0  0  0.292536  0.387652  0  0.948399  0
H  H10  1  0.26610408  0.64787682  0.98947217  1  0  0.098072  0  0.942516  0  0  0.109552  0  1.0009  0  0  0.112684  0  0.998989  0  0  0.103999  0.107247  0  1.002404  0
H  H11  1  0.23389554  0.01052736  0.35212272  1  0  0.098053  0  0.942504  0  0  0.109536  0  1.000888  0  0  0.112666  0  0.998977  0  0  0.103998  0.107232  0  1.002393  0
H  H12  1  0.73389472  0.35212361  0.01052823  1  0  0.098068  0  0.942501  0  0  0.10956  0  1.000878  0  0  0.112691  0  0.998966  0  0  0.103997  0.107254  0  1.002383  0
H  H13  1  0.76610346  0.98947210  0.64787706  1  0  0.098067  0  0.942519  0  0  0.109546  0  1.000903  0  0  0.112678  0  0.998993  0  0  0.104003  0.107242  0  1.002409  0
H  H14  1  0.33733565  0.42765088  0.95336561  1  0  0.103632  0  0.954804  0  0  0.113726  0  1.011891  0  0  0.116749  0  1.011312  0  0  0.101772  0.111556  0  1.01227  0
H  H15  1  0.16266432  0.04663330  0.57234860  1  0  0.103618  0  0.954784  0  0  0.113715  0  1.011867  0  0  0.116738  0  1.011288  0  0  0.101779  0.111547  0  1.012247  0
H  H16  1  0.66266593  0.57234857  0.04663558  1  0  0.103631  0  0.954799  0  0  0.113727  0  1.011888  0  0  0.116751  0  1.011303  0  0  0.101777  0.111557  0  1.012267  0
H  H17  1  0.83733340  0.95336615  0.42765139  1  0  0.10362  0  0.954785  0  0  0.113717  0  1.011872  0  0  0.11674  0  1.011292  0  0  0.101774  0.111549  0  1.012251  0
H  H18  1  0.51480804  0.40079999  0.74672654  1  0  0.094983  0  0.969768  0  0  0.103704  0  1.036252  0  0  0.106382  0  1.034723  0  0  0.099175  0.101678  0  1.037357  0
H  H19  1  0.98519183  0.25327293  0.59919999  1  0  0.094988  0  0.969759  0  0  0.103715  0  1.036233  0  0  0.106392  0  1.034704  0  0  0.099183  0.101689  0  1.037337  0
H  H20  1  0.48519333  0.59920045  0.25327435  1  0  0.095013  0  0.969726  0  0  0.103717  0  1.036226  0  0  0.106394  0  1.034697  0  0  0.099176  0.10169  0  1.03733  0
H  H21  1  0.01480718  0.74672651  0.40080070  1  0  0.094995  0  0.969768  0  0  0.103719  0  1.036251  0  0  0.106396  0  1.034722  0  0  0.099179  0.101691  0  1.037357  0
H  H22  1  0.53262365  0.82005132  0.60271990  1  0  0.101849  0  0.965266  0  0  0.110399  0  1.030628  0  0  0.113583  0  1.028454  0  0  0.105  0.108001  0  1.032539  0
H  H23  1  0.96737591  0.39728037  0.17994844  1  0  0.101861  0  0.965239  0  0  0.110413  0  1.030599  0  0  0.113598  0  1.028426  0  0  0.105002  0.108015  0  1.032508  0
H  H24  1  0.46737513  0.17994912  0.39727959  1  0  0.101839  0  0.96527  0  0  0.110392  0  1.030631  0  0  0.113576  0  1.028457  0  0  0.104999  0.107995  0  1.032541  0
H  H25  1  0.03262417  0.60272006  0.82005175  1  0  0.101847  0  0.965253  0  0  0.110397  0  1.030614  0  0  0.113582  0  1.028441  0  0  0.104998  0.107999  0  1.032524  0
H  H26  1  0.74999893  0.38773522  0.61226496  1  0  0.104868  0  0.942335  0  0  0.11739  0  1.002501  0  0  0.120782  0  0.999237  0  0  0.110489  0.115054  0  1.004556  0
H  H27  1  0.24999880  0.61226422  0.38773595  1  0  0.104884  0  0.94233  0  0  0.117395  0  1.002507  0  0  0.120788  0  0.999243  0  0  0.110498  0.11506  0  1.004562  0
H  H28  1  0.56549215  0.79527663  0.41530740  1  0  0.092698  0  0.943233  0  0  0.102975  0  1.004777  0  0  0.105742  0  1.002051  0  0  0.120431  0.101053  0  1.00663  0
H  H29  1  0.93451047  0.58469186  0.20472235  1  0  0.092716  0  0.94319  0  0  0.102993  0  1.004732  0  0  0.105759  0  1.002005  0  0  0.120444  0.101069  0  1.006586  0
H  H30  1  0.43450961  0.20472184  0.58469224  1  0  0.092692  0  0.943185  0  0  0.102971  0  1.004725  0  0  0.105736  0  1.002  0  0  0.120441  0.101049  0  1.006579  0
H  H31  1  0.06549106  0.41530761  0.79527609  1  0  0.092715  0  0.943224  0  0  0.102992  0  1.004766  0  0  0.105757  0  1.002041  0  0  0.120438  0.101069  0  1.00662  0
C  C32  1  0.35222887  0.87992317  0.81612664  1  0  0.645323  0  3.903049  0  0  0.594171  0  4.191458  0  0  0.628352  0  4.185572  0  0  0.201285  0.571232  0  4.194335  0
C  C33  1  0.14776958  0.18387320  0.12007714  1  0  0.645356  0  3.903023  0  0  0.594231  0  4.191392  0  0  0.628414  0  4.185505  0  0  0.201311  0.571292  0  4.19427  0
C  C34  1  0.64777140  0.12007629  0.18387293  1  0  0.64524  0  3.903038  0  0  0.59413  0  4.191398  0  0  0.628309  0  4.185514  0  0  0.201267  0.571191  0  4.194275  0
C  C35  1  0.85222943  0.81612624  0.87992355  1  0  0.645297  0  3.903117  0  0  0.594167  0  4.191494  0  0  0.628348  0  4.185608  0  0  0.201289  0.571227  0  4.19437  0
C  C36  1  0.39523113  0.74685474  0.79689695  1  0  -0.071768  0  3.780683  0  0  -0.047851  0  4.017827  0  0  -0.057432  0  4.042811  0  0  -0.023018  -0.041547  0  4.001552  0
C  C37  1  0.10476768  0.20310243  0.25314547  1  0  -0.07184  0  3.780658  0  0  -0.04792  0  4.017789  0  0  -0.057502  0  4.042775  0  0  -0.023022  -0.041614  0  4.001515  0
C  C38  1  0.60476746  0.25314667  0.20310316  1  0  -0.071778  0  3.780632  0  0  -0.047864  0  4.017767  0  0  -0.057445  0  4.042754  0  0  -0.022972  -0.04156  0  4.001492  0
C  C39  1  0.89523004  0.79689702  0.74685452  1  0  -0.071745  0  3.780637  0  0  -0.047837  0  4.017776  0  0  -0.057417  0  4.042762  0  0  -0.023011  -0.041531  0  4.001501  0
C  C40  1  0.34176852  0.63635126  0.89717633  1  0  -0.053529  0  3.717546  0  0  -0.081969  0  3.971652  0  0  -0.080826  0  3.991708  0  0  -0.078926  -0.083266  0  3.958283  0
C  C41  1  0.15822995  0.10282299  0.36364901  1  0  -0.053405  0  3.717579  0  0  -0.081845  0  3.971677  0  0  -0.080699  0  3.991733  0  0  -0.078872  -0.083143  0  3.958311  0
C  C42  1  0.65823007  0.36365016  0.10282378  1  0  -0.053442  0  3.717547  0  0  -0.081891  0  3.971651  0  0  -0.080748  0  3.991708  0  0  -0.078897  -0.083188  0  3.958282  0
C  C43  1  0.84176904  0.89717646  0.63635077  1  0  -0.053508  0  3.717544  0  0  -0.081938  0  3.971648  0  0  -0.080799  0  3.991709  0  0  -0.07891  -0.083236  0  3.958282  0
C  C44  1  0.38401364  0.51286349  0.87743622  1  0  -0.070325  0  3.761467  0  0  -0.080012  0  4.014843  0  0  -0.084298  0  4.037026  0  0  -0.088644  -0.07648  0  3.998307  0
C  C45  1  0.11598632  0.12256126  0.48713708  1  0  -0.070413  0  3.761481  0  0  -0.080109  0  4.01489  0  0  -0.084394  0  4.037071  0  0  -0.088726  -0.076578  0  3.998359  0
C  C46  1  0.61598642  0.48713695  0.12256306  1  0  -0.070403  0  3.761521  0  0  -0.080099  0  4.014909  0  0  -0.084384  0  4.03709  0  0  -0.088704  -0.076568  0  3.998372  0
C  C47  1  0.88401288  0.87743720  0.51286299  1  0  -0.070355  0  3.761459  0  0  -0.080052  0  4.014851  0  0  -0.084338  0  4.037033  0  0  -0.088694  -0.07652  0  3.998318  0
C  C48  1  0.48326942  0.49836998  0.75992738  1  0  -0.091612  0  3.703851  0  0  -0.114242  0  3.949832  0  0  -0.115224  0  3.971222  0  0  -0.083457  -0.11283  0  3.934161  0
C  C49  1  0.01673073  0.24007056  0.50163002  1  0  -0.091558  0  3.703861  0  0  -0.114187  0  3.949847  0  0  -0.115169  0  3.971238  0  0  -0.08343  -0.112775  0  3.934177  0
C  C50  1  0.51673193  0.50163046  0.24007260  1  0  -0.091634  0  3.703855  0  0  -0.114242  0  3.949835  0  0  -0.115221  0  3.971227  0  0  -0.083461  -0.112829  0  3.934161  0
C  C51  1  0.98326848  0.75992791  0.49837005  1  0  -0.091594  0  3.703894  0  0  -0.114229  0  3.949869  0  0  -0.115208  0  3.971257  0  0  -0.083433  -0.112815  0  3.934197  0
C  C52  1  0.53862659  0.60802313  0.65834137  1  0  0.039593  0  3.795176  0  0  0.057508  0  4.025844  0  0  0.055384  0  4.051978  0  0  -0.0103  0.058743  0  4.00837  0
C  C53  1  0.96137353  0.34165809  0.39197833  1  0  0.039562  0  3.795217  0  0  0.057475  0  4.025883  0  0  0.05535  0  4.05202  0  0  -0.010332  0.058711  0  4.008409  0
C  C54  1  0.46137349  0.39197730  0.34165882  1  0  0.0396  0  3.795147  0  0  0.057519  0  4.025813  0  0  0.055386  0  4.051961  0  0  -0.010283  0.058753  0  4.008339  0
C  C55  1  0.03862656  0.65834234  0.60802278  1  0  0.039604  0  3.79517  0  0  0.057525  0  4.025824  0  0  0.055399  0  4.051961  0  0  -0.010307  0.058761  0  4.00835  0
C  C56  1  0.49130275  0.73244914  0.67783203  1  0  -0.09946  0  3.689838  0  0  -0.130326  0  3.93255  0  0  -0.130509  0  3.953897  0  0  -0.077632  -0.130876  0  3.919052  0
C  C57  1  0.00869493  0.32216775  0.26755130  1  0  -0.099448  0  3.689765  0  0  -0.130322  0  3.932487  0  0  -0.130506  0  3.953835  0  0  -0.077615  -0.130873  0  3.918988  0
C  C58  1  0.50869605  0.26755129  0.32216837  1  0  -0.099401  0  3.689874  0  0  -0.130282  0  3.932602  0  0  -0.130461  0  3.953948  0  0  -0.077622  -0.130833  0  3.919104  0
C  C59  1  0.99130408  0.67783170  0.73244939  1  0  -0.099496  0  3.689787  0  0  -0.130362  0  3.932502  0  0  -0.13055  0  3.953852  0  0  -0.077646  -0.130914  0  3.919004  0
C  C60  1  0.64562575  0.59342699  0.53404035  1  0  0.019033  0  3.783333  0  0  0.0349  0  4.021886  0  0  0.031835  0  4.046687  0  0  0.000205  0.036901  0  4.004833  0
C  C61  1  0.85437484  0.46595980  0.40657212  1  0  0.01897  0  3.783394  0  0  0.034839  0  4.021945  0  0  0.031774  0  4.046745  0  0  0.000156  0.036841  0  4.004892  0
C  C62  1  0.35437477  0.40657146  0.46596226  1  0  0.019004  0  3.783367  0  0  0.034865  0  4.021926  0  0  0.031801  0  4.046726  0  0  0.000179  0.036868  0  4.004875  0
C  C63  1  0.14562522  0.53404064  0.59342715  1  0  0.019019  0  3.783357  0  0  0.034885  0  4.021908  0  0  0.031821  0  4.046707  0  0  0.000204  0.036888  0  4.004855  0
C  C64  1  0.75000232  0.47462992  0.52536972  1  0  -0.097353  0  3.64058  0  0  -0.130613  0  3.890431  0  0  -0.129848  0  3.90864  0  0  -0.0637  -0.130024  0  3.877413  0
C  C65  1  0.25000032  0.52537051  0.47463096  1  0  -0.097382  0  3.640574  0  0  -0.130633  0  3.890427  0  0  -0.129867  0  3.908633  0  0  -0.063721  -0.130043  0  3.877408  0
C  C66  1  0.64703023  0.70071179  0.41838439  1  0  0.079443  0  3.676418  0  0  0.039348  0  3.931343  0  0  0.04601  0  3.948221  0  0  0.048215  0.034991  0  3.919283  0
C  C67  1  0.85297409  0.58161691  0.29928890  1  0  0.079445  0  3.67639  0  0  0.039358  0  3.931313  0  0  0.046022  0  3.948188  0  0  0.04821  0.035002  0  3.91925  0
C  C68  1  0.35297242  0.29928864  0.58161721  1  0  0.079475  0  3.676423  0  0  0.039387  0  3.931354  0  0  0.046053  0  3.948225  0  0  0.048204  0.035029  0  3.919295  0
C  C69  1  0.14702941  0.41838551  0.70071098  1  0  0.079466  0  3.676416  0  0  0.039374  0  3.931335  0  0  0.046038  0  3.94821  0  0  0.048228  0.035019  0  3.919272  0
N  N70  1  0.75000042  0.69443169  0.30556838  1  0  -0.327492  0  3.346469  0  0  -0.245364  0  3.614853  0  0  -0.266599  0  3.636584  0  0  -0.336561  -0.230929  0  3.599368  0
N  N71  1  0.24999986  0.30556776  0.69443210  1  0  -0.327545  0  3.346479  0  0  -0.245422  0  3.614875  0  0  -0.266659  0  3.636602  0  0  -0.336587  -0.230987  0  3.599392  0
O  O72  1  0.29385366  0.88615398  0.93521141  1  0  -0.720022  0  2.085347  0  0  -0.635511  0  2.313162  0  0  -0.666284  0  2.301462  0  0  -0.334961  -0.614142  0  2.320418  0
O  O73  1  0.20614683  0.06478877  0.11384513  1  0  -0.720061  0  2.085355  0  0  -0.635556  0  2.313169  0  0  -0.66633  0  2.301468  0  0  -0.334975  -0.614189  0  2.320427  0
O  O74  1  0.70614747  0.11384746  0.06478736  1  0  -0.720032  0  2.085369  0  0  -0.635542  0  2.313172  0  0  -0.666313  0  2.301472  0  0  -0.334989  -0.614174  0  2.320428  0
O  O75  1  0.79385323  0.93521167  0.88615414  1  0  -0.720056  0  2.085355  0  0  -0.635531  0  2.313152  0  0  -0.666306  0  2.301453  0  0  -0.334968  -0.614164  0  2.320409  0
O  O76  1  0.37248940  0.98264950  0.72038103  1  0  -0.612555  0  1.918576  0  0  -0.556757  0  2.145197  0  0  -0.582916  0  2.136769  0  0  -0.315013  -0.53865  0  2.15028  0
O  O77  1  0.12751021  0.27961811  0.01735065  1  0  -0.612561  0  1.918602  0  0  -0.556776  0  2.145226  0  0  -0.582935  0  2.136798  0  0  -0.315014  -0.538668  0  2.150308  0
O  O78  1  0.62751193  0.01735095  0.27961712  1  0  -0.612518  0  1.918674  0  0  -0.556742  0  2.145303  0  0  -0.582902  0  2.136876  0  0  -0.315007  -0.538636  0  2.150385  0
O  O79  1  0.87248878  0.72038134  0.98264913  1  0  -0.612522  0  1.918641  0  0  -0.556739  0  2.145269  0  0  -0.582898  0  2.136839  0  0  -0.315002  -0.538632  0  2.150349  0
O  O80  1  0.54032866  0.14579459  0.86029117  1  0  -0.828089  0  1.852427  0  0  -0.770209  0  2.043397  0  0  -0.792015  0  2.009235  0  0  -0.588566  -0.754886  0  2.066883  0
O  O81  1  0.95966874  0.13971011  0.85420449  1  0  -0.828186  0  1.852378  0  0  -0.770269  0  2.043385  0  0  -0.792074  0  2.009221  0  0  -0.58857  -0.754947  0  2.06687  0
O  O82  1  0.45967056  0.85420386  0.13971074  1  0  -0.828145  0  1.85243  0  0  -0.770279  0  2.043345  0  0  -0.792084  0  2.009183  0  0  -0.58859  -0.754957  0  2.066832  0
O  O83  1  0.04032983  0.86029132  0.14579470  1  0  -0.828199  0  1.852338  0  0  -0.770278  0  2.043359  0  0  -0.792083  0  2.009194  0  0  -0.588578  -0.754955  0  2.066845  0
