# generated using pymatgen
data_ZnH10C12(NO)2
_symmetry_space_group_name_H-M   'P 1'
_cell_length_a   13.86142802
_cell_length_b   18.13243748
_cell_length_c   18.13233944
_cell_angle_alpha   81.50941187
_cell_angle_beta   67.52489258
_cell_angle_gamma   67.52533951
_symmetry_Int_Tables_number   1
_chemical_formula_structural   ZnH10C12(NO)2
_chemical_formula_sum   'Zn8 H80 C96 N16 O16'
_cell_volume   3891.39781929
_cell_formula_units_Z   8
loop_
 _symmetry_equiv_pos_site_id
 _symmetry_equiv_pos_as_xyz
  1  'x, y, z'
loop_
 _atom_site_type_symbol
 _atom_site_label
 _atom_site_symmetry_multiplicity
 _atom_site_fract_x
 _atom_site_fract_y
 _atom_site_fract_z
 _atom_site_occupancy
 _atom_site_pbe_bader_charge
 _atom_site_pbe_bader_spin_density
 _atom_site_pbe_cm5_charge
 _atom_site_pbe_ddec_charge
 _atom_site_pbe_ddec_spin_density
 _atom_site_pbe_ddec_sum_bond_order
 _atom_site_pbe_magmom
Zn  Zn0  1  0.13030339  0.71721164  0.26536330  1  1.257319  0  0.717481  0.772154  0  2.457583  0
Zn  Zn1  1  0.88690316  0.76542851  0.21707631  1  1.256613  0  0.716974  0.770337  0  2.458908  0
Zn  Zn2  1  0.36969832  0.73463039  0.28278144  1  1.257082  0  0.717399  0.772092  0  2.457286  0
Zn  Zn3  1  0.61309790  0.78293406  0.23456578  1  1.256466  0  0.716998  0.770452  0  2.458911  0
Zn  Zn4  1  0.86970075  0.28278353  0.73463312  1  1.257206  0  0.717373  0.771976  0  2.457534  0
Zn  Zn5  1  0.11309107  0.23456547  0.78292901  1  1.256479  0  0.716981  0.770408  0  2.458929  0
Zn  Zn6  1  0.63030402  0.26536837  0.71721811  1  1.257275  0  0.717465  0.772231  0  2.457583  0
Zn  Zn7  1  0.38690752  0.21707066  0.76543395  1  1.25655  0  0.717021  0.770452  0  2.458822  0
H  H8  1  0.30166702  0.52313546  0.12700495  1  0.066188  0  0.105064  0.110782  0  1.009225  0
H  H9  1  0.40826384  0.41855910  0.02142227  1  0.075742  0  0.102624  0.106803  0  0.996615  0
H  H10  1  0.60438784  0.41274148  0.79180941  1  0.073552  0  0.094837  0.136635  0  1.021405  0
H  H11  1  0.60444691  0.36510392  0.88427484  1  0.063298  0  0.095409  0.143627  0  1.001218  0
H  H12  1  0.50976950  0.46417387  0.88268766  1  0.059821  0  0.094422  0.13559  0  1.002972  0
H  H13  1  0.19611635  0.83074241  0.04774881  1  0.090559  0  0.106031  0.110071  0  1.003732  0
H  H14  1  0.19578014  0.93574698  0.94232270  1  0.03664  0  0.103045  0.105993  0  0.999492  0
H  H15  1  0.99485102  0.15228885  0.91087666  1  0.079413  0  0.096328  0.141716  0  1.02224  0
H  H16  1  0.02720573  0.07454844  0.97971807  1  0.038837  0  0.09564  0.137141  0  0.999544  0
H  H17  1  0.06470241  0.05159104  0.87856277  1  0.050794  0  0.095968  0.135873  0  0.984328  0
H  H18  1  0.04833046  0.62711494  0.02277097  1  0.123541  0  0.105033  0.109582  0  1.00919  0
H  H19  1  0.15182679  0.52116651  0.91858441  1  0.053156  0  0.102879  0.107056  0  0.996398  0
H  H20  1  0.19032845  0.29171015  0.91285879  1  0.072534  0  0.094528  0.136382  0  1.021909  0
H  H21  1  0.14603316  0.38412322  0.86506142  1  0.058594  0  0.094379  0.141823  0  1.00023  0
H  H22  1  0.14286591  0.38257344  0.96418875  1  0.061918  0  0.094694  0.135762  0  1.002989  0
H  H23  1  0.92537044  0.54745456  0.33086936  1  0.097127  0  0.10583  0.111135  0  1.002989  0
H  H24  1  0.92611950  0.44205127  0.43589190  1  0.068076  0  0.102632  0.105447  0  1.000069  0
H  H25  1  0.94160884  0.41084153  0.65282648  1  0.080785  0  0.095815  0.14097  0  1.022632  0
H  H26  1  0.91812567  0.47977620  0.57516411  1  0.029722  0  0.095855  0.137596  0  0.998047  0
H  H27  1  0.00499487  0.37869648  0.55206166  1  0.032151  0  0.095659  0.135573  0  0.985366  0
H  H28  1  0.19836174  0.87298391  0.47686590  1  0.065646  0  0.105081  0.110713  0  1.009328  0
H  H29  1  0.09175282  0.97856214  0.58144037  1  0.075903  0  0.102602  0.106759  0  0.996649  0
H  H30  1  0.89561923  0.20817734  0.58724648  1  0.07383  0  0.094843  0.136634  0  1.021449  0
H  H31  1  0.89555042  0.11571102  0.63488675  1  0.063107  0  0.095404  0.143709  0  1.001262  0
H  H32  1  0.99023536  0.11730064  0.53582755  1  0.059534  0  0.094409  0.13555  0  1.003189  0
H  H33  1  0.30384045  0.95226264  0.16926174  1  0.090642  0  0.106001  0.110064  0  1.00387  0
H  H34  1  0.30421507  0.05767492  0.06424582  1  0.036575  0  0.103087  0.1061  0  0.999244  0
H  H35  1  0.50515730  0.08914438  0.84772347  1  0.079402  0  0.096316  0.141681  0  1.02218  0
H  H36  1  0.47280259  0.02029791  0.92547108  1  0.039175  0  0.095625  0.136815  0  0.999537  0
H  H37  1  0.43524763  0.12146643  0.94842439  1  0.050507  0  0.095936  0.13588  0  0.984237  0
H  H38  1  0.45167899  0.97722253  0.37290102  1  0.123323  0  0.105009  0.109598  0  1.009457  0
H  H39  1  0.34817957  0.08141000  0.47884465  1  0.053237  0  0.102839  0.106964  0  0.99639  0
H  H40  1  0.30963479  0.08715010  0.70831042  1  0.072213  0  0.094562  0.136298  0  1.022094  0
H  H41  1  0.35394894  0.13494606  0.61589403  1  0.058974  0  0.094357  0.141802  0  1.00033  0
H  H42  1  0.35713398  0.03580520  0.61744379  1  0.061781  0  0.094579  0.135701  0  1.002867  0
H  H43  1  0.57460772  0.66911830  0.45252565  1  0.097163  0  0.105853  0.111066  0  1.003212  0
H  H44  1  0.57386372  0.56411749  0.55795693  1  0.067763  0  0.102597  0.105432  0  0.999969  0
H  H45  1  0.55841034  0.34717738  0.58912827  1  0.080525  0  0.095794  0.141012  0  1.022489  0
H  H46  1  0.58190807  0.42484227  0.52020410  1  0.029484  0  0.095891  0.137795  0  0.997749  0
H  H47  1  0.49500752  0.44794519  0.62127576  1  0.032026  0  0.095619  0.135563  0  0.985389  0
H  H48  1  0.69832298  0.47686927  0.87299146  1  0.06606  0  0.10503  0.110756  0  1.009047  0
H  H49  1  0.59173740  0.58145518  0.97856675  1  0.076022  0  0.102628  0.106914  0  0.996614  0
H  H50  1  0.39563701  0.58724654  0.20817855  1  0.073891  0  0.094901  0.136728  0  1.02132  0
H  H51  1  0.39556418  0.63488291  0.11571728  1  0.063364  0  0.095359  0.143631  0  1.00131  0
H  H52  1  0.49025800  0.53582430  0.11730116  1  0.059587  0  0.094482  0.135591  0  1.003016  0
H  H53  1  0.80386598  0.16925871  0.95226867  1  0.091059  0  0.106009  0.110061  0  1.003715  0
H  H54  1  0.80422466  0.06423805  0.05767580  1  0.036297  0  0.103037  0.106017  0  0.999402  0
H  H55  1  0.00514592  0.84774031  0.08915278  1  0.079689  0  0.096293  0.141692  0  1.022285  0
H  H56  1  0.97280385  0.92547536  0.02030224  1  0.039145  0  0.095644  0.136816  0  0.999609  0
H  H57  1  0.93524328  0.94843813  0.12146008  1  0.050525  0  0.095973  0.135835  0  0.984247  0
H  H58  1  0.95165857  0.37289397  0.97722276  1  0.123497  0  0.105085  0.109582  0  1.009342  0
H  H59  1  0.84817973  0.47884718  0.08140200  1  0.053058  0  0.102902  0.107156  0  0.996224  0
H  H60  1  0.80966123  0.70830949  0.08714685  1  0.072149  0  0.09443  0.136223  0  1.022101  0
H  H61  1  0.85396103  0.61589404  0.13494091  1  0.058949  0  0.094366  0.141815  0  1.000262  0
H  H62  1  0.85714892  0.61744561  0.03580538  1  0.0618  0  0.094606  0.135695  0  1.002944  0
H  H63  1  0.07461547  0.45253405  0.66912980  1  0.097214  0  0.105876  0.111078  0  1.003033  0
H  H64  1  0.07386172  0.55795106  0.56411832  1  0.067898  0  0.102637  0.105463  0  0.999965  0
H  H65  1  0.05841579  0.58913038  0.34716193  1  0.080886  0  0.095815  0.141053  0  1.022522  0
H  H66  1  0.08190230  0.52020108  0.42483152  1  0.029602  0  0.095896  0.13779  0  0.997759  0
H  H67  1  0.99499576  0.62128154  0.44793181  1  0.031994  0  0.095624  0.135562  0  0.985383  0
H  H68  1  0.80166332  0.12700470  0.52313322  1  0.066298  0  0.105055  0.110726  0  1.009256  0
H  H69  1  0.90826975  0.02142707  0.41855548  1  0.075623  0  0.102627  0.106831  0  0.996527  0
H  H70  1  0.10438707  0.79182559  0.41275872  1  0.073533  0  0.094797  0.13663  0  1.021371  0
H  H71  1  0.10443830  0.88429728  0.36511848  1  0.063065  0  0.095401  0.143697  0  1.001344  0
H  H72  1  0.00975150  0.88270587  0.46417808  1  0.059619  0  0.09442  0.135497  0  1.003078  0
H  H73  1  0.69613263  0.04775819  0.83074659  1  0.090941  0  0.106023  0.110136  0  1.003858  0
H  H74  1  0.69578411  0.94232802  0.93574623  1  0.036543  0  0.103089  0.106054  0  0.999423  0
H  H75  1  0.49485389  0.91087406  0.15229092  1  0.079383  0  0.096367  0.141745  0  1.022368  0
H  H76  1  0.52720267  0.97971575  0.07455469  1  0.038913  0  0.095624  0.137125  0  0.999458  0
H  H77  1  0.56469946  0.87856215  0.05159970  1  0.050771  0  0.095943  0.135866  0  0.984418  0
H  H78  1  0.54834666  0.02275712  0.62710352  1  0.123554  0  0.105081  0.109639  0  1.009475  0
H  H79  1  0.65184840  0.91857383  0.52116016  1  0.052937  0  0.102947  0.107076  0  0.99626  0
H  H80  1  0.69034594  0.91284207  0.29170922  1  0.07262  0  0.094589  0.136349  0  1.021863  0
H  H81  1  0.64605028  0.86504551  0.38412619  1  0.058572  0  0.094384  0.141858  0  1.000227  0
H  H82  1  0.64286879  0.96418041  0.38257431  1  0.062081  0  0.094694  0.135792  0  1.002941  0
H  H83  1  0.42538512  0.33087748  0.54746461  1  0.09741  0  0.105846  0.111095  0  1.002944  0
H  H84  1  0.42612200  0.43589021  0.44204535  1  0.06801  0  0.102641  0.105451  0  0.999889  0
H  H85  1  0.44160494  0.65281662  0.41085067  1  0.080661  0  0.095838  0.140939  0  1.022532  0
H  H86  1  0.41810831  0.57515829  0.47978370  1  0.029763  0  0.09586  0.137587  0  0.997963  0
H  H87  1  0.50499044  0.55204701  0.37870963  1  0.032439  0  0.095618  0.135484  0  0.985477  0
C  C88  1  0.27037411  0.52248399  0.08048179  1  0.01802  0  -0.084081  -0.088298  0  3.996661  0
C  C89  1  0.32946515  0.46432440  0.02143150  1  -0.097077  0  -0.093262  -0.146883  0  3.986569  0
C  C90  1  0.46381370  0.37551350  0.85367852  1  0.41307  0  0.090601  0.221626  0  4.006268  0
C  C91  1  0.55014207  0.40589237  0.85305158  1  -0.091317  0  -0.241043  -0.439313  0  3.978623  0
C  C92  1  0.21890355  0.88110403  0.05087914  1  0.026942  0  -0.082834  -0.080858  0  3.991856  0
C  C93  1  0.21855400  0.93998379  0.99239337  1  -0.056504  0  -0.09311  -0.148087  0  3.979455  0
C  C94  1  0.16691412  0.10486207  0.90000247  1  0.428381  0  0.09345  0.223193  0  4.000021  0
C  C95  1  0.05788903  0.09536579  0.91813999  1  -0.058296  0  -0.235276  -0.433284  0  3.98013  0
C  C96  1  0.12670595  0.58057961  0.02230294  1  -0.044743  0  -0.084256  -0.085826  0  3.99497  0
C  C97  1  0.18474185  0.52130780  0.96437601  1  -0.080465  0  -0.093542  -0.14819  0  3.984136  0
C  C98  1  0.30667843  0.35330488  0.87584236  1  0.465063  0  0.091054  0.221815  0  4.006744  0
C  C99  1  0.19053524  0.35284226  0.90598323  1  -0.097879  0  -0.239545  -0.437455  0  3.979208  0
C  C100  1  0.84910297  0.55066117  0.38127287  1  -0.110488  0  -0.082813  -0.083142  0  3.992701  0
C  C101  1  0.84906027  0.49217805  0.44016879  1  -0.020668  0  -0.092963  -0.147381  0  3.981917  0
C  C102  1  0.82811981  0.39988876  0.60514318  1  0.443  0  0.093688  0.223193  0  4.003954  0
C  C103  1  0.92835811  0.41815452  0.59583187  1  -0.039227  0  -0.235263  -0.433177  0  3.980196  0
C  C104  1  0.22965053  0.91950668  0.47751205  1  0.005459  0  -0.084118  -0.088179  0  3.996471  0
C  C105  1  0.17055226  0.97855582  0.53567437  1  -0.084357  0  -0.093203  -0.146886  0  3.986389  0
C  C106  1  0.03618379  0.14631588  0.62447624  1  0.414179  0  0.090575  0.221495  0  4.006609  0
C  C107  1  0.94985556  0.14693730  0.59410612  1  -0.092776  0  -0.240998  -0.439334  0  3.979212  0
C  C108  1  0.28107142  0.94913442  0.11889124  1  0.028155  0  -0.082803  -0.080874  0  3.991954  0
C  C109  1  0.28142881  0.00760804  0.06000375  1  -0.056415  0  -0.093112  -0.148199  0  3.979392  0
C  C110  1  0.33308791  0.09999643  0.89513484  1  0.427882  0  0.093506  0.223258  0  3.999745  0
C  C111  1  0.44210375  0.08187361  0.90464313  1  -0.058341  0  -0.235195  -0.432909  0  3.979781  0
C  C112  1  0.37330546  0.97769959  0.41941822  1  -0.044522  0  -0.084294  -0.085931  0  3.995178  0
C  C113  1  0.31526527  0.03562027  0.47869422  1  -0.080548  0  -0.093466  -0.148028  0  3.984014  0
C  C114  1  0.19330258  0.12415628  0.64670545  1  0.465968  0  0.091037  0.221729  0  4.007016  0
C  C115  1  0.30945031  0.09401992  0.64717073  1  -0.097701  0  -0.239472  -0.437302  0  3.979222  0
C  C116  1  0.65087267  0.61872011  0.44932983  1  -0.111209  0  -0.082925  -0.083033  0  3.992758  0
C  C117  1  0.65092299  0.55983692  0.50782459  1  -0.018176  0  -0.092933  -0.147509  0  3.981866  0
C  C118  1  0.67187614  0.39486574  0.60011247  1  0.443632  0  0.093708  0.223461  0  4.003652  0
C  C119  1  0.57165750  0.40417128  0.58182871  1  -0.038795  0  -0.235285  -0.433568  0  3.979844  0
C  C120  1  0.72963161  0.47752134  0.91950880  1  0.017339  0  -0.084092  -0.088214  0  3.996517  0
C  C121  1  0.67054288  0.53568631  0.97855100  1  -0.097537  0  -0.093217  -0.147095  0  3.986679  0
C  C122  1  0.53618800  0.62448885  0.14631055  1  0.41468  0  0.090598  0.221615  0  4.006628  0
C  C123  1  0.44986973  0.59410520  0.14693838  1  -0.093259  0  -0.241134  -0.43942  0  3.978876  0
C  C124  1  0.78109280  0.11889113  0.94913748  1  0.027375  0  -0.082907  -0.080848  0  3.991595  0
C  C125  1  0.78143464  0.06000481  0.00761240  1  -0.05648  0  -0.092904  -0.147947  0  3.979153  0
C  C126  1  0.83309338  0.89513847  0.09999961  1  0.428245  0  0.09349  0.223137  0  3.999755  0
C  C127  1  0.94209904  0.90465145  0.08187699  1  -0.058677  0  -0.235255  -0.432903  0  3.98021  0
C  C128  1  0.87329187  0.41942274  0.97769077  1  -0.044513  0  -0.084188  -0.085599  0  3.995093  0
C  C129  1  0.81526408  0.47869932  0.03561270  1  -0.079665  0  -0.093536  -0.148377  0  3.983983  0
C  C130  1  0.69331886  0.64671179  0.12414864  1  0.464706  0  0.090958  0.221565  0  4.006966  0
C  C131  1  0.80946026  0.64717679  0.09401768  1  -0.097548  0  -0.239412  -0.437251  0  3.979327  0
C  C132  1  0.15088606  0.44933222  0.61872703  1  -0.111232  0  -0.08299  -0.083084  0  3.992693  0
C  C133  1  0.15092330  0.50782070  0.55983698  1  -0.018586  0  -0.092938  -0.147516  0  3.981899  0
C  C134  1  0.17187988  0.60010761  0.39485319  1  0.443103  0  0.093642  0.223145  0  4.003929  0
C  C135  1  0.07165336  0.58182932  0.40416135  1  -0.039215  0  -0.235292  -0.433487  0  3.979898  0
C  C136  1  0.77036902  0.08048193  0.52248554  1  0.017962  0  -0.084049  -0.088099  0  3.99669  0
C  C137  1  0.82946309  0.02143459  0.46432184  1  -0.096871  0  -0.093294  -0.147088  0  3.986671  0
C  C138  1  0.96382088  0.85368050  0.37551361  1  0.412833  0  0.090663  0.221547  0  4.006594  0
C  C139  1  0.05013692  0.85306682  0.40589589  1  -0.090827  0  -0.240966  -0.439297  0  3.978947  0
C  C140  1  0.71893530  0.05087329  0.88110105  1  0.027306  0  -0.082711  -0.080788  0  3.992287  0
C  C141  1  0.71856268  0.99239491  0.93998039  1  -0.056309  0  -0.093254  -0.148254  0  3.979905  0
C  C142  1  0.66691212  0.89999816  0.10486208  1  0.428547  0  0.093437  0.223003  0  4.000209  0
C  C143  1  0.55788337  0.91814006  0.09536958  1  -0.058275  0  -0.235215  -0.433138  0  3.980327  0
C  C144  1  0.62671287  0.02229140  0.58058640  1  -0.044729  0  -0.084308  -0.085967  0  3.995036  0
C  C145  1  0.68475119  0.96436893  0.52131003  1  -0.080499  0  -0.093547  -0.148055  0  3.983838  0
C  C146  1  0.80669036  0.87583470  0.35330653  1  0.46558  0  0.091061  0.221775  0  4.006828  0
C  C147  1  0.69053960  0.90597047  0.35284768  1  -0.098153  0  -0.239608  -0.437471  0  3.979011  0
C  C148  1  0.34911557  0.38128044  0.55066340  1  -0.111774  0  -0.082873  -0.083036  0  3.99234  0
C  C149  1  0.34905752  0.44017019  0.49217617  1  -0.017828  0  -0.092985  -0.147452  0  3.981856  0
C  C150  1  0.32812210  0.60513243  0.39988523  1  0.443683  0  0.093618  0.223271  0  4.003836  0
C  C151  1  0.42834888  0.59582391  0.41815926  1  -0.039551  0  -0.235295  -0.433166  0  3.980129  0
C  C152  1  0.10592770  0.64415158  0.14390995  1  1.53165  0  0.223874  0.60198  0  4.152003  0
C  C153  1  0.16866745  0.58147517  0.08124844  1  -0.029916  0  -0.026099  -0.056123  0  4.004038  0
C  C154  1  0.28756132  0.46224790  0.96246478  1  0.012878  0  0.000766  0.125121  0  4.027849  0
C  C155  1  0.34914386  0.40047880  0.90089508  1  0.027799  0  -0.043044  -0.186922  0  4.032301  0
C  C156  1  0.39409404  0.85608880  0.35584708  1  1.531162  0  0.223888  0.602041  0  4.151626  0
C  C157  1  0.33136177  0.91874011  0.41853074  1  -0.029393  0  -0.026129  -0.056198  0  4.003745  0
C  C158  1  0.21245006  0.03752193  0.53775664  1  0.013034  0  0.000777  0.125201  0  4.027703  0
C  C159  1  0.15085862  0.09909747  0.59952326  1  0.027551  0  -0.042959  -0.186736  0  4.032055  0
C  C160  1  0.89406757  0.35584480  0.85608771  1  1.531348  0  0.223856  0.601924  0  4.151729  0
C  C161  1  0.83133424  0.41852718  0.91874142  1  -0.029503  0  -0.026194  -0.056211  0  4.003946  0
C  C162  1  0.71244508  0.53776161  0.03752227  1  0.012685  0  0.000661  0.125101  0  4.027698  0
C  C163  1  0.65085872  0.59953728  0.09908783  1  0.028076  0  -0.04287  -0.186641  0  4.032025  0
C  C164  1  0.60593382  0.14389862  0.64415296  1  1.531219  0  0.223821  0.60192  0  4.151806  0
C  C165  1  0.66866696  0.08124551  0.58147476  1  -0.029806  0  -0.026075  -0.0561  0  4.004021  0
C  C166  1  0.78756370  0.96246608  0.46224622  1  0.012907  0  0.000774  0.125136  0  4.027944  0
C  C167  1  0.84914389  0.90089651  0.40047927  1  0.027714  0  -0.043069  -0.186869  0  4.03218  0
C  C168  1  0.24997930  0.82245753  0.17755062  1  1.524723  0  0.217971  0.586652  0  4.178324  0
C  C169  1  0.24997962  0.88515141  0.11486228  1  -0.064096  0  -0.027588  -0.059734  0  4.009135  0
C  C170  1  0.24999946  0.00439979  0.99558713  1  -0.011565  0  0.000169  0.124959  0  4.031578  0
C  C171  1  0.25000453  0.06613125  0.93385113  1  -0.018141  0  -0.045189  -0.193956  0  4.040211  0
C  C172  1  0.74998337  0.67739445  0.32260264  1  1.550703  0  0.218206  0.587718  0  4.175812  0
C  C173  1  0.74999132  0.61466831  0.38532214  1  0.002703  0  -0.027785  -0.059095  0  4.004315  0
C  C174  1  0.74999186  0.49540939  0.50460631  1  0.049442  0  0.001089  0.125934  0  4.031756  0
C  C175  1  0.74999506  0.43367794  0.56633952  1  -0.011737  0  -0.044242  -0.191774  0  4.041797  0
C  C176  1  0.74998263  0.17755792  0.82246835  1  1.523343  0  0.217996  0.586567  0  4.178467  0
C  C177  1  0.74999793  0.11485926  0.88515831  1  -0.064494  0  -0.027561  -0.059748  0  4.009125  0
C  C178  1  0.74999354  0.99559241  0.00439853  1  -0.01143  0  3.5e-05  0.124703  0  4.031531  0
C  C179  1  0.75000747  0.93384723  0.06613024  1  -0.018747  0  -0.045093  -0.19359  0  4.039608  0
C  C180  1  0.25000093  0.32260074  0.67739096  1  1.550556  0  0.218211  0.587684  0  4.175978  0
C  C181  1  0.25000209  0.38532627  0.61467436  1  0.003869  0  -0.027728  -0.059074  0  4.004219  0
C  C182  1  0.24999018  0.50460010  0.49540497  1  0.046747  0  0.001121  0.125932  0  4.03187  0
C  C183  1  0.24999425  0.56632917  0.43366883  1  -0.011362  0  -0.044201  -0.191646  0  4.041698  0
N  N184  1  0.48711862  0.31766560  0.80363170  1  -0.815174  0  -0.283435  -0.26464  0  3.591152  0
N  N185  1  0.19892121  0.15824097  0.84546054  1  -0.791778  0  -0.283371  -0.262834  0  3.59965  0
N  N186  1  0.39129144  0.30336727  0.81790483  1  -0.801632  0  -0.283642  -0.262202  0  3.590833  0
N  N187  1  0.79731573  0.34531200  0.65849249  1  -0.825926  0  -0.284225  -0.264499  0  3.601941  0
N  N188  1  0.01286679  0.19635676  0.68233073  1  -0.815222  0  -0.28338  -0.264353  0  3.591441  0
N  N189  1  0.30107950  0.15453868  0.84175597  1  -0.817771  0  -0.283476  -0.263011  0  3.599853  0
N  N190  1  0.10868918  0.18209089  0.69663576  1  -0.80164  0  -0.283692  -0.262438  0  3.591101  0
N  N191  1  0.70267651  0.34150820  0.65468383  1  -0.81199  0  -0.28424  -0.264632  0  3.60211  0
N  N192  1  0.51288028  0.68233794  0.19635567  1  -0.815002  0  -0.283385  -0.264727  0  3.591516  0
N  N193  1  0.80108629  0.84175957  0.15454232  1  -0.792099  0  -0.283253  -0.262588  0  3.599542  0
N  N194  1  0.60870284  0.69664104  0.18208785  1  -0.801599  0  -0.28361  -0.262042  0  3.590644  0
N  N195  1  0.20267865  0.65468616  0.34150517  1  -0.811869  0  -0.284249  -0.264562  0  3.602157  0
N  N196  1  0.98713373  0.80363125  0.31767364  1  -0.815676  0  -0.283436  -0.26437  0  3.591447  0
N  N197  1  0.69893531  0.84545172  0.15823766  1  -0.817437  0  -0.283675  -0.26332  0  3.600036  0
N  N198  1  0.89130728  0.81790189  0.30337338  1  -0.801359  0  -0.283719  -0.26242  0  3.591087  0
N  N199  1  0.29732106  0.65848578  0.34531117  1  -0.826348  0  -0.284124  -0.264437  0  3.601915  0
O  O200  1  0.13398424  0.63271881  0.20532829  1  -1.176215  0  -0.32273  -0.542438  0  2.358938  0
O  O201  1  0.21971268  0.76582327  0.17160977  1  -1.181949  0  -0.322792  -0.546974  0  2.361559  0
O  O202  1  0.02774977  0.70551353  0.13256576  1  -1.190482  0  -0.320869  -0.539526  0  2.362108  0
O  O203  1  0.84290241  0.67165284  0.26614118  1  -1.190017  0  -0.322652  -0.547298  0  2.361663  0
O  O204  1  0.36603706  0.79467224  0.36726402  1  -1.176667  0  -0.322744  -0.542459  0  2.35898  0
O  O205  1  0.28027579  0.82838983  0.23416780  1  -1.181249  0  -0.322699  -0.546851  0  2.361442  0
O  O206  1  0.47225782  0.86743878  0.29447616  1  -1.190051  0  -0.320904  -0.539613  0  2.361982  0
O  O207  1  0.65706301  0.73384520  0.32835505  1  -1.189986  0  -0.322602  -0.547146  0  2.362151  0
O  O208  1  0.86601907  0.36727697  0.79466166  1  -1.176475  0  -0.322757  -0.542429  0  2.358753  0
O  O209  1  0.78028579  0.23417428  0.82840355  1  -1.180903  0  -0.322751  -0.546882  0  2.361781  0
O  O210  1  0.97224952  0.29448582  0.86743185  1  -1.190041  0  -0.320802  -0.539468  0  2.362234  0
O  O211  1  0.15708825  0.32834174  0.73385417  1  -1.190122  0  -0.322615  -0.547217  0  2.361945  0
O  O212  1  0.63398818  0.20531936  0.63272954  1  -1.176204  0  -0.322796  -0.542508  0  2.358666  0
O  O213  1  0.71972550  0.17162326  0.76582333  1  -1.180818  0  -0.322761  -0.546962  0  2.361433  0
O  O214  1  0.52775343  0.13256536  0.70551963  1  -1.190189  0  -0.320878  -0.539531  0  2.362016  0
O  O215  1  0.34292951  0.26615117  0.67164223  1  -1.189775  0  -0.322648  -0.547235  0  2.361965  0
