# generated using pymatgen
data_MnH8(C5N7)2
_symmetry_space_group_name_H-M   'P 1'
_cell_length_a   8.17395777
_cell_length_b   8.26673326
_cell_length_c   11.88501571
_cell_angle_alpha   82.97136117
_cell_angle_beta   69.90350786
_cell_angle_gamma   81.47828659
_symmetry_Int_Tables_number   1
_chemical_formula_structural   MnH8(C5N7)2
_chemical_formula_sum   'Mn2 H16 C20 N28'
_cell_volume   743.66039338
_cell_formula_units_Z   2
loop_
 _symmetry_equiv_pos_site_id
 _symmetry_equiv_pos_as_xyz
  1  'x, y, z'
loop_
 _atom_site_type_symbol
 _atom_site_label
 _atom_site_symmetry_multiplicity
 _atom_site_fract_x
 _atom_site_fract_y
 _atom_site_fract_z
 _atom_site_occupancy
 _atom_site_hle17_ddec_charge
 _atom_site_hle17_ddec_spin_density
 _atom_site_hle17_ddec_sum_bond_order
 _atom_site_hle17_magmom
 _atom_site_hse06_10hf_bader_charge
 _atom_site_hse06_10hf_bader_spin_density
 _atom_site_hse06_10hf_ddec_charge
 _atom_site_hse06_10hf_ddec_spin_density
 _atom_site_hse06_10hf_ddec_sum_bond_order
 _atom_site_hse06_10hf_magmom
 _atom_site_hse06_ddec_charge
 _atom_site_hse06_ddec_spin_density
 _atom_site_hse06_ddec_sum_bond_order
 _atom_site_hse06_magmom
 _atom_site_pbe_cm5_charge
 _atom_site_pbe_ddec_charge
 _atom_site_pbe_ddec_spin_density
 _atom_site_pbe_ddec_sum_bond_order
 _atom_site_pbe_magmom
Mn  Mn0  1  0.02960375  0.28896524  0.47953330  1  0.651951  1.369268  2.886558  1.259  1.368838  1.108013  0.577  1.18649  3.433824  1.099  0.619253  1.139415  3.37659  1.039  0.686838  0.539783  1.147103  3.474671  1.072
Mn  Mn1  1  0.97164875  0.68994766  0.51787215  1  0.943755  -4.84604  2.163382  -4.567  1.487031  -4.447901  0.798205  -4.67309  2.690224  -4.388  0.847543  -4.758062  2.633365  -4.496  0.66844  0.759545  -4.54976  2.735233  -4.254
H  H2  1  0.40612910  0.28598491  0.45418134  1  0.076696  0.000432  0.959493  0.001  0.070171  -0.000502  0.084164  -0.000266  1.027404  0.0  0.08727  -6.6e-05  1.022653  0.0  0.11576  0.081898  -0.000432  1.030872  0.0
H  H3  1  0.57382634  0.72058374  0.55426217  1  0.074961  -0.00012  0.952226  0.0  0.095275  -0.001231  0.08385  -0.000616  1.017957  0.0  0.086387  -0.000437  1.015198  0.0  0.116977  0.082102  -0.000758  1.019999  0.0
H  H4  1  0.69316737  0.30176254  0.29079451  1  0.116432  -0.00047  0.969672  -0.001  0.109899  -0.000288  0.120608  -0.00027  1.040267  0.0  0.124271  -0.00028  1.039409  0.0  0.104225  0.117913  -0.000288  1.041214  0.0
H  H5  1  0.28529388  0.70554725  0.71809976  1  0.119449  -0.000146  0.975894  0.0  0.128555  -0.000732  0.122646  -0.000128  1.048279  0.0  0.125915  -1.7e-05  1.048462  0.0  0.106172  0.120257  -0.000263  1.048459  0.0
H  H6  1  0.41087897  0.35191917  0.03733479  1  0.125901  -0.000275  0.942427  -0.001  0.101385  -3.9e-05  0.134144  7.4e-05  1.003428  0.0  0.137783  4.6e-05  1.001971  0.0  0.111165  0.131586  6e-05  1.004689  0.0
H  H7  1  0.56972560  0.64186605  0.97111488  1  0.124576  -0.000162  0.94753  0.0  0.130082  -0.000387  0.133504  -0.000178  1.008125  0.0  0.136284  -0.000147  1.008046  0.0  0.112731  0.131713  -0.00021  1.008108  0.0
H  H8  1  0.13879744  0.32976078  0.21012626  1  0.07783  0.000378  0.981885  0.001  0.153985  -0.000314  0.079731  -0.000441  1.058033  0.0  0.082677  -0.000163  1.052923  0.0  0.114135  0.077503  -0.000625  1.061751  0.0
H  H9  1  0.84340516  0.66334175  0.79680972  1  0.076672  -1.4e-05  0.976937  0.0  0.129435  -0.000865  0.079717  -0.000481  1.052064  0.0  0.08193  -0.000333  1.049232  0.0  0.115155  0.078048  -0.000607  1.054349  0.0
H  H10  1  0.65706762  0.29214308  0.50256259  1  0.073637  0.000523  0.957779  0.001  0.08213  -0.000678  0.082699  -0.000347  1.022684  0.0  0.086029  -0.000172  1.017902  0.0  0.116753  0.080362  -0.000444  1.026128  0.0
H  H11  1  0.35525810  0.71353952  0.48846204  1  0.06969  -0.000314  0.956835  0.0  0.070261  -0.001358  0.078049  -0.00076  1.022858  0.0  0.080109  -0.000525  1.020986  0.0  0.116369  0.076647  -0.000896  1.02428  0.0
H  H12  1  0.39159372  0.18433337  0.65054561  1  0.117378  -0.000686  0.971738  -0.001  0.132721  -0.000448  0.122121  -0.000419  1.041612  0.0  0.126439  -0.000359  1.039482  0.0  0.106786  0.118887  -0.000504  1.043485  0.0
H  H13  1  0.62053858  0.83119571  0.34422586  1  0.117208  0.000242  0.979015  0.0  0.124068  -0.000561  0.120818  0.000121  1.051499  0.0  0.124354  0.000249  1.050715  0.0  0.106252  0.118349  1.8e-05  1.052276  0.0
H  H14  1  0.66532333  0.11219382  0.90976493  1  0.118665  -0.000322  0.96948  -0.001  0.136298  -8.4e-05  0.11899  6.5e-05  1.045772  0.0  0.123556  2e-05  1.043523  0.0  0.10557  0.115784  4.6e-05  1.047531  0.0
H  H15  1  0.35496939  0.90023634  0.08019418  1  0.120248  -0.000182  0.966843  0.0  0.13556  -0.000408  0.120334  -0.0002  1.042713  0.0  0.123671  -0.000159  1.041945  0.0  0.107989  0.118276  -0.000229  1.043046  0.0
H  H16  1  0.92148225  0.21576653  0.75003716  1  0.076318  0.000569  0.98044  0.001  0.112735  -0.00046  0.077639  -0.000381  1.056367  0.0  0.08057  -0.000189  1.05192  0.0  0.114548  0.075405  -0.00049  1.059667  0.0
H  H17  1  0.10078805  0.78281155  0.23687195  1  0.070558  -0.000215  0.978319  0.0  0.138725  -0.000851  0.073047  -0.000578  1.054901  0.0  0.074972  -0.000445  1.052555  0.0  0.113629  0.071747  -0.000691  1.056658  0.0
C  C18  1  0.41344669  0.30091440  0.36048736  1  0.137042  -0.021073  3.687541  -0.017  0.50611  -0.012612  0.106662  -0.009967  3.94431  -0.008  0.121047  -0.005115  3.952512  -0.004  0.039669  0.097335  -0.009768  3.938938  -0.007
C  C19  1  0.56647488  0.70190589  0.64810684  1  0.146419  -0.003579  3.715442  -0.003  0.533149  -0.006935  0.117882  -0.005488  3.966904  -0.005  0.126532  -0.004905  3.984148  -0.004  0.048907  0.112133  -0.006197  3.954708  -0.005
C  C20  1  0.57283139  0.31005773  0.26912658  1  -0.222051  0.013916  3.731692  0.012  0.004911  0.003969  -0.242872  0.003014  3.988265  0.003  -0.252129  0.002181  4.002003  0.002  -0.10426  -0.23788  0.00128  3.980071  0.002
C  C21  1  0.40643868  0.69354908  0.73925939  1  -0.220253  0.001246  3.713582  0.001  -0.008172  0.000549  -0.24044  0.000588  3.967002  0.001  -0.251911  0.001351  3.989441  0.001  -0.099246  -0.23302  -0.000152  3.952077  0.0
C  C22  1  0.57569031  0.33081597  0.14926479  1  0.231616  -0.028062  3.851813  -0.025  0.296523  -0.017556  0.225382  -0.014735  4.118281  -0.012  0.243653  -0.006552  4.13034  -0.006  0.099712  0.21376  -0.016564  4.109914  -0.014
C  C23  1  0.40526756  0.66965038  0.85870144  1  0.245417  -0.003152  3.838024  -0.003  0.332803  -0.00542  0.241161  -0.004316  4.099678  -0.004  0.252499  -0.003788  4.120169  -0.003  0.114837  0.2337  -0.005242  4.085434  -0.004
C  C24  1  0.41585572  0.33869538  0.12834967  1  -0.194299  0.014238  3.708749  0.013  0.040369  0.0039  -0.217065  0.002982  3.968241  0.003  -0.224822  0.002323  3.979961  0.002  -0.091311  -0.21285  0.001288  3.961127  0.002
C  C25  1  0.56507397  0.65836247  0.88005194  1  -0.192884  0.00158  3.691791  0.001  0.02755  0.000982  -0.214816  0.001041  3.947316  0.001  -0.224699  0.001725  3.968489  0.001  -0.084998  -0.208163  0.000493  3.932731  0.0
C  C26  1  0.26296647  0.32719753  0.22518967  1  0.133924  -0.023545  3.672906  -0.019  0.453085  -0.014266  0.10315  -0.011446  3.929537  -0.009  0.117523  -0.005335  3.938519  -0.004  0.04037  0.093604  -0.012091  3.92366  -0.009
C  C27  1  0.71796836  0.66910224  0.78268162  1  0.149084  -0.003672  3.696292  -0.003  0.462564  -0.006977  0.11748  -0.005648  3.950061  -0.005  0.125276  -0.005033  3.96878  -0.004  0.05172  0.112205  -0.006447  3.937004  -0.005
C  C28  1  0.65377844  0.24949868  0.59347879  1  0.12865  -0.026979  3.699137  -0.022  0.466888  -0.012616  0.100098  -0.009748  3.95142  -0.007  0.114593  -0.002837  3.958717  -0.002  0.033596  0.089582  -0.010425  3.949078  -0.008
C  C29  1  0.36142584  0.75673276  0.39689886  1  0.145438  -0.003478  3.725094  -0.003  0.573708  -0.00618  0.116351  -0.004997  3.97662  -0.004  0.124628  -0.004488  3.994351  -0.004  0.046666  0.110612  -0.005404  3.964398  -0.004
C  C30  1  0.50586361  0.19076240  0.67652011  1  -0.211441  0.01783  3.736917  0.016  -0.009164  0.004118  -0.232253  0.003041  3.990763  0.004  -0.240618  0.001038  4.00297  0.001  -0.099441  -0.227837  0.001534  3.983696  0.003
C  C31  1  0.50875893  0.82057988  0.31644898  1  -0.21158  0.001592  3.71743  0.001  -0.082325  0.000837  -0.231132  0.00079  3.968089  0.001  -0.241172  0.00149  3.988758  0.001  -0.09429  -0.224651  0.000205  3.95436  0.001
C  C32  1  0.50767002  0.13854499  0.79314860  1  0.239268  -0.035185  3.830958  -0.031  0.32905  -0.017462  0.23722  -0.014732  4.088253  -0.012  0.256001  -0.004257  4.099171  -0.004  0.106407  0.225234  -0.017846  4.080656  -0.015
C  C33  1  0.50837120  0.87177979  0.19946969  1  0.251592  -0.002844  3.821125  -0.002  0.348446  -0.004647  0.251475  -0.003743  4.072629  -0.003  0.262282  -0.003369  4.093033  -0.003  0.119678  0.244411  -0.004283  4.058499  -0.003
C  C34  1  0.65875789  0.15084465  0.82038209  1  -0.188789  0.01796  3.702247  0.016  -0.00728  0.003943  -0.207968  0.002998  3.954723  0.003  -0.216094  0.001176  3.965834  0.001  -0.089991  -0.203394  0.001501  3.947971  0.003
C  C35  1  0.35976971  0.85867094  0.16961915  1  -0.189625  0.001554  3.682851  0.001  0.021563  0.000792  -0.207282  0.00082  3.933299  0.001  -0.217382  0.001453  3.954234  0.001  -0.083946  -0.200571  0.000377  3.918868  0.0
C  C36  1  0.80178957  0.20912734  0.73107413  1  0.130096  -0.029686  3.678478  -0.024  0.485775  -0.013767  0.10061  -0.010888  3.932798  -0.008  0.115154  -0.002488  3.941262  -0.002  0.035787  0.090099  -0.012644  3.929024  -0.009
C  C37  1  0.21853965  0.79390272  0.25709203  1  0.150188  -0.003638  3.702264  -0.003  0.493533  -0.006407  0.11785  -0.005183  3.95619  -0.004  0.126216  -0.004656  3.974857  -0.004  0.048566  0.112108  -0.005781  3.943251  -0.005
N  N38  1  0.10461958  0.47274410  0.58161572  1  -0.539396  -0.013491  2.777067  -0.003  -0.411174  -0.020985  -0.513122  -0.018803  3.09833  -0.003  -0.5436  -0.008744  3.106101  0.007  -0.284901  -0.487669  -0.026791  3.090766  -0.011
N  N39  1  0.91040799  0.51258246  0.41970816  1  -0.528895  -0.009382  2.854557  -0.002  -0.408267  -0.015143  -0.509767  -0.014398  3.192733  -0.002  -0.54296  -0.007768  3.201536  0.004  -0.303291  -0.483898  -0.019996  3.185849  -0.007
N  N40  1  0.12170471  0.44166118  0.67918164  1  0.385844  0.002569  4.193135  0.004  -0.354884  -0.015655  0.428721  -0.009612  4.472463  -0.008  0.44577  -0.005805  4.509025  -0.005  0.095071  0.416492  -0.012331  4.445266  -0.01
N  N41  1  0.88504705  0.54616642  0.32456434  1  0.38551  0.003054  4.160763  0.006  -0.303451  -0.014062  0.431623  -0.009109  4.43915  -0.007  0.449285  -0.00498  4.474457  -0.003  0.097967  0.419121  -0.01218  4.414128  -0.009
N  N42  1  0.14170416  0.41322386  0.77255551  1  -0.389073  -0.063712  2.41831  -0.061  0.010157  -0.074026  -0.401174  -0.059013  2.661537  -0.053  -0.422645  -0.057361  2.681164  -0.052  -0.1921  -0.383503  -0.062423  2.646484  -0.055
N  N43  1  0.85615347  0.58178059  0.23466018  1  -0.372351  -0.068949  2.413402  -0.066  -0.030176  -0.067457  -0.384563  -0.053475  2.653962  -0.048  -0.401699  -0.049859  2.670917  -0.046  -0.182616  -0.371768  -0.056932  2.641988  -0.05
N  N44  1  0.95803256  0.15098942  0.38242357  1  -0.420698  -0.03571  2.787363  -0.045  -0.225585  -0.041025  -0.428803  -0.03293  3.113488  -0.038  -0.456281  -0.026148  3.128565  -0.032  -0.263122  -0.406196  -0.035697  3.10136  -0.039
N  N45  1  0.05488665  0.83779416  0.62777013  1  -0.458801  -0.02593  2.616002  -0.01  -0.190953  -0.027039  -0.459117  -0.022143  2.914854  -0.001  -0.484277  -0.019272  2.927507  0.001  -0.232101  -0.44095  -0.023405  2.90649  -0.001
N  N46  1  0.89725132  0.02386552  0.40894765  1  0.383903  -0.006976  4.163831  -0.005  -0.320835  -0.030558  0.425308  -0.02267  4.451588  -0.022  0.44225  -0.01716  4.491541  -0.017  0.09454  0.412774  -0.027456  4.422539  -0.028
N  N47  1  0.10123257  0.96934518  0.59244091  1  0.387035  -0.004845  4.169858  -0.003  -0.370505  -0.026189  0.428161  -0.019081  4.457481  -0.019  0.444898  -0.01479  4.49611  -0.015  0.09599  0.416381  -0.022731  4.429578  -0.022
N  N48  1  0.84105048  0.89502575  0.43091393  1  -0.465834  -0.026615  2.611612  -0.01  -0.208772  -0.027767  -0.466077  -0.022476  2.911016  0.001  -0.492555  -0.023638  2.924373  -0.002  -0.235853  -0.447157  -0.02075  2.902473  0.003
N  N49  1  0.15268108  0.09937246  0.55525121  1  -0.432398  -0.039584  2.746889  -0.048  -0.195838  -0.040976  -0.441728  -0.033308  3.067571  -0.039  -0.467746  -0.028097  3.081348  -0.035  -0.264606  -0.421018  -0.036497  3.057199  -0.041
N  N50  1  0.25766269  0.30928872  0.34149256  1  -0.268095  -0.014637  3.323119  -0.011  -1.243592  -0.014907  -0.21033  -0.012595  3.605176  -0.01  -0.227851  -0.007235  3.613511  -0.006  -0.342547  -0.19825  -0.016446  3.597608  -0.014
N  N51  1  0.72084644  0.68925441  0.66778501  1  -0.327357  -0.026586  3.260844  -0.012  -1.295329  -0.04068  -0.256793  -0.027389  3.53036  -0.009  -0.277041  -0.025242  3.547095  -0.007  -0.324432  -0.240929  -0.02831  3.517845  -0.01
N  N52  1  0.72707916  0.34268133  0.04830445  1  -0.25551  0.007452  3.01635  0.009  -0.401391  0.001727  -0.241702  0.001844  3.29777  0.003  -0.260699  0.001149  3.310089  0.001  -0.152978  -0.229245  0.001425  3.289459  0.003
N  N53  1  0.25406611  0.65802288  0.95962110  1  -0.255602  0.000241  2.99991  0.0  -0.438474  -0.000594  -0.241867  -0.000408  3.281239  0.0  -0.263327  -0.000107  3.299416  0.0  -0.149458  -0.226993  -0.000722  3.268482  0.0
N  N54  1  0.87344893  0.32737160  0.05957323  1  0.334965  -0.00538  4.000005  -0.005  -0.287068  -0.004588  0.361908  -0.003709  4.309365  -0.003  0.375723  -0.001369  4.32747  -0.001  0.139569  0.352272  -0.005316  4.297725  -0.005
N  N55  1  0.10828409  0.67094144  0.94722646  1  0.340622  -0.000419  3.997345  0.0  -0.315821  -0.00105  0.365181  -0.000866  4.308581  0.0  0.377571  -0.000546  4.330777  0.0  0.147344  0.356546  -0.001294  4.293649  -0.001
N  N56  1  0.01772696  0.31290234  0.05377647  1  -0.167462  -0.016348  2.415643  -0.015  0.220648  -0.009944  -0.179605  -0.007999  2.659225  -0.007  -0.170804  -0.003458  2.662044  -0.003  -0.061654  -0.186251  -0.009613  2.658267  -0.008
N  N57  1  0.96487495  0.68160047  0.95228618  1  -0.154785  -0.001984  2.418064  -0.002  0.288126  -0.003061  -0.165428  -0.002387  2.661328  -0.002  -0.162364  -0.001905  2.667882  -0.002  -0.047521  -0.167427  -0.003224  2.65724  -0.003
N  N58  1  0.80494700  0.25480560  0.61646774  1  -0.285769  -0.013199  3.335301  -0.012  -1.236951  -0.012955  -0.226723  -0.010796  3.612262  -0.013  -0.243171  -0.005191  3.618421  -0.01  -0.349197  -0.215409  -0.015381  3.606857  -0.017
N  N59  1  0.21687274  0.74433384  0.36976077  1  -0.333086  -0.025673  3.251555  -0.013  -1.295741  -0.039552  -0.264301  -0.027481  3.519987  -0.012  -0.284432  -0.025637  3.537017  -0.011  -0.324868  -0.248575  -0.027572  3.507921  -0.013
N  N60  1  0.36702168  0.07528577  0.88523943  1  -0.247706  0.009867  3.022631  0.012  -0.412029  0.002221  -0.23053  0.002295  3.296655  0.003  -0.248326  0.001126  3.306782  0.001  -0.146241  -0.219308  0.001958  3.290313  0.003
N  N61  1  0.64958419  0.93621755  0.10862017  1  -0.247874  0.000379  3.00511  0.001  -0.409092  -0.000273  -0.232701  -0.000183  3.279851  0.0  -0.25326  8.7e-05  3.296776  0.0  -0.143659  -0.218624  -0.000522  3.267986  0.0
N  N62  1  0.23109217  0.06056761  0.86631135  1  0.340764  -0.007654  3.997377  -0.007  -0.267493  -0.00519  0.369733  -0.004179  4.304025  -0.004  0.384353  -0.001301  4.320861  -0.001  0.140534  0.359472  -0.006204  4.293695  -0.006
N  N63  1  0.78668308  0.94308311  0.12884922  1  0.343593  -0.000768  3.985706  -0.001  -0.27176  -0.001335  0.371402  -0.001076  4.292593  -0.001  0.384476  -0.000545  4.31469  0.0  0.146888  0.362331  -0.001875  4.277749  -0.001
N  N64  1  0.09721717  0.03794646  0.86361040  1  -0.188169  -0.020984  2.396828  -0.02  0.193492  -0.010726  -0.194925  -0.00849  2.630604  -0.007  -0.186509  -0.002581  2.634844  -0.002  -0.074075  -0.201755  -0.01102  2.628925  -0.009
N  N65  1  0.92159142  0.95854480  0.13289729  1  -0.173114  -0.002221  2.404963  -0.002  0.206523  -0.00336  -0.181541  -0.002538  2.64057  -0.002  -0.180367  -0.001905  2.649077  -0.002  -0.060608  -0.182685  -0.003552  2.635466  -0.003
