# generated using pymatgen
data_CuH12C8SN2O5
_symmetry_space_group_name_H-M   'P 1'
_cell_length_a   5.16986262
_cell_length_b   9.95074465
_cell_length_c   11.07401830
_cell_angle_alpha   103.90322077
_cell_angle_beta   89.99983598
_cell_angle_gamma   89.99917834
_symmetry_Int_Tables_number   1
_chemical_formula_structural   CuH12C8SN2O5
_chemical_formula_sum   'Cu2 H24 C16 S2 N4 O10'
_cell_volume   553.00133858
_cell_formula_units_Z   2
loop_
 _symmetry_equiv_pos_site_id
 _symmetry_equiv_pos_as_xyz
  1  'x, y, z'
loop_
 _atom_site_type_symbol
 _atom_site_label
 _atom_site_symmetry_multiplicity
 _atom_site_fract_x
 _atom_site_fract_y
 _atom_site_fract_z
 _atom_site_occupancy
 _atom_site_hle17_ddec_charge
 _atom_site_hle17_ddec_spin_density
 _atom_site_hle17_ddec_sum_bond_order
 _atom_site_hle17_magmom
 _atom_site_hse06_10hf_ddec_charge
 _atom_site_hse06_10hf_ddec_spin_density
 _atom_site_hse06_10hf_ddec_sum_bond_order
 _atom_site_hse06_10hf_magmom
 _atom_site_hse06_ddec_charge
 _atom_site_hse06_ddec_spin_density
 _atom_site_hse06_ddec_sum_bond_order
 _atom_site_hse06_magmom
 _atom_site_pbe_cm5_charge
 _atom_site_pbe_ddec_charge
 _atom_site_pbe_ddec_spin_density
 _atom_site_pbe_ddec_sum_bond_order
 _atom_site_pbe_magmom
Cu  Cu0  1  0.27976505  0.67017163  0.67049723  1  0.88344  0.677599  1.763887  0.506  0.873733  0.775546  2.151288  0.628  0.966239  0.839191  2.082451  0.714  0.71912  0.814775  0.730725  2.200753  0.572
Cu  Cu1  1  0.77974392  0.32982130  0.32949420  1  0.883388  0.677554  1.76372  0.505  0.873678  0.775563  2.151221  0.628  0.966108  0.839195  2.082318  0.714  0.719049  0.814667  0.730695  2.200649  0.572
H  H2  1  0.90509754  0.50431769  0.62000111  1  0.288491  -0.001344  0.919664  -0.002  0.273513  6.3e-05  0.983721  0.0  0.280867  -0.000304  0.979956  -0.001  0.300178  0.268208  0.000358  0.986743  0.0
H  H3  1  0.40510086  0.49569906  0.37999822  1  0.288534  -0.001341  0.919596  -0.002  0.273581  6.2e-05  0.98362  0.0  0.280932  -0.000304  0.979854  -0.001  0.300223  0.268271  0.000357  0.986655  0.0
H  H4  1  0.79222374  0.47387354  0.81475510  1  0.064254  0.002572  0.944303  0.003  0.066623  0.002012  1.019961  0.002  0.068007  0.001428  1.019199  0.002  0.102607  0.065372  0.002431  1.020729  0.002
H  H5  1  0.29222205  0.52614416  0.18523912  1  0.064243  0.002569  0.94433  0.003  0.06664  0.002011  1.019979  0.002  0.068028  0.001428  1.019219  0.002  0.102576  0.065386  0.002431  1.020749  0.002
H  H6  1  0.44856214  0.92325347  0.84762001  1  0.058941  0.00149  0.929096  0.003  0.068405  0.000924  0.998047  0.002  0.069504  0.000488  0.993519  0.001  0.131893  0.067311  0.001327  1.001522  0.002
H  H7  1  0.94856314  0.07674517  0.15239424  1  0.05889  0.001487  0.92914  0.003  0.06838  0.000924  0.998053  0.002  0.069473  0.000488  0.993535  0.001  0.131958  0.067288  0.001327  1.001528  0.002
H  H8  1  0.10250486  0.29464451  0.57881122  1  0.113758  0.001761  0.91226  0.002  0.118362  0.001417  0.974156  0.002  0.121172  0.001031  0.972377  0.001  0.123217  0.116088  0.001709  0.975786  0.002
H  H9  1  0.60255174  0.70535502  0.42118272  1  0.113815  0.001755  0.912206  0.002  0.118365  0.001415  0.974131  0.002  0.121213  0.001029  0.972311  0.001  0.123239  0.116088  0.001706  0.97576  0.002
H  H10  1  0.12787088  0.46925603  0.96969569  1  0.117277  0.00011  0.954285  0.0  0.13531  0.000153  1.011337  0.0  0.136854  6.7e-05  1.01167  0.0  0.105459  0.134122  0.000262  1.01113  0.0
H  H11  1  0.62787566  0.53074960  0.03028785  1  0.11734  0.000101  0.954057  0.0  0.135306  0.000153  1.011228  0.0  0.136851  6.7e-05  1.011561  0.0  0.105482  0.134118  0.000262  1.011021  0.0
H  H12  1  0.34686985  0.56572426  0.89666162  1  0.096347  -0.000379  0.957485  0.0  0.104149  -0.0004  1.033487  0.0  0.106344  -0.000476  1.031291  0.0  0.096114  0.102284  -0.00026  1.035443  0.0
H  H13  1  0.84689219  0.43428271  0.10332295  1  0.096348  -0.000371  0.957447  0.0  0.104167  -0.000399  1.033423  0.0  0.106367  -0.000476  1.031229  0.0  0.09606  0.102302  -0.000259  1.035375  0.0
H  H14  1  0.63553938  0.11078089  0.94906425  1  0.109587  2.3e-05  0.951157  0.0  0.129499  0.000113  1.014682  0.0  0.131301  8.1e-05  1.013405  0.0  0.105811  0.128007  0.00013  1.015878  0.0
H  H15  1  0.13553252  0.88923470  0.05096213  1  0.109753  3.7e-05  0.950951  0.0  0.129542  0.000113  1.014565  0.0  0.131339  8.1e-05  1.013285  0.0  0.105892  0.128051  0.00013  1.015758  0.0
H  H16  1  0.77823829  0.22252495  0.86340764  1  0.082166  -1.7e-05  0.978371  0.0  0.09461  4e-06  1.058588  0.0  0.095024  -1.4e-05  1.059275  0.0  0.088736  0.09416  2.5e-05  1.058165  0.0
H  H17  1  0.27825705  0.77747094  0.13660341  1  0.082071  -9e-06  0.978404  0.0  0.094491  4e-06  1.058629  0.0  0.094902  -1.4e-05  1.059311  0.0  0.088693  0.094046  2.5e-05  1.058203  0.0
H  H18  1  0.97532821  0.09957044  0.91317765  1  0.110476  -8e-05  0.939989  0.0  0.128312  -3e-05  1.006702  0.0  0.129916  -4.2e-05  1.005128  0.0  0.100946  0.126849  4.5e-05  1.008287  0.0
H  H19  1  0.47533815  0.90042089  0.08681779  1  0.11044  -8e-05  0.93997  0.0  0.128276  -3e-05  1.006671  0.0  0.129879  -4.2e-05  1.005098  0.0  0.100931  0.126812  4.5e-05  1.008263  0.0
H  H20  1  0.87942971  0.91659431  0.58978915  1  0.124542  0.000387  0.952318  0.0  0.140652  0.000398  1.017172  0.0  0.142852  0.000243  1.015534  0.0  0.108316  0.138845  0.000571  1.018542  0.0
H  H21  1  0.37944819  0.08341842  0.41022015  1  0.124578  0.000395  0.952226  0.0  0.140652  0.000398  1.017105  0.0  0.142849  0.000243  1.015472  0.0  0.108335  0.138847  0.000572  1.018473  0.0
H  H22  1  0.08753272  0.03997412  0.68696005  1  0.095186  -0.000168  0.950831  0.0  0.11525  -0.000101  1.01597  0.0  0.115242  -9.1e-05  1.016812  0.0  0.101376  0.115082  -8.8e-05  1.015564  0.0
H  H23  1  0.58755791  0.96002446  0.31303731  1  0.095289  -0.000161  0.950954  0.0  0.115337  -0.000101  1.016103  0.0  0.115331  -9.1e-05  1.016943  0.0  0.101435  0.115168  -8.8e-05  1.015695  0.0
H  H24  1  0.82168325  0.09911574  0.61006400  1  0.107235  -9.1e-05  0.932256  0.0  0.128704  -5.7e-05  0.992772  0.0  0.129311  -6.2e-05  0.992496  0.0  0.10292  0.127921  -2.7e-05  0.993338  0.0
H  H25  1  0.32171382  0.90088499  0.38994720  1  0.107231  -9.1e-05  0.93239  0.0  0.128752  -5.7e-05  0.992825  0.0  0.129365  -6.2e-05  0.992544  0.0  0.102968  0.127963  -2.7e-05  0.993395  0.0
C  C26  1  0.96875760  0.53378315  0.80845156  1  0.014334  -0.004375  3.635583  -0.005  -0.003626  -0.001171  3.882953  -0.002  -0.00291  -0.002113  3.8967  -0.003  -0.009241  -0.003835  -0.000344  3.873702  -0.002
C  C27  1  0.46875367  0.46622271  0.19154802  1  0.014382  -0.004313  3.635674  -0.005  -0.003707  -0.001167  3.883255  -0.002  -0.003004  -0.002111  3.89701  -0.003  -0.009216  -0.003917  -0.000342  3.874001  -0.002
C  C28  1  0.55248410  0.91887788  0.76019164  1  0.38749  -0.00608  3.770562  -0.006  0.313211  -0.001572  4.062382  -0.002  0.345202  -0.001814  4.062487  -0.002  0.17805  0.291642  -0.001213  4.061925  -0.002
C  C29  1  0.05249828  0.08110950  0.23981409  1  0.387587  -0.006062  3.770284  -0.006  0.313275  -0.001573  4.062184  -0.002  0.345258  -0.001813  4.062293  -0.002  0.177876  0.291701  -0.001214  4.06173  -0.002
C  C30  1  0.21371336  0.37744434  0.64042692  1  -0.026876  -0.003337  3.571009  -0.005  -0.041632  -0.000289  3.82533  -0.002  -0.04079  -0.001318  3.835674  -0.003  0.011193  -0.042187  0.000648  3.818839  -0.002
C  C31  1  0.71377856  0.62255530  0.35956967  1  -0.026893  -0.003306  3.570999  -0.005  -0.041563  -0.000294  3.825293  -0.002  -0.040752  -0.001322  3.835606  -0.003  0.011085  -0.04212  0.000647  3.818807  -0.002
C  C32  1  0.18976817  0.48881940  0.88102381  1  -0.188785  0.000438  3.634896  0.001  -0.232449  0.000376  3.89651  0.001  -0.233062  1.8e-05  3.905928  0.001  -0.149053  -0.231874  0.000794  3.890182  0.001
C  C33  1  0.68978049  0.51118259  0.11896428  1  -0.188944  0.000418  3.634811  0.001  -0.232501  0.000377  3.896308  0.001  -0.23313  1.8e-05  3.905741  0.001  -0.149073  -0.23192  0.000794  3.889974  0.001
C  C34  1  0.78201155  0.11785693  0.87930114  1  -0.183769  0.000819  3.664625  0.001  -0.28998  0.000687  3.919488  0.001  -0.287226  0.000501  3.929938  0.001  -0.13906  -0.291482  0.000823  3.91267  0.001
C  C35  1  0.28202364  0.88213582  0.12071012  1  -0.183691  0.000795  3.664406  0.001  -0.289755  0.000687  3.919264  0.001  -0.286981  0.000502  3.929696  0.001  -0.139037  -0.291255  0.000823  3.912447  0.001
C  C36  1  0.46458070  0.40131468  0.57604207  1  0.627674  -0.003124  3.888936  -0.002  0.577905  0.000618  4.204204  0.001  0.614323  0.000153  4.19591  0.001  0.197472  0.552932  0.001011  4.20866  0.001
C  C37  1  0.96459573  0.59865502  0.42394496  1  0.627653  -0.003156  3.888482  -0.002  0.577994  0.00061  4.203655  0.001  0.61442  0.000147  4.195353  0.001  0.197409  0.553025  0.000999  4.208117  0.001
C  C38  1  0.91514837  0.68999869  0.85580412  1  0.624033  -0.007012  3.869776  -0.006  0.584688  -0.001052  4.176074  -0.001  0.618558  -0.001006  4.173356  -0.001  0.201649  0.561491  -0.00102  4.177081  -0.001
C  C39  1  0.41515308  0.30999414  0.14419440  1  0.6239  -0.007052  3.869691  -0.006  0.584589  -0.00105  4.17601  -0.001  0.618471  -0.001005  4.173282  -0.001  0.201583  0.561381  -0.001019  4.177014  -0.001
C  C40  1  0.88747898  0.01817310  0.65535082  1  -0.168341  0.000567  3.611736  0.001  -0.265907  0.00053  3.84885  0.0  -0.262276  0.000292  3.858179  0.0  -0.13387  -0.26783  0.000839  3.84278  0.001
C  C41  1  0.38750573  0.98182919  0.34465796  1  -0.168429  0.000554  3.612025  0.001  -0.265953  0.00053  3.84902  0.0  -0.262327  0.000294  3.85835  0.0  -0.133925  -0.26787  0.000839  3.842949  0.001
S  S42  1  0.29701551  0.32466635  0.78373928  1  0.014906  0.002887  2.206906  0.003  0.023087  0.001232  2.538304  0.001  0.021725  0.000524  2.535569  0.001  0.020303  0.024355  0.001935  2.540039  0.002
S  S43  1  0.79701855  0.67532646  0.21625030  1  0.014987  0.002905  2.207078  0.003  0.023161  0.001234  2.538426  0.001  0.0218  0.000528  2.5357  0.001  0.020386  0.024432  0.00194  2.540162  0.002
N  N44  1  0.06128955  0.50600184  0.67858644  1  -0.402612  0.102175  3.278732  0.131  -0.368442  0.067682  3.550959  0.092  -0.401175  0.052598  3.567426  0.077  -0.492051  -0.348858  0.075644  3.5417  0.097
N  N45  1  0.56129678  0.49399908  0.32140423  1  -0.402631  0.102143  3.278732  0.131  -0.368456  0.067675  3.551045  0.092  -0.401155  0.052592  3.567469  0.077  -0.491933  -0.348864  0.075629  3.541779  0.097
N  N46  1  0.72627889  0.01722794  0.76328419  1  -0.066607  0.001792  3.516868  0.003  0.039809  0.001392  3.744778  0.002  0.020272  0.00058  3.769235  0.001  -0.273123  0.052513  0.001974  3.727843  0.003
N  N47  1  0.22629106  0.98277979  0.23672682  1  -0.066622  0.001778  3.517177  0.003  0.039765  0.001391  3.745048  0.002  0.020237  0.000577  3.769498  0.001  -0.273037  0.052464  0.001971  3.728122  0.003
O  O48  1  0.54224436  0.52847159  0.59142809  1  -0.619872  0.053218  2.087144  0.075  -0.575452  0.037892  2.366525  0.058  -0.612636  0.029022  2.354769  0.048  -0.328638  -0.550296  0.0435  2.374937  0.063
O  O49  1  0.04228293  0.47152520  0.40857793  1  -0.619586  0.053226  2.087328  0.075  -0.575322  0.037894  2.366788  0.058  -0.612479  0.029021  2.354995  0.048  -0.328513  -0.550153  0.043505  2.375173  0.063
O  O50  1  0.05910343  0.77057470  0.80759156  1  -0.595988  0.087228  2.019633  0.122  -0.5714  0.055924  2.300246  0.085  -0.614457  0.041494  2.29341  0.069  -0.330951  -0.54308  0.06468  2.305469  0.093
O  O51  1  0.55909787  0.22943342  0.19240884  1  -0.595757  0.08717  2.020298  0.122  -0.571134  0.055905  2.300957  0.085  -0.614162  0.041485  2.294083  0.069  -0.330822  -0.542806  0.064655  2.306168  0.093
O  O52  1  0.50588111  0.82433663  0.66318914  1  -0.499914  0.060272  2.138962  0.082  -0.465616  0.041934  2.430667  0.062  -0.503463  0.032541  2.422246  0.052  -0.316976  -0.440702  0.047709  2.436819  0.067
O  O53  1  0.00586861  0.17566142  0.33682622  1  -0.500041  0.060315  2.138307  0.082  -0.465723  0.041951  2.42997  0.062  -0.503557  0.032553  2.421518  0.052  -0.31692  -0.440802  0.04773  2.436139  0.067
O  O54  1  0.74940998  0.73056249  0.93783983  1  -0.580357  0.01668  1.904291  0.022  -0.543596  0.007924  2.13106  0.011  -0.56972  0.00345  2.125311  0.006  -0.311908  -0.52412  0.012962  2.133998  0.017
O  O55  1  0.24936042  0.26943705  0.06213503  1  -0.580489  0.016712  1.903488  0.022  -0.543763  0.007929  2.130278  0.011  -0.569899  0.003453  2.124529  0.006  -0.311969  -0.52428  0.012974  2.133215  0.017
O  O56  1  0.58786806  0.29923805  0.51544068  1  -0.587098  0.015994  1.977451  0.022  -0.557754  0.007842  2.234609  0.012  -0.585029  0.003538  2.221844  0.007  -0.310578  -0.537717  0.012862  2.242888  0.018
O  O57  1  0.08797114  0.70074703  0.48455909  1  -0.587265  0.016021  1.976433  0.022  -0.55804  0.007847  2.233647  0.012  -0.585348  0.003539  2.220903  0.007  -0.310644  -0.538  0.012877  2.241936  0.018
