# generated using pymatgen
data_Cu4H24C37N8
_symmetry_space_group_name_H-M   'P 1'
_cell_length_a   24.17892558
_cell_length_b   24.71388157
_cell_length_c   26.41245111
_cell_angle_alpha   89.71384150
_cell_angle_beta   90.34496062
_cell_angle_gamma   89.55414307
_symmetry_Int_Tables_number   1
_chemical_formula_structural   Cu4H24C37N8
_chemical_formula_sum   'Cu12 H72 C111 N24'
_cell_volume   15781.93048386
_cell_formula_units_Z   3
loop_
 _symmetry_equiv_pos_site_id
 _symmetry_equiv_pos_as_xyz
  1  'x, y, z'
loop_
 _atom_site_type_symbol
 _atom_site_label
 _atom_site_symmetry_multiplicity
 _atom_site_fract_x
 _atom_site_fract_y
 _atom_site_fract_z
 _atom_site_occupancy
 _atom_site_pbe_bader_charge
 _atom_site_pbe_bader_spin_density
 _atom_site_pbe_cm5_charge
 _atom_site_pbe_ddec_charge
 _atom_site_pbe_ddec_spin_density
 _atom_site_pbe_ddec_sum_bond_order
 _atom_site_pbe_magmom
Cu  Cu0  1  0.76544838  0.85942394  0.75964691  1  0.538031  0  0.481796  0.20161  0  2.115249  0
Cu  Cu1  1  0.75515668  0.75779588  0.83183054  1  0.542244  0  0.48529  0.205763  0  2.115767  0
Cu  Cu2  1  0.86142133  0.77127745  0.76181184  1  0.546748  0  0.481536  0.203512  0  2.105292  0
Cu  Cu3  1  0.23989936  0.15079093  0.75859442  1  0.539483  0  0.483063  0.202214  0  2.121494  0
Cu  Cu4  1  0.24744514  0.24690588  0.83765744  1  0.546513  0  0.484475  0.207109  0  2.111062  0
Cu  Cu5  1  0.14131380  0.23337033  0.76687798  1  0.529693  0  0.482781  0.202808  0  2.118706  0
Cu  Cu6  1  0.74879271  0.15663880  0.24182563  1  0.531779  0  0.482406  0.203829  0  2.115129  0
Cu  Cu7  1  0.76404255  0.22889969  0.14463857  1  0.523942  0  0.484044  0.201514  0  2.133556  0
Cu  Cu8  1  0.84149661  0.24745154  0.23991409  1  0.541247  0  0.483259  0.204865  0  2.110197  0
Cu  Cu9  1  0.24516601  0.84304650  0.24805846  1  0.540546  0  0.483813  0.202995  0  2.130679  0
Cu  Cu10  1  0.25564975  0.74201169  0.17451078  1  0.542347  0  0.481751  0.207832  0  2.09524  0
Cu  Cu11  1  0.14624316  0.76294176  0.24033114  1  0.531186  0  0.481076  0.202389  0  2.112486  0
H  H12  1  0.67188997  0.93498062  0.80552532  1  0.082414  0  0.118897  0.108631  0  0.997289  0
H  H13  1  0.64786958  0.78901335  0.89381631  1  0.081883  0  0.118626  0.108616  0  0.997146  0
H  H14  1  0.93729216  0.81479487  0.67250115  1  0.077161  0  0.11875  0.108389  0  0.997774  0
H  H15  1  0.80471050  0.93375646  0.66923281  1  0.073709  0  0.118422  0.107878  0  0.998022  0
H  H16  1  0.79103028  0.65708629  0.89792276  1  0.085923  0  0.118464  0.108322  0  0.997669  0
H  H17  1  0.94081397  0.68337953  0.81236106  1  0.090362  0  0.119143  0.108576  0  0.995564  0
H  H18  1  0.32733803  0.06939487  0.80596340  1  0.094373  0  0.119062  0.109143  0  0.995191  0
H  H19  1  0.34465332  0.20427470  0.90868169  1  0.074349  0  0.118881  0.109591  0  0.995328  0
H  H20  1  0.06193674  0.19029306  0.67950739  1  0.118038  0  0.119016  0.108107  0  0.997484  0
H  H21  1  0.20499662  0.08601139  0.65965614  1  0.06661  0  0.118621  0.108381  0  0.99749  0
H  H22  1  0.21381893  0.35316938  0.89797638  1  0.089841  0  0.119225  0.111278  0  0.992025  0
H  H23  1  0.06079406  0.31747460  0.81942010  1  0.078119  0  0.119407  0.109986  0  0.993717  0
H  H24  1  0.64076350  0.09004767  0.21062554  1  0.11434  0  0.119578  0.113901  0  0.990885  0
H  H25  1  0.67892903  0.17180272  0.07010065  1  0.108388  0  0.118579  0.111434  0  0.992072  0
H  H26  1  0.91757491  0.20826360  0.33103320  1  0.091363  0  0.118154  0.107962  0  0.997542  0
H  H27  1  0.79413814  0.08210823  0.33000887  1  0.084686  0  0.118453  0.10791  0  0.997599  0
H  H28  1  0.81484673  0.31319378  0.06787549  1  0.100268  0  0.118345  0.107791  0  0.99669  0
H  H29  1  0.90642164  0.35269201  0.20403461  1  0.058461  0  0.119096  0.109119  0  0.996538  0
H  H30  1  0.33461289  0.91924856  0.20091331  1  0.093378  0  0.118879  0.11167  0  0.991215  0
H  H31  1  0.35909936  0.77729513  0.10837049  1  0.071436  0  0.118404  0.111806  0  0.991607  0
H  H32  1  0.06341254  0.81435780  0.32117796  1  0.092557  0  0.118664  0.108378  0  0.997581  0
H  H33  1  0.20455488  0.92019689  0.33653717  1  0.069792  0  0.118393  0.108164  0  0.996956  0
H  H34  1  0.21814311  0.63994926  0.11095654  1  0.115152  0  0.118641  0.111188  0  0.992915  0
H  H35  1  0.06580098  0.68031650  0.18783530  1  0.068482  0  0.119034  0.110475  0  0.993011  0
H  H36  1  0.62372937  0.98210893  0.87005053  1  0.04668  0  0.098559  0.098766  0  1.004302  0
H  H37  1  0.56165007  0.82899493  0.92281107  1  0.022697  0  0.097176  0.097196  0  1.004985  0
H  H38  1  0.50127337  0.87634018  0.98250167  1  0.080969  0  0.09656  0.098353  0  1.033221  0
H  H39  1  0.56146079  0.02910493  0.92830202  1  0.074273  0  0.101046  0.102435  0  1.000564  0
H  H40  1  0.43520730  0.15847239  0.93339892  1  0.015995  0  0.097467  0.097639  0  1.003829  0
H  H41  1  0.35594821  0.01403008  0.87954257  1  0.034329  0  0.098866  0.099445  0  1.003007  0
H  H42  1  0.41657275  0.95896124  0.93469468  1  0.031233  0  0.10192  0.103388  0  0.995432  0
H  H43  1  0.49361238  0.10334910  0.99042993  1  0.055004  0  0.096676  0.099436  0  1.029874  0
H  H44  1  0.52737847  0.11515594  0.13094436  1  0.043427  0  0.099346  0.101536  0  0.999528  0
H  H45  1  0.67076359  0.04205579  0.06336542  1  0.029308  0  0.098945  0.100256  0  0.999408  0
H  H46  1  0.61095134  0.98756819  0.00816086  1  0.075355  0  0.098774  0.103839  0  1.028933  0
H  H47  1  0.46712804  0.05995293  0.07600303  1  0.084766  0  0.100689  0.101881  0  1.002051  0
H  H48  1  0.47587779  0.85052710  0.12194349  1  0.051463  0  0.098881  0.100575  0  1.000387  0
H  H49  1  0.33057091  0.94486512  0.08617136  1  0.063873  0  0.098624  0.099854  0  0.999913  0
H  H50  1  0.38381283  0.99850544  0.02480276  1  0.086508  0  0.098569  0.101644  0  1.024657  0
H  H51  1  0.53008789  0.90638356  0.06270290  1  0.086203  0  0.101689  0.103341  0  0.998223  0
H  H52  1  0.84955813  0.97992501  0.60516348  1  0.062146  0  0.097207  0.097006  0  1.00647  0
H  H53  1  0.98075464  0.86065181  0.60710821  1  0.03601  0  0.097396  0.097055  0  1.006139  0
H  H54  1  0.02816811  0.91061556  0.54027611  1  0.078145  0  0.09942  0.10002  0  1.010981  0
H  H55  1  0.89732613  0.02953065  0.53837130  1  0.045191  0  0.09863  0.098888  0  1.014499  0
H  H56  1  0.14996682  0.97841766  0.38621815  1  0.034936  0  0.097318  0.096857  0  1.005087  0
H  H57  1  0.02309281  0.85683880  0.39066987  1  0.045183  0  0.097484  0.097454  0  1.005447  0
H  H58  1  0.97362012  0.90933325  0.45454482  1  0.0642  0  0.099055  0.099075  0  1.012201  0
H  H59  1  0.10027854  0.03049045  0.45035155  1  0.024096  0  0.099165  0.099826  0  1.012117  0
H  H60  1  0.02241809  0.15353734  0.60695689  1  0.034692  0  0.097405  0.097305  0  1.005486  0
H  H61  1  0.15437965  0.03536280  0.60132960  1  0.046651  0  0.097112  0.09643  0  1.006224  0
H  H62  1  0.10456863  0.98675192  0.53499652  1  0.075392  0  0.098837  0.099302  0  1.016038  0
H  H63  1  0.97268407  0.10432667  0.54098819  1  0.100532  0  0.099097  0.099487  0  1.011722  0
H  H64  1  0.96822333  0.15960473  0.39115654  1  0.03341  0  0.097347  0.097224  0  1.006504  0
H  H65  1  0.84449215  0.03478419  0.39043752  1  0.06311  0  0.09754  0.096964  0  1.006431  0
H  H66  1  0.89841131  0.98362019  0.45323114  1  0.049766  0  0.099166  0.099252  0  1.012853  0
H  H67  1  0.02161417  0.10817434  0.45423193  1  0.085034  0  0.099206  0.099772  0  1.012034  0
H  H68  1  0.97632664  0.60091414  0.84950809  1  0.074171  0  0.098302  0.097447  0  1.003751  0
H  H69  1  0.84745620  0.61371968  0.96094005  1  0.064859  0  0.097374  0.097611  0  1.005845  0
H  H70  1  0.89830293  0.55075799  0.01594411  1  0.076933  0  0.100387  0.100145  0  1.01119  0
H  H71  1  0.02701287  0.53822973  0.90470713  1  0.068878  0  0.09705  0.100451  0  1.032075  0
H  H72  1  0.84296424  0.39827432  0.03415983  1  0.050445  0  0.09724  0.097255  0  1.00604  0
H  H73  1  0.97088079  0.39918825  0.14844822  1  0.062949  0  0.09801  0.097211  0  1.003277  0
H  H74  1  0.02292709  0.46438942  0.09825791  1  0.077907  0  0.097373  0.100748  0  1.032197  0
H  H75  1  0.89674792  0.46110485  0.98277694  1  0.098341  0  0.100364  0.100221  0  1.01356  0
H  H76  1  0.15955273  0.54197142  0.10187252  1  0.063349  0  0.097618  0.098873  0  1.002581  0
H  H77  1  0.02825490  0.66045802  0.09690278  1  0.054586  0  0.098291  0.098153  0  1.002326  0
H  H78  1  0.97610619  0.60328406  0.03874264  1  0.067976  0  0.097077  0.100005  0  1.03612  0
H  H79  1  0.10649764  0.48384609  0.04454968  1  0.095596  0  0.099667  0.099833  0  1.014487  0
H  H80  1  0.15996337  0.45220191  0.90639499  1  0.062646  0  0.096878  0.097842  0  1.003147  0
H  H81  1  0.02199386  0.34318013  0.90666799  1  0.04082  0  0.097922  0.097167  0  1.004455  0
H  H82  1  0.97158686  0.40405313  0.96266055  1  0.050337  0  0.096667  0.099332  0  1.039918  0
H  H83  1  0.10874022  0.51403032  0.96185347  1  0.061192  0  0.099696  0.100483  0  1.014929  0
C  C84  1  0.67274334  0.89501044  0.82268442  1  0.392374  0  0.004612  -0.054748  0  3.965105  0
C  C85  1  0.64031109  0.87363186  0.86185336  1  0.09789  0  -0.036804  -0.036105  0  4.090467  0
C  C86  1  0.66004502  0.82028495  0.86724243  1  0.355214  0  0.003966  -0.054884  0  3.966884  0
C  C87  1  0.90058634  0.83953842  0.67804015  1  0.415559  0  0.004487  -0.054017  0  3.959791  0
C  C88  1  0.88309285  0.88680226  0.65252791  1  -0.036633  0  -0.036432  -0.034838  0  4.082725  0
C  C89  1  0.83303209  0.90024670  0.67635670  1  0.447083  0  0.004317  -0.055034  0  3.961844  0
C  C90  1  0.82334136  0.67001664  0.87230807  1  0.39414  0  0.003199  -0.057209  0  3.967716  0
C  C91  1  0.87844257  0.65212915  0.86851670  1  0.001085  0  -0.036599  -0.034716  0  4.086459  0
C  C92  1  0.89954248  0.68301481  0.82828616  1  0.430526  0  0.00489  -0.05328  0  3.958303  0
C  C93  1  0.32525250  0.10735625  0.82634646  1  0.375115  0  0.003879  -0.055389  0  3.964456  0
C  C94  1  0.35323351  0.12319731  0.87053910  1  0.086007  0  -0.037277  -0.036632  0  4.094068  0
C  C95  1  0.33485382  0.17655568  0.87823637  1  0.377752  0  0.003777  -0.055823  0  3.965626  0
C  C96  1  0.10134126  0.16901769  0.68103134  1  0.358828  0  0.004437  -0.052684  0  3.960005  0
C  C97  1  0.12125550  0.12645076  0.65088040  1  0.071399  0  -0.036627  -0.037486  0  4.087246  0
C  C98  1  0.17415475  0.11558990  0.67106641  1  0.389268  0  0.00455  -0.054114  0  3.961424  0
C  C99  1  0.18112848  0.33827879  0.87350396  1  0.380144  0  0.002584  -0.058764  0  3.964719  0
C  C100  1  0.12512198  0.35344445  0.87117190  1  0.029396  0  -0.036488  -0.03434  0  4.091335  0
C  C101  1  0.10275877  0.31924415  0.83413686  1  0.419153  0  0.00398  -0.057115  0  3.967513  0
C  C102  1  0.65651114  0.11571374  0.18065213  1  0.37864  0  0.001382  -0.063332  0  3.973215  0
C  C103  1  0.64180906  0.11766328  0.12930579  1  -0.005593  0  -0.036174  -0.032664  0  4.09231  0
C  C104  1  0.67670508  0.15700786  0.10878997  1  0.389381  0  0.001667  -0.063192  0  3.98393  0
C  C105  1  0.88243250  0.18198775  0.32491229  1  0.370623  0  0.004251  -0.054117  0  3.959255  0
C  C106  1  0.86958622  0.13220775  0.34781965  1  0.0721  0  -0.03706  -0.036409  0  4.087157  0
C  C107  1  0.81946243  0.11768921  0.32448913  1  0.38611  0  0.00407  -0.054221  0  3.960751  0
C  C108  1  0.83230886  0.31659699  0.10566069  1  0.415422  0  0.004162  -0.055094  0  3.964968  0
C  C109  1  0.87296888  0.35188433  0.12400962  1  -0.010597  0  -0.036849  -0.036457  0  4.089626  0
C  C110  1  0.87962094  0.33627314  0.17493068  1  0.407063  0  0.004618  -0.054793  0  3.962135  0
C  C111  1  0.33401779  0.87965709  0.18333563  1  0.449982  0  0.001597  -0.061833  0  3.97919  0
C  C112  1  0.36405633  0.86074682  0.14174694  1  -0.014109  0  -0.036378  -0.034192  0  4.093198  0
C  C113  1  0.34730407  0.80686709  0.13664612  1  0.37071  0  0.000859  -0.061953  0  3.972363  0
C  C114  1  0.10259824  0.83535940  0.31916810  1  0.401786  0  0.005012  -0.05414  0  3.962597  0
C  C115  1  0.12090352  0.88119753  0.34559752  1  0.047597  0  -0.036854  -0.037312  0  4.087954  0
C  C116  1  0.17444956  0.88955827  0.32678376  1  0.392212  0  0.00451  -0.05437  0  3.961663  0
C  C117  1  0.18576785  0.65563856  0.13525268  1  0.37992  0  0.002306  -0.060578  0  3.966424  0
C  C118  1  0.12932920  0.64286255  0.13635392  1  -0.011245  0  -0.036462  -0.033404  0  4.089612  0
C  C119  1  0.10778914  0.67714315  0.17374181  1  0.437665  0  0.003547  -0.058763  0  3.968824  0
C  C120  1  0.00165383  0.50263532  0.00130995  1  0.049355  0  0.016872  0.005734  0  3.758493  0
C  C121  1  0.49536024  0.98955026  0.00092377  1  0.054187  0  0.013653  0.002239  0  3.7862  0
C  C122  1  0.99975589  0.00791987  0.49573264  1  0.050935  0  0.013605  0.005764  0  3.795335  0
C  C123  1  0.59681101  0.95835606  0.89440565  1  -0.050925  0  -0.097411  -0.136387  0  3.99692  0
C  C124  1  0.59932347  0.90144099  0.89295949  1  -0.061848  0  -0.013767  0.08204  0  4.066076  0
C  C125  1  0.56288556  0.87306284  0.92437819  1  -0.014045  0  -0.100014  -0.137301  0  4.001523  0
C  C126  1  0.52841851  0.90003039  0.95839228  1  -0.082638  0  -0.099896  -0.139649  0  4.02537  0
C  C127  1  0.52884280  0.95640255  0.96221257  1  -0.004922  0  -0.008929  0.059122  0  3.922502  0
C  C128  1  0.56202635  0.98496501  0.92780104  1  -0.03404  0  -0.092265  -0.122838  0  4.011845  0
C  C129  1  0.42993526  0.11467256  0.93420074  1  -0.037471  0  -0.099348  -0.136555  0  4.001887  0
C  C130  1  0.39037649  0.09078165  0.90253602  1  -0.016885  0  -0.012996  0.083593  0  4.062637  0
C  C131  1  0.38650519  0.03394490  0.90343827  1  -0.007258  0  -0.096679  -0.13609  0  3.997434  0
C  C132  1  0.42018127  0.00293505  0.93506646  1  -0.046177  0  -0.092358  -0.122469  0  4.012817  0
C  C133  1  0.45853415  0.02702744  0.96802160  1  -0.016241  0  -0.009408  0.056934  0  3.934069  0
C  C134  1  0.46328456  0.08332996  0.96644320  1  -0.020179  0  -0.100061  -0.140017  0  4.025529  0
C  C135  1  0.54581398  0.08713598  0.10395673  1  -0.006837  0  -0.096389  -0.140275  0  4.004338  0
C  C136  1  0.60362420  0.08353960  0.10014609  1  -0.02844  0  -0.012065  0.086071  0  4.047252  0
C  C137  1  0.62593691  0.04661116  0.06563812  1  -0.028334  0  -0.097376  -0.135944  0  4.009936  0
C  C138  1  0.59196123  0.01587424  0.03438911  1  -0.07621  0  -0.09983  -0.138455  0  4.021167  0
C  C139  1  0.53441570  0.02152719  0.03603505  1  -0.015182  0  -0.006305  0.064978  0  3.913906  0
C  C140  1  0.51196813  0.05640194  0.07256794  1  -0.057922  0  -0.092622  -0.123903  0  4.001615  0
C  C141  1  0.45537217  0.88260416  0.10019521  1  0.000271  0  -0.096833  -0.139704  0  4.004627  0
C  C142  1  0.39880363  0.89293869  0.10759845  1  -0.055287  0  -0.011686  0.086088  0  4.047225  0
C  C143  1  0.37433482  0.93587816  0.08052762  1  -0.060373  0  -0.096863  -0.134229  0  4.004888  0
C  C144  1  0.40448878  0.96597809  0.04567605  1  -0.042733  0  -0.098485  -0.136681  0  4.02329  0
C  C145  1  0.46047670  0.95482600  0.03708502  1  -0.054315  0  -0.007089  0.061991  0  3.920777  0
C  C146  1  0.48572944  0.91372951  0.06627173  1  -0.069152  0  -0.093448  -0.125428  0  4.005477  0
C  C147  1  0.88859876  0.96383467  0.59098086  1  -0.027047  0  -0.098648  -0.135862  0  3.998343  0
C  C148  1  0.91086758  0.91580776  0.61166305  1  -0.09347  0  -0.013174  0.082261  0  4.060264  0
C  C149  1  0.96158543  0.89747205  0.59205861  1  -0.020915  0  -0.097976  -0.134669  0  3.996199  0
C  C150  1  0.98850517  0.92573304  0.55391288  1  0.070945  0  -0.095347  -0.128715  0  4.018958  0
C  C151  1  0.96599680  0.97341997  0.53309922  1  -0.104043  0  -0.009281  0.058348  0  3.918074  0
C  C152  1  0.91565344  0.99203259  0.55281079  1  -0.041011  0  -0.09657  -0.131105  0  4.020186  0
C  C153  1  0.11158847  0.96230661  0.40142309  1  -0.082408  0  -0.098242  -0.134683  0  3.994614  0
C  C154  1  0.09124630  0.91271203  0.38361045  1  -0.005248  0  -0.013419  0.083415  0  4.062007  0
C  C155  1  0.04078756  0.89481026  0.40363554  1  -0.057757  0  -0.098202  -0.135658  0  3.999663  0
C  C156  1  0.01277968  0.92447530  0.44016217  1  -0.046377  0  -0.09584  -0.129863  0  4.022557  0
C  C157  1  0.03386696  0.97321104  0.45884645  1  -0.013789  0  -0.009462  0.059648  0  3.921858  0
C  C158  1  0.08341022  0.99191939  0.43798236  1  0.022086  0  -0.096612  -0.132881  0  4.021033  0
C  C159  1  0.04120873  0.11710659  0.59124631  1  -0.057057  0  -0.098011  -0.134  0  3.996157  0
C  C160  1  0.09274396  0.09868039  0.60968104  1  -0.018991  0  -0.012942  0.082515  0  4.062461  0
C  C161  1  0.11478766  0.05147831  0.58791949  1  -0.00264  0  -0.098479  -0.133908  0  3.997664  0
C  C162  1  0.08654377  0.02384512  0.55006671  1  -0.068324  0  -0.096882  -0.133021  0  4.023926  0
C  C163  1  0.03514201  0.04223979  0.53186380  1  -0.067207  0  -0.009312  0.058914  0  3.920636  0
C  C164  1  0.01305237  0.08934434  0.55352182  1  -0.053151  0  -0.095589  -0.129906  0  4.019855  0
C  C165  1  0.95199179  0.12121187  0.40483252  1  -0.016758  0  -0.098163  -0.134388  0  3.998443  0
C  C166  1  0.90140108  0.10193844  0.38588696  1  0.112544  0  -0.012803  0.081437  0  4.062299  0
C  C167  1  0.88315051  0.05174035  0.40441375  1  -0.108336  0  -0.098345  -0.133624  0  3.997512  0
C  C168  1  0.91366464  0.02267893  0.44028003  1  -0.049947  0  -0.096347  -0.131486  0  4.023057  0
C  C169  1  0.96351762  0.04254289  0.45985983  1  -0.039365  0  -0.009536  0.059296  0  3.923888  0
C  C170  1  0.98234980  0.09207756  0.44079105  1  -0.154819  0  -0.096363  -0.131077  0  4.0221  0
C  C171  1  0.95881231  0.59045242  0.88620443  1  -0.135454  0  -0.09811  -0.134115  0  3.997564  0
C  C172  1  0.90771876  0.61280388  0.90057395  1  0.084471  0  -0.012722  0.083458  0  4.064272  0
C  C173  1  0.88674658  0.59705723  0.94789500  1  -0.100367  0  -0.099144  -0.139531  0  3.998581  0
C  C174  1  0.91585106  0.56135313  0.97933021  1  -0.058672  0  -0.096613  -0.134613  0  4.032597  0
C  C175  1  0.96715987  0.53927892  0.96514230  1  -0.032462  0  -0.008504  0.059821  0  3.903122  0
C  C176  1  0.98766101  0.55462239  0.91769147  1  -0.060617  0  -0.09636  -0.126588  0  4.003061  0
C  C177  1  0.88288991  0.41199977  0.04839762  1  -0.085457  0  -0.098922  -0.139759  0  3.99988  0
C  C178  1  0.90286731  0.39287555  0.09531254  1  0.082444  0  -0.012979  0.084381  0  4.065126  0
C  C179  1  0.95367937  0.41325542  0.11239972  1  -0.106053  0  -0.097097  -0.132615  0  3.998337  0
C  C180  1  0.98355679  0.45001725  0.08354160  1  -0.095485  0  -0.096631  -0.12786  0  4.00622  0
C  C181  1  0.96464124  0.46772273  0.03594618  1  -0.019299  0  -0.00917  0.05918  0  3.908323  0
C  C182  1  0.91328157  0.44814590  0.01936380  1  -0.052829  0  -0.097345  -0.134943  0  4.037304  0
C  C183  1  0.11936937  0.55593523  0.08774228  1  -0.042279  0  -0.099794  -0.14232  0  4.001199  0
C  C184  1  0.09832856  0.60614110  0.10359050  1  0.028618  0  -0.012151  0.083992  0  4.058712  0
C  C185  1  0.04568017  0.62152031  0.08564702  1  -0.038539  0  -0.097033  -0.133204  0  4.000039  0
C  C186  1  0.01625179  0.58903486  0.05234993  1  -0.093996  0  -0.096918  -0.126536  0  4.004506  0
C  C187  1  0.03735794  0.53926525  0.03563832  1  -0.001975  0  -0.007984  0.060145  0  3.904172  0
C  C188  1  0.08921050  0.52306996  0.05494276  1  -0.108858  0  -0.097051  -0.134669  0  4.024096  0
C  C189  1  0.11869389  0.44108372  0.91912923  1  -0.100256  0  -0.098572  -0.140497  0  4.000644  0
C  C190  1  0.09529750  0.39238236  0.90260286  1  0.082067  0  -0.01285  0.084391  0  4.063554  0
C  C191  1  0.04134395  0.38082077  0.91852575  1  -0.106222  0  -0.09687  -0.133442  0  4.005111  0
C  C192  1  0.01288843  0.41540387  0.95066133  1  0.001672  0  -0.096462  -0.124786  0  4.003485  0
C  C193  1  0.03633521  0.46358202  0.96822856  1  -0.028827  0  -0.00748  0.061597  0  3.90163  0
C  C194  1  0.08954209  0.47608339  0.95082106  1  -0.0557  0  -0.097249  -0.137088  0  4.028058  0
N  N195  1  0.70116693  0.81087047  0.83405693  1  -0.765188  0  -0.340154  -0.142306  0  3.767054  0
N  N196  1  0.70889443  0.85728097  0.80621446  1  -0.772392  0  -0.338159  -0.13805  0  3.770234  0
N  N197  1  0.82189734  0.86394298  0.71313134  1  -0.770386  0  -0.338683  -0.138975  0  3.772657  0
N  N198  1  0.86387791  0.82616325  0.71418039  1  -0.762492  0  -0.336813  -0.13971  0  3.769927  0
N  N199  1  0.86012502  0.71682582  0.80992423  1  -0.783412  0  -0.336871  -0.138906  0  3.768061  0
N  N200  1  0.81270026  0.70866359  0.83724046  1  -0.770575  0  -0.339633  -0.140906  0  3.768476  0
N  N201  1  0.29851239  0.19114490  0.84155210  1  -0.78799  0  -0.339337  -0.142996  0  3.765127  0
N  N202  1  0.29275810  0.14818213  0.80917973  1  -0.776884  0  -0.339335  -0.139036  0  3.770506  0
N  N203  1  0.18459621  0.14892585  0.71019671  1  -0.759171  0  -0.338819  -0.139582  0  3.769027  0
N  N204  1  0.13934279  0.18215200  0.71635265  1  -0.771208  0  -0.339107  -0.140143  0  3.773235  0
N  N205  1  0.14249027  0.28620985  0.81592700  1  -0.769024  0  -0.33947  -0.138892  0  3.773818  0
N  N206  1  0.19117123  0.29769786  0.84063627  1  -0.78023  0  -0.339846  -0.144632  0  3.757529  0
N  N207  1  0.70982880  0.17704624  0.14531312  1  -0.771062  0  -0.342624  -0.141168  0  3.789697  0
N  N208  1  0.69763377  0.15119892  0.18993306  1  -0.776598  0  -0.340802  -0.144217  0  3.761899  0
N  N209  1  0.80391016  0.15582827  0.29046308  1  -0.745057  0  -0.337791  -0.138772  0  3.770643  0
N  N210  1  0.84310012  0.19579816  0.29065103  1  -0.781801  0  -0.338578  -0.14186  0  3.766699  0
N  N211  1  0.84558527  0.29485162  0.18586118  1  -0.759333  0  -0.337886  -0.140046  0  3.764186  0
N  N212  1  0.81623006  0.28267781  0.14276471  1  -0.77491  0  -0.341033  -0.13912  0  3.780202  0
N  N213  1  0.30955197  0.79470027  0.17247788  1  -0.763869  0  -0.338223  -0.144305  0  3.754206  0
N  N214  1  0.30166315  0.83990068  0.20166248  1  -0.772818  0  -0.342459  -0.142628  0  3.780819  0
N  N215  1  0.18677698  0.85172896  0.29191392  1  -0.771981  0  -0.339941  -0.140465  0  3.774674  0
N  N216  1  0.14212828  0.81806785  0.28714683  1  -0.773171  0  -0.338076  -0.138612  0  3.769351  0
N  N217  1  0.14833742  0.70803958  0.19326495  1  -0.766056  0  -0.338895  -0.139471  0  3.772865  0
N  N218  1  0.19682166  0.69497661  0.16914644  1  -0.782934  0  -0.337678  -0.142628  0  3.755734  0
