# generated using pymatgen
data_CdH24C28(BrN4)2
_symmetry_space_group_name_H-M   'P 1'
_cell_length_a   8.44014318
_cell_length_b   8.20629342
_cell_length_c   12.60304647
_cell_angle_alpha   69.24991423
_cell_angle_beta   74.43254211
_cell_angle_gamma   63.48294236
_symmetry_Int_Tables_number   1
_chemical_formula_structural   CdH24C28(BrN4)2
_chemical_formula_sum   'Cd1 H24 C28 Br2 N8'
_cell_volume   724.05961912
_cell_formula_units_Z   1
loop_
 _symmetry_equiv_pos_site_id
 _symmetry_equiv_pos_as_xyz
  1  'x, y, z'
loop_
 _atom_site_type_symbol
 _atom_site_label
 _atom_site_symmetry_multiplicity
 _atom_site_fract_x
 _atom_site_fract_y
 _atom_site_fract_z
 _atom_site_occupancy
 _atom_site_hle17_bader_spin_density
 _atom_site_hle17_ddec_charge
 _atom_site_hle17_ddec_spin_density
 _atom_site_hle17_ddec_sum_bond_order
 _atom_site_hle17_magmom
 _atom_site_hse06_10hf_bader_spin_density
 _atom_site_hse06_10hf_ddec_charge
 _atom_site_hse06_10hf_ddec_spin_density
 _atom_site_hse06_10hf_ddec_sum_bond_order
 _atom_site_hse06_10hf_magmom
 _atom_site_hse06_bader_spin_density
 _atom_site_hse06_ddec_charge
 _atom_site_hse06_ddec_spin_density
 _atom_site_hse06_ddec_sum_bond_order
 _atom_site_hse06_magmom
 _atom_site_pbe_bader_spin_density
 _atom_site_pbe_cm5_charge
 _atom_site_pbe_ddec_charge
 _atom_site_pbe_ddec_spin_density
 _atom_site_pbe_ddec_sum_bond_order
 _atom_site_pbe_magmom
Cd  Cd0  1  0.50000007  0.99999676  0.49999984  1  0  0.97938  0  1.917722  0  0  0.805406  0  2.382048  0  0  0.854745  0  2.34031  0  0  0.669012  0.771366  0  2.40984  0
H  H1  1  0.43464629  0.35899549  0.00714639  1  0  0.308532  0  0.850387  0  0  0.299541  0  0.896545  0  0  0.305659  0  0.892911  0  0  0.33447  0.295294  0  0.899061  0
H  H2  1  0.56535134  0.64099700  0.99286092  1  0  0.30848  0  0.850513  0  0  0.299496  0  0.896655  0  0  0.305615  0  0.893023  0  0  0.334456  0.295245  0  0.899181  0
H  H3  1  0.14317958  0.28701649  0.61281570  1  0  0.079858  0  0.933231  0  0  0.088267  0  0.995561  0  0  0.090746  0  0.993195  0  0  0.113885  0.086402  0  0.997339  0
H  H4  1  0.85681575  0.71298585  0.38719141  1  0  0.079855  0  0.933209  0  0  0.088263  0  0.995548  0  0  0.090745  0  0.993185  0  0  0.11389  0.086403  0  0.997326  0
H  H5  1  0.86439646  0.29007499  0.74648830  1  0  0.117758  0  0.961529  0  0  0.124423  0  1.028526  0  0  0.127983  0  1.027268  0  0  0.097227  0.12188  0  1.029542  0
H  H6  1  0.13560141  0.70992031  0.25351913  1  0  0.117827  0  0.961516  0  0  0.124516  0  1.028476  0  0  0.128076  0  1.027218  0  0  0.097276  0.121966  0  1.02951  0
H  H7  1  0.96749421  0.75268160  0.69966532  1  0  0.115068  0  0.957988  0  0  0.123077  0  1.021306  0  0  0.126916  0  1.019349  0  0  0.100821  0.120289  0  1.022897  0
H  H8  1  0.03250322  0.24732500  0.30033884  1  0  0.115065  0  0.957897  0  0  0.123101  0  1.021186  0  0  0.126942  0  1.019228  0  0  0.10081  0.120313  0  1.022778  0
H  H9  1  0.25100055  0.76701754  0.57258305  1  0  0.082024  0  0.933503  0  0  0.092356  0  0.992898  0  0  0.094397  0  0.991272  0  0  0.116574  0.090858  0  0.994073  0
H  H10  1  0.74899118  0.23298774  0.42742090  1  0  0.081988  0  0.933468  0  0  0.092315  0  0.992875  0  0  0.094356  0  0.991245  0  0  0.116542  0.090816  0  0.994056  0
H  H11  1  0.72289000  0.87432365  0.82379701  1  0  0.069899  0  0.931675  0  0  0.076875  0  1.000512  0  0  0.078884  0  0.998489  0  0  0.095342  0.075373  0  1.002069  0
H  H12  1  0.27709924  0.12568464  0.17620038  1  0  0.069924  0  0.931586  0  0  0.076866  0  1.000465  0  0  0.078875  0  0.998443  0  0  0.095347  0.075361  0  1.002026  0
H  H13  1  0.25515736  0.46537880  0.75305734  1  0  0.133065  0  0.938291  0  0  0.156875  0  0.988862  0  0  0.158504  0  0.9888  0  0  0.102777  0.155728  0  0.988895  0
H  H14  1  0.74483969  0.53463210  0.24694353  1  0  0.133074  0  0.938407  0  0  0.156855  0  0.988991  0  0  0.158482  0  0.98893  0  0  0.102775  0.155708  0  0.989024  0
H  H15  1  0.36377418  0.59240184  0.77362361  1  0  0.132936  0  0.971148  0  0  0.149491  0  1.039245  0  0  0.152115  0  1.038482  0  0  0.090253  0.147565  0  1.039866  0
H  H16  1  0.63622933  0.40760479  0.22637700  1  0  0.132973  0  0.971181  0  0  0.149492  0  1.039291  0  0  0.152114  0  1.038532  0  0  0.090254  0.147566  0  1.039913  0
H  H17  1  0.21052297  0.51496505  0.88725620  1  0  0.133155  0  0.968252  0  0  0.148922  0  1.035747  0  0  0.151237  0  1.034954  0  0  0.09606  0.147268  0  1.036351  0
H  H18  1  0.78947166  0.48504583  0.11274673  1  0  0.133119  0  0.968296  0  0  0.148878  0  1.035812  0  0  0.151192  0  1.035019  0  0  0.096023  0.147225  0  1.036417  0
H  H19  1  0.77413503  0.95602366  0.15996300  1  0  0.124662  0  0.968552  0  0  0.144805  0  1.027532  0  0  0.145731  0  1.029537  0  0  0.095304  0.14415  0  1.026139  0
H  H20  1  0.22587258  0.04396764  0.84003156  1  0  0.124686  0  0.968598  0  0  0.144812  0  1.02755  0  0  0.145739  0  1.029555  0  0  0.095297  0.144155  0  1.026163  0
H  H21  1  0.56164575  0.14533462  0.17550226  1  0  0.125523  0  1.001298  0  0  0.140129  0  1.073076  0  0  0.143327  0  1.070914  0  0  0.079175  0.137772  0  1.074712  0
H  H22  1  0.43836099  0.85465241  0.82449503  1  0  0.125559  0  1.001229  0  0  0.140123  0  1.073045  0  0  0.14332  0  1.070884  0  0  0.079192  0.137769  0  1.074679  0
H  H23  1  0.75471993  0.19403541  0.10751752  1  0  0.13312  0  0.955737  0  0  0.15445  0  1.016087  0  0  0.156085  0  1.016579  0  0  0.098086  0.153273  0  1.015795  0
H  H24  1  0.24528174  0.80595577  0.89248456  1  0  0.133118  0  0.95574  0  0  0.154441  0  1.01608  0  0  0.156078  0  1.01657  0  0  0.098075  0.153265  0  1.015788  0
C  C25  1  0.10154115  0.16915824  0.63661292  1  0  0.135235  0  3.709635  0  0  0.105818  0  3.959266  0  0  0.112905  0  3.977515  0  0  0.047585  0.101238  0  3.946802  0
C  C26  1  0.89845596  0.83084266  0.36339497  1  0  0.135271  0  3.709607  0  0  0.105827  0  3.959239  0  0  0.112908  0  3.977494  0  0  0.047578  0.101245  0  3.946777  0
C  C27  1  0.94622272  0.16962922  0.71098617  1  0  -0.159282  0  3.697336  0  0  -0.176836  0  3.943424  0  0  -0.184395  0  3.964812  0  0  -0.083459  -0.171967  0  3.929061  0
C  C28  1  0.05377238  0.83037032  0.28902082  1  0  -0.159367  0  3.697498  0  0  -0.176933  0  3.94356  0  0  -0.184489  0  3.964936  0  0  -0.083494  -0.172065  0  3.929193  0
C  C29  1  0.89924082  0.01460235  0.73840955  1  0  0.104703  0  3.700416  0  0  0.118321  0  3.936673  0  0  0.121177  0  3.960486  0  0  0.005967  0.116677  0  3.920396  0
C  C30  1  0.10075061  0.98540017  0.26159270  1  0  0.104719  0  3.700465  0  0  0.11834  0  3.936692  0  0  0.121199  0  3.960506  0  0  0.006004  0.116698  0  3.920412  0
C  C31  1  0.00576477  0.87038792  0.68507105  1  0  -0.15512  0  3.690996  0  0  -0.17179  0  3.936121  0  0  -0.179737  0  3.958097  0  0  -0.083046  -0.166663  0  3.921353  0
C  C32  1  0.99423096  0.12961310  0.31493310  1  0  -0.155097  0  3.69091  0  0  -0.171784  0  3.936023  0  0  -0.179732  0  3.957992  0  0  -0.083014  -0.166653  0  3.921247  0
C  C33  1  0.16084852  0.87931249  0.61328621  1  0  0.135067  0  3.710245  0  0  0.106258  0  3.95959  0  0  0.11341  0  3.97882  0  0  0.048344  0.101663  0  3.94642  0
C  C34  1  0.83914973  0.12068846  0.38671906  1  0  0.135057  0  3.71022  0  0  0.10623  0  3.959562  0  0  0.113386  0  3.97879  0  0  0.048316  0.101635  0  3.946392  0
C  C35  1  0.73714543  0.00112104  0.82480489  1  0  -0.013292  0  3.689475  0  0  -0.031108  0  3.914884  0  0  -0.028848  0  3.929485  0  0  -0.059935  -0.032491  0  3.905089  0
C  C36  1  0.26285019  0.99888006  0.17519610  1  0  -0.013249  0  3.689359  0  0  -0.031049  0  3.914731  0  0  -0.028793  0  3.929334  0  0  -0.059897  -0.032431  0  3.904936  0
C  C37  1  0.56840992  0.17417588  0.79116839  1  0  -0.172842  0  3.774411  0  0  -0.155451  0  4.019697  0  0  -0.168991  0  4.042348  0  0  -0.023554  -0.146618  0  4.004511  0
C  C38  1  0.43159132  0.82582661  0.20883041  1  0  -0.172835  0  3.774705  0  0  -0.155445  0  4.019981  0  0  -0.168989  0  4.042633  0  0  -0.023522  -0.146609  0  4.004792  0
C  C39  1  0.46899544  0.30074796  0.85451940  1  0  0.33007  0  3.740822  0  0  0.307668  0  4.01489  0  0  0.324329  0  4.030045  0  0  0.129901  0.296662  0  4.004187  0
C  C40  1  0.53100207  0.69925458  0.14547931  1  0  0.330272  0  3.740912  0  0  0.30786  0  4.014936  0  0  0.324528  0  4.030079  0  0  0.129998  0.296852  0  4.004235  0
C  C41  1  0.65803649  0.11214794  0.00457208  1  0  0.316333  0  3.738902  0  0  0.296276  0  4.013573  0  0  0.311487  0  4.029704  0  0  0.1236  0.286257  0  4.002207  0
C  C42  1  0.34196626  0.88785033  0.99542660  1  0  0.316415  0  3.73869  0  0  0.296305  0  4.013366  0  0  0.311516  0  4.029498  0  0  0.123626  0.286291  0  4.001996  0
C  C43  1  0.76226607  0.98105532  0.94486577  1  0  -0.161264  0  3.764257  0  0  -0.149988  0  4.014631  0  0  -0.161362  0  4.037331  0  0  -0.02453  -0.142631  0  3.999455  0
C  C44  1  0.23773419  0.01894298  0.05513258  1  0  -0.161307  0  3.763946  0  0  -0.149965  0  4.014246  0  0  -0.161339  0  4.036948  0  0  -0.024536  -0.142616  0  3.999074  0
C  C45  1  0.52131980  0.20323200  0.68544236  1  0  0.339078  0  3.786331  0  0  0.316484  0  4.057716  0  0  0.334129  0  4.074682  0  0  0.200515  0.304545  0  4.04637  0
C  C46  1  0.47867364  0.79677783  0.31454753  1  0  0.339056  0  3.786173  0  0  0.316473  0  4.057545  0  0  0.334122  0  4.074509  0  0  0.200445  0.30453  0  4.046197  0
C  C47  1  0.31426885  0.47790667  0.81573820  1  0  -0.405404  0  3.720779  0  0  -0.484017  0  3.958524  0  0  -0.489629  0  3.965377  0  0  -0.240711  -0.47992  0  3.953636  0
C  C48  1  0.68573102  0.52209994  0.18426470  1  0  -0.405463  0  3.720997  0  0  -0.484051  0  3.95881  0  0  -0.489662  0  3.965667  0  0  -0.24073  -0.479955  0  3.953923  0
C  C49  1  0.68782908  0.09967348  0.11845862  1  0  -0.403209  0  3.719006  0  0  -0.482144  0  3.954757  0  0  -0.487594  0  3.962173  0  0  -0.249666  -0.478173  0  3.949557  0
C  C50  1  0.31217610  0.90031781  0.88153721  1  0  -0.40333  0  3.71888  0  0  -0.482204  0  3.954731  0  0  -0.487654  0  3.962148  0  0  -0.249683  -0.478239  0  3.949526  0
C  C51  1  0.90516971  0.81943267  0.99433059  1  0  0.287492  0  3.805543  0  0  0.2767  0  4.078594  0  0  0.289464  0  4.097518  0  0  0.177394  0.268112  0  4.065883  0
C  C52  1  0.09482555  0.18057567  0.00566168  1  0  0.28755  0  3.80561  0  0  0.276741  0  4.078631  0  0  0.289503  0  4.097547  0  0  0.177461  0.268159  0  4.065924  0
Br  Br53  1  0.33511072  0.30924443  0.32679252  1  0  -0.62877  0  0.786796  0  0  -0.580281  0  1.037226  0  0  -0.598895  0  1.017741  0  0  -0.347333  -0.566517  0  1.050311  0
Br  Br54  1  0.66494112  0.69074563  0.67317486  1  0  -0.628754  0  0.786797  0  0  -0.580251  0  1.037197  0  0  -0.598862  0  1.017711  0  0  -0.347336  -0.566489  0  1.050283  0
N  N55  1  0.21022973  0.02377920  0.59146020  1  0  -0.33062  0  3.284826  0  0  -0.25271  0  3.544588  0  0  -0.27345  0  3.566318  0  0  -0.33076  -0.238621  0  3.529464  0
N  N56  1  0.78976314  0.97622317  0.40854737  1  0  -0.330628  0  3.28469  0  0  -0.252653  0  3.54439  0  0  -0.273394  0  3.566125  0  0  -0.330761  -0.238564  0  3.529266  0
N  N57  1  0.51661637  0.27010064  0.95800054  1  0  -0.380582  0  3.347375  0  0  -0.323001  0  3.585334  0  0  -0.343524  0  3.595934  0  0  -0.387977  -0.309084  0  3.577646  0
N  N58  1  0.48338380  0.72989476  0.04200166  1  0  -0.380632  0  3.347608  0  0  -0.323035  0  3.58559  0  0  -0.343561  0  3.596189  0  0  -0.388003  -0.309118  0  3.5779  0
N  N59  1  0.49312542  0.21333047  0.59675846  1  0  -0.455938  0  2.757507  0  0  -0.414848  0  3.019543  0  0  -0.431876  0  3.026261  0  0  -0.332076  -0.40355  0  3.015063  0
N  N60  1  0.50687447  0.78666915  0.40324364  1  0  -0.456064  0  2.756983  0  0  -0.414974  0  3.019024  0  0  -0.432008  0  3.025742  0  0  -0.332105  -0.403674  0  3.014544  0
N  N61  1  0.02564411  0.68296430  0.03172648  1  0  -0.426948  0  2.557806  0  0  -0.407266  0  2.776414  0  0  -0.41756  0  2.787009  0  0  -0.324736  -0.400447  0  2.769348  0
N  N62  1  0.97435854  0.31702705  0.96826822  1  0  -0.426964  0  2.558123  0  0  -0.407293  0  2.776741  0  0  -0.417583  0  2.787327  0  0  -0.324794  -0.400478  0  2.769679  0
