# generated using pymatgen
data_MnH14C12(NO)4
_symmetry_space_group_name_H-M   'P 1'
_cell_length_a   9.37095711
_cell_length_b   9.52994274
_cell_length_c   9.58688586
_cell_angle_alpha   68.22466687
_cell_angle_beta   87.12088464
_cell_angle_gamma   63.92336429
_symmetry_Int_Tables_number   1
_chemical_formula_structural   MnH14C12(NO)4
_chemical_formula_sum   'Mn2 H28 C24 N8 O8'
_cell_volume   707.56686690
_cell_formula_units_Z   2
loop_
 _symmetry_equiv_pos_site_id
 _symmetry_equiv_pos_as_xyz
  1  'x, y, z'
loop_
 _atom_site_type_symbol
 _atom_site_label
 _atom_site_symmetry_multiplicity
 _atom_site_fract_x
 _atom_site_fract_y
 _atom_site_fract_z
 _atom_site_occupancy
 _atom_site_hle17_ddec_charge
 _atom_site_hle17_ddec_spin_density
 _atom_site_hle17_ddec_sum_bond_order
 _atom_site_hle17_magmom
 _atom_site_hse06_10hf_ddec_charge
 _atom_site_hse06_10hf_ddec_spin_density
 _atom_site_hse06_10hf_ddec_sum_bond_order
 _atom_site_hse06_10hf_magmom
 _atom_site_hse06_ddec_charge
 _atom_site_hse06_ddec_spin_density
 _atom_site_hse06_ddec_sum_bond_order
 _atom_site_hse06_magmom
 _atom_site_pbe_cm5_charge
 _atom_site_pbe_ddec_charge
 _atom_site_pbe_ddec_spin_density
 _atom_site_pbe_ddec_sum_bond_order
 _atom_site_pbe_magmom
Mn  Mn0  1  0.16757525  0.49798347  0.24277665  1  1.058533  4.790074  1.896629  4.668  0.892887  4.709115  2.402096  4.525  0.95068  4.756133  2.337476  4.588  0.577847  0.846729  4.659582  2.449332  4.463
Mn  Mn1  1  0.83242539  0.50201017  0.75723921  1  1.058418  -4.790077  1.896723  -4.668  0.892793  -4.709104  2.4023  -4.525  0.950585  -4.756123  2.337685  -4.588  0.577727  0.846638  -4.659561  2.449536  -4.463
H  H2  1  0.85922193  0.16209569  0.50307832  1  0.069084  6e-05  0.933652  0.0  0.087244  7.7e-05  0.992455  0.0  0.087625  7.4e-05  0.994004  0.0  0.090003  0.087167  6.3e-05  0.990722  0.0
H  H3  1  0.14078243  0.83790931  0.49691856  1  0.069051  -6.2e-05  0.93361  0.0  0.087228  -7.7e-05  0.99242  0.0  0.087615  -7.5e-05  0.993962  0.0  0.090008  0.08715  -6.3e-05  0.990686  0.0
H  H4  1  0.94719000  0.14085069  0.33968553  1  0.08305  -8.2e-05  0.945112  0.0  0.097301  -9.6e-05  1.010966  0.0  0.09905  -0.000114  1.010349  0.0  0.093673  0.095718  -8.1e-05  1.011889  0.0
H  H5  1  0.05281541  0.85915684  0.66031036  1  0.083123  8.5e-05  0.945077  0.0  0.097367  9.6e-05  1.010939  0.0  0.099115  0.000114  1.010324  0.0  0.093694  0.095782  8e-05  1.011862  0.0
H  H6  1  0.66371331  0.94649026  0.08339178  1  0.075195  -7.5e-05  0.951004  0.0  0.089901  -8.1e-05  1.01881  0.0  0.090664  -9.9e-05  1.019449  0.0  0.092095  0.089069  -7.2e-05  1.019114  0.0
H  H7  1  0.33628679  0.05351473  0.91660321  1  0.075156  8.3e-05  0.950967  0.0  0.089914  8.1e-05  1.018777  0.0  0.090667  0.0001  1.01941  0.0  0.0921  0.089081  7.2e-05  1.019082  0.0
H  H8  1  0.60864278  0.80878172  0.04506644  1  0.069379  1.6e-05  0.936836  0.0  0.088607  8e-06  0.996498  0.0  0.088845  1.2e-05  0.997602  0.0  0.091163  0.088483  3.1e-05  0.995519  0.0
H  H9  1  0.39136001  0.19122451  0.95492275  1  0.069329  -2e-06  0.93676  0.0  0.088585  -8e-06  0.996476  0.0  0.088816  -1.2e-05  0.997573  0.0  0.091157  0.088465  -3.1e-05  0.995486  0.0
H  H10  1  0.87577087  0.90052676  0.37966462  1  0.081871  -4.3e-05  0.933527  0.0  0.096176  3.8e-05  0.998453  0.0  0.096736  1.1e-05  0.998579  0.0  0.111808  0.095633  5.6e-05  0.998247  0.0
H  H11  1  0.12423672  0.09947571  0.62033305  1  0.081905  4.8e-05  0.933546  0.0  0.09618  -3.9e-05  0.998463  0.0  0.096741  -1.2e-05  0.998591  0.0  0.11181  0.095635  -5.6e-05  0.998261  0.0
H  H12  1  0.77994649  0.93474918  0.53551198  1  0.087631  0.000162  0.913462  0.0  0.103792  0.000206  0.974714  0.0  0.104545  0.000218  0.9746  0.0  0.116086  0.102729  0.000199  0.975465  0.0
H  H13  1  0.22005948  0.06525455  0.46448633  1  0.08755  -0.000172  0.913516  0.0  0.10369  -0.000206  0.974765  0.0  0.104443  -0.000218  0.974652  0.0  0.11604  0.102628  -0.000199  0.975516  0.0
H  H14  1  0.49382916  0.57731493  0.29382019  1  0.096972  -0.00025  0.923387  0.0  0.109236  9.1e-05  0.97981  0.0  0.11186  1.1e-05  0.977138  0.0  0.138995  0.107207  0.000162  0.981741  0.0
H  H15  1  0.50616292  0.42268880  0.70617877  1  0.096974  0.000248  0.923456  0.0  0.109263  -9.1e-05  0.979843  0.0  0.111886  -1.1e-05  0.977173  0.0  0.139014  0.107235  -0.000162  0.98177  0.0
H  H16  1  0.58734319  0.79428821  0.31009425  1  0.090384  0.000178  0.948948  0.0  0.101025  0.000236  1.01762  0.0  0.103611  0.000257  1.01481  0.0  0.109561  0.098649  0.000205  1.020309  0.0
H  H17  1  0.41265165  0.20571167  0.68989349  1  0.090308  -0.000198  0.948977  0.0  0.100978  -0.000237  1.017599  0.0  0.103563  -0.000258  1.014792  0.0  0.109539  0.098596  -0.000206  1.020301  0.0
H  H18  1  0.44189738  0.01215731  0.24045243  1  0.075771  -0.000102  0.933732  0.0  0.090512  -5.9e-05  0.999384  0.0  0.090815  -9.9e-05  1.000353  0.0  0.109231  0.090243  -9.5e-05  0.998681  0.0
H  H19  1  0.55810170  0.98784259  0.75954137  1  0.075753  0.000111  0.933791  0.0  0.090486  5.9e-05  0.999424  0.0  0.090789  9.8e-05  1.000393  0.0  0.109217  0.090217  9.5e-05  0.998718  0.0
H  H20  1  0.75804159  0.18142605  0.10931932  1  0.127288  0.000459  0.95487  0.0  0.135687  0.000562  1.017922  0.0  0.138777  0.000517  1.016295  0.0  0.126679  0.133166  0.000642  1.019537  0.0
H  H21  1  0.24195855  0.81857386  0.89067651  1  0.127268  -0.000464  0.954856  0.0  0.135646  -0.000562  1.017945  0.0  0.138736  -0.000517  1.016317  0.0  0.126675  0.133126  -0.000642  1.019561  0.0
H  H22  1  0.00121687  0.90168893  0.14467313  1  0.102008  2e-06  0.963663  0.0  0.110382  0.000281  1.027554  0.0  0.112698  0.000188  1.026979  0.0  0.118986  0.108195  0.000369  1.028994  0.0
H  H23  1  0.99877519  0.09831482  0.85533104  1  0.102027  1.1e-05  0.963614  0.0  0.110439  -0.000281  1.02745  0.0  0.11274  -0.000188  1.026895  0.0  0.119027  0.108271  -0.000369  1.02887  0.0
H  H24  1  0.49274655  0.15738076  0.48142034  1  0.093139  -0.000403  0.967226  0.0  0.096839  -0.000143  1.045072  0.0  0.099766  -0.000191  1.041483  0.0  0.133493  0.094857  -6.7e-05  1.047328  0.0
H  H25  1  0.50726054  0.84261790  0.51857876  1  0.093111  0.000395  0.96724  0.0  0.096834  0.000144  1.045049  0.0  0.099762  0.000191  1.04146  0.0  0.133464  0.094851  6.7e-05  1.047304  0.0
H  H26  1  0.43604972  0.41226101  0.00806945  1  0.09544  6.8e-05  0.973207  0.0  0.103521  0.00042  1.037008  0.0  0.105669  0.000302  1.036812  0.0  0.117234  0.10197  0.000549  1.037071  0.0
H  H27  1  0.56395203  0.58773765  0.99192886  1  0.095432  -7.1e-05  0.97326  0.0  0.103525  -0.000421  1.037037  0.0  0.105674  -0.000302  1.036841  0.0  0.117244  0.101974  -0.000549  1.037099  0.0
H  H28  1  0.15512395  0.09621473  0.13695180  1  0.128614  0.000467  0.982789  0.0  0.13441  0.00069  1.048582  0.0  0.13809  0.00054  1.046059  0.0  0.123364  0.131735  0.000452  1.05051  0.0
H  H29  1  0.84487353  0.90378644  0.86303951  1  0.128588  -0.000465  0.98274  0.0  0.13438  -0.00069  1.048539  0.0  0.138063  -0.00054  1.046011  0.0  0.123342  0.131653  -0.000452  1.050525  0.0
C  C30  1  0.00298706  0.58304130  0.94579993  1  0.520394  0.000694  3.934363  0.001  0.482129  0.001117  4.218923  0.001  0.511647  0.000843  4.213502  0.001  0.206717  0.461718  0.001356  4.220962  0.001
C  C31  1  0.99702855  0.41694227  0.05423462  1  0.520404  -0.000692  3.934311  -0.001  0.482199  -0.001122  4.218813  -0.001  0.511714  -0.000845  4.21339  -0.001  0.206659  0.461782  -0.001359  4.220868  -0.001
C  C32  1  0.92186622  0.07049257  0.44994462  1  -0.132823  -2.9e-05  3.69545  0.0  -0.171966  9.1e-05  3.956649  0.0  -0.174296  4.9e-05  3.97144  0.0  -0.165857  -0.170246  0.000195  3.946271  0.0
C  C33  1  0.07813761  0.92951369  0.55004973  1  -0.132892  1.6e-05  3.695451  0.0  -0.172066  -8.9e-05  3.956612  0.0  -0.1744  -5.1e-05  3.971406  0.0  -0.165909  -0.170347  -0.000195  3.946239  0.0
C  C34  1  0.56029689  0.92572201  0.06716294  1  -0.130946  -6.9e-05  3.697228  0.0  -0.172903  1e-05  3.959512  0.0  -0.174438  -2.6e-05  3.974327  0.0  -0.167563  -0.17162  0.000114  3.949356  0.0
C  C35  1  0.43970376  0.07428170  0.93283042  1  -0.130639  2.1e-05  3.696975  0.0  -0.172828  -8e-06  3.959386  0.0  -0.174298  2.2e-05  3.974152  0.0  -0.167546  -0.171539  -0.000114  3.949227  0.0
C  C36  1  0.81394720  0.99697374  0.42730655  1  0.0015  0.000648  3.620332  0.0  -0.062323  0.000777  3.882245  0.0  -0.057738  0.000629  3.893272  0.0  -0.051126  -0.065007  0.001015  3.874532  0.001
C  C37  1  0.18605610  0.00303125  0.57268830  1  0.001528  -0.000629  3.620319  0.0  -0.062179  -0.000777  3.882063  0.0  -0.057601  -0.000626  3.893104  0.0  -0.051064  -0.064864  -0.001016  3.874352  -0.001
C  C38  1  0.92290832  0.57703324  0.44713928  1  0.523595  -0.000601  3.932935  -0.001  0.484172  -0.001098  4.21924  -0.001  0.513961  -0.000759  4.213767  -0.001  0.209329  0.46397  -0.001201  4.220542  -0.001
C  C39  1  0.07709989  0.42295781  0.55286259  1  0.523111  0.000613  3.933234  0.001  0.483751  0.001094  4.21949  0.001  0.51354  0.000756  4.214023  0.001  0.209286  0.463549  0.001197  4.220789  0.001
C  C40  1  0.37925758  0.69015189  0.25219408  1  0.145446  0.004653  3.676221  0.005  0.08727  0.006881  3.943432  0.007  0.099797  0.005837  3.957509  0.006  0.13981  0.079019  0.008301  3.932808  0.008
C  C41  1  0.62073134  0.30984929  0.74780076  1  0.145444  -0.004673  3.675925  -0.005  0.087249  -0.006881  3.94315  -0.007  0.099775  -0.00583  3.957226  -0.006  0.139861  0.079  -0.008302  3.932527  -0.008
C  C42  1  0.49170371  0.89592922  0.21745656  1  -0.008773  0.000497  3.613788  0.0  -0.07054  0.000633  3.874198  0.0  -0.066503  0.000479  3.884637  0.0  -0.056516  -0.07299  0.000763  3.867183  0.001
C  C43  1  0.50829163  0.10407194  0.78253486  1  -0.008873  -0.000469  3.61392  0.0  -0.070556  -0.000633  3.874222  0.0  -0.066536  -0.000474  3.884654  0.0  -0.056501  -0.073006  -0.000764  3.867203  -0.001
C  C44  1  0.65452311  0.20810129  0.16959495  1  -0.057343  -0.000267  3.64681  0.0  -0.096627  0.000584  3.900748  0.0  -0.094455  8.2e-05  3.918597  0.0  0.006011  -0.097667  0.000947  3.8889  0.001
C  C45  1  0.34547809  0.79189863  0.83040292  1  -0.057248  0.000291  3.646715  0.0  -0.096525  -0.000585  3.900675  0.0  -0.094355  -7.8e-05  3.918525  0.0  0.006033  -0.097568  -0.000946  3.888828  -0.001
C  C46  1  0.12646184  0.86338117  0.17485392  1  -0.008075  0.002027  3.75923  0.002  -0.039812  0.003899  4.029359  0.004  -0.038478  0.00321  4.049331  0.003  -0.001277  -0.04121  0.004204  4.016465  0.004
C  C47  1  0.87352864  0.13662130  0.82514663  1  -0.008137  -0.00213  3.759188  -0.003  -0.039879  -0.003899  4.029331  -0.004  -0.038532  -0.003212  4.049312  -0.003  -0.001327  -0.041293  -0.004204  4.016423  -0.004
C  C48  1  0.51875819  0.19554659  0.36570087  1  0.140446  0.005724  3.674271  0.006  0.081523  0.008169  3.943105  0.008  0.094323  0.006963  3.956212  0.007  0.13841  0.072693  0.009732  3.93408  0.009
C  C49  1  0.48124351  0.80445714  0.63429661  1  0.140367  -0.005682  3.674333  -0.006  0.08143  -0.008172  3.943165  -0.008  0.09423  -0.006964  3.95627  -0.007  0.138376  0.072603  -0.009733  3.934136  -0.009
C  C50  1  0.49551845  0.32331672  0.12149013  1  -0.012738  0.002474  3.775966  0.003  -0.043436  0.004467  4.046223  0.004  -0.042418  0.003653  4.066621  0.004  -0.00154  -0.044841  0.005334  4.032297  0.005
C  C51  1  0.50448437  0.67668193  0.87850813  1  -0.012808  -0.002475  3.776058  -0.003  -0.043509  -0.004469  4.046309  -0.004  -0.042492  -0.003656  4.066705  -0.004  -0.001576  -0.044913  -0.005337  4.032381  -0.005
C  C52  1  0.20145387  0.96093028  0.16846499  1  -0.06498  -0.000536  3.660437  0.0  -0.102749  0.000331  3.916968  0.0  -0.100871  -0.000143  3.934547  0.0  0.002711  -0.103764  0.000764  3.905108  0.001
C  C53  1  0.79854144  0.03907595  0.83152247  1  -0.064959  0.000597  3.660504  0.0  -0.102722  -0.00033  3.917022  0.0  -0.100848  0.000146  3.9346  0.0  0.002743  -0.103694  -0.000763  3.905201  -0.001
N  N54  1  0.66675559  0.12720372  0.32477401  1  -0.055951  0.001474  3.578415  0.002  0.03975  0.003102  3.794095  0.003  0.025561  0.002407  3.820528  0.003  -0.240792  0.049062  0.003751  3.776166  0.004
N  N55  1  0.33324772  0.87279874  0.67522386  1  -0.0559  -0.001498  3.578376  -0.002  0.03978  -0.0031  3.794032  -0.003  0.025595  -0.002412  3.820466  -0.003  -0.240771  0.049092  -0.003752  3.776101  -0.004
N  N56  1  0.23834248  0.69466047  0.22732488  1  -0.383388  0.028165  3.260817  0.012  -0.319282  0.033159  3.559237  0.011  -0.33925  0.02988  3.574029  0.009  -0.348729  -0.304384  0.036293  3.548069  0.014
N  N57  1  0.76164693  0.30534201  0.77267780  1  -0.383479  -0.028112  3.260378  -0.012  -0.319405  -0.033161  3.558841  -0.011  -0.339368  -0.029882  3.573624  -0.009  -0.348833  -0.304511  -0.036294  3.547685  -0.014
N  N58  1  0.41206594  0.31500708  0.24469521  1  -0.383467  0.028688  3.266368  0.011  -0.319399  0.033957  3.566141  0.01  -0.339279  0.030458  3.580017  0.008  -0.354116  -0.305027  0.037068  3.556726  0.012
N  N59  1  0.58793631  0.68499537  0.75530166  1  -0.383365  -0.028705  3.266329  -0.011  -0.319298  -0.033957  3.566105  -0.01  -0.339176  -0.030457  3.57998  -0.008  -0.354068  -0.30493  -0.037068  3.556691  -0.012
N  N60  1  0.36196573  0.84920529  0.21819308  1  -0.06854  0.001229  3.572936  0.001  0.026793  0.00248  3.790856  0.002  0.01207  0.001951  3.818347  0.002  -0.245538  0.036566  0.00326  3.771243  0.003
N  N61  1  0.63803069  0.15079587  0.78179724  1  -0.068393  -0.001235  3.573137  -0.001  0.026928  -0.00248  3.791013  -0.002  0.012206  -0.001956  3.818509  -0.002  -0.245535  0.036701  -0.00326  3.771387  -0.003
O  O62  1  0.07933999  0.63763977  0.99967619  1  -0.590333  0.027537  2.035726  0.018  -0.534355  0.032177  2.289164  0.019  -0.561554  0.029709  2.278562  0.017  -0.306738  -0.513972  0.034881  2.295952  0.021
O  O63  1  0.92066988  0.36233738  0.00034431  1  -0.590442  -0.02753  2.03515  -0.018  -0.534502  -0.032174  2.288575  -0.019  -0.561705  -0.029705  2.277975  -0.017  -0.306809  -0.51412  -0.03488  2.295376  -0.021
O  O64  1  0.79863106  0.63078480  0.50993751  1  -0.600517  -0.028786  2.06124  -0.019  -0.545189  -0.033793  2.320233  -0.02  -0.573304  -0.031191  2.309706  -0.018  -0.306683  -0.523785  -0.036374  2.32614  -0.022
O  O65  1  0.20135988  0.36921900  0.49007817  1  -0.600397  0.028768  2.062009  0.019  -0.544958  0.03379  2.320821  0.02  -0.573057  0.03119  2.310274  0.018  -0.306645  -0.523564  0.036369  2.326741  0.022
O  O66  1  0.93265826  0.63804162  0.30725376  1  -0.579076  0.02597  2.030033  0.018  -0.523932  0.029555  2.276752  0.018  -0.550856  0.027223  2.267159  0.016  -0.302835  -0.503744  0.031407  2.282628  0.02
O  O67  1  0.06733556  0.36193555  0.69277061  1  -0.578956  -0.025967  2.029609  -0.018  -0.523893  -0.029556  2.276354  -0.018  -0.550826  -0.027228  2.266767  -0.016  -0.302853  -0.503694  -0.031411  2.282217  -0.02
O  O68  1  0.92998974  0.65271494  0.81229716  1  -0.588622  -0.025748  2.04218  -0.017  -0.536533  -0.029949  2.293645  -0.018  -0.563254  -0.027545  2.283476  -0.016  -0.303787  -0.516198  -0.032131  2.299582  -0.02
O  O69  1  0.07001470  0.34727237  0.18772088  1  -0.588525  0.025744  2.042742  0.017  -0.536438  0.029953  2.294178  0.018  -0.563155  0.027545  2.284009  0.016  -0.303686  -0.516112  0.032132  2.300135  0.02
