# generated using pymatgen
data_HgH22C20I2N3O2
_symmetry_space_group_name_H-M   'P 1'
_cell_length_a   7.98908374
_cell_length_b   9.64088615
_cell_length_c   15.62562005
_cell_angle_alpha   87.04501281
_cell_angle_beta   86.99494808
_cell_angle_gamma   68.71484095
_symmetry_Int_Tables_number   1
_chemical_formula_structural   HgH22C20I2N3O2
_chemical_formula_sum   'Hg2 H44 C40 I4 N6 O4'
_cell_volume   1119.19053387
_cell_formula_units_Z   2
loop_
 _symmetry_equiv_pos_site_id
 _symmetry_equiv_pos_as_xyz
  1  'x, y, z'
loop_
 _atom_site_type_symbol
 _atom_site_label
 _atom_site_symmetry_multiplicity
 _atom_site_fract_x
 _atom_site_fract_y
 _atom_site_fract_z
 _atom_site_occupancy
 _atom_site_hle17_bader_spin_density
 _atom_site_hle17_ddec_charge
 _atom_site_hle17_ddec_spin_density
 _atom_site_hle17_ddec_sum_bond_order
 _atom_site_hle17_magmom
 _atom_site_hse06_10hf_bader_spin_density
 _atom_site_hse06_10hf_ddec_charge
 _atom_site_hse06_10hf_ddec_spin_density
 _atom_site_hse06_10hf_ddec_sum_bond_order
 _atom_site_hse06_10hf_magmom
 _atom_site_hse06_bader_spin_density
 _atom_site_hse06_ddec_charge
 _atom_site_hse06_ddec_spin_density
 _atom_site_hse06_ddec_sum_bond_order
 _atom_site_hse06_magmom
 _atom_site_pbe_bader_spin_density
 _atom_site_pbe_cm5_charge
 _atom_site_pbe_ddec_charge
 _atom_site_pbe_ddec_spin_density
 _atom_site_pbe_ddec_sum_bond_order
 _atom_site_pbe_magmom
Hg  Hg0  1  0.88772868  0.03683104  0.73630796  1  0  0.609217  0  2.045803  0  0  0.478918  0  2.524663  0  0  0.526416  0  2.496631  0  0  0.417743  0.446683  0  2.545328  0
Hg  Hg1  1  0.11226474  0.96316711  0.26369206  1  0  0.609315  0  2.045733  0  0  0.47903  0  2.52458  0  0  0.526471  0  2.496579  0  0  0.417746  0.446714  0  2.545483  0
H  H2  1  0.19190104  0.72012236  0.77393200  1  0  0.06329  0  0.984829  0  0  0.071031  0  1.054449  0  0  0.073362  0  1.052617  0  0  0.095513  0.06903  0  1.056244  0
H  H3  1  0.80810764  0.27987825  0.22607063  1  0  0.063286  0  0.984862  0  0  0.07104  0  1.054477  0  0  0.07336  0  1.052652  0  0  0.095471  0.069045  0  1.056274  0
H  H4  1  0.32036015  0.51959011  0.88367267  1  0  0.099068  0  0.981626  0  0  0.110682  0  1.04306  0  0  0.114156  0  1.04156  0  0  0.093588  0.108485  0  1.043559  0
H  H5  1  0.67964805  0.48041724  0.11633163  1  0  0.099053  0  0.981532  0  0  0.110634  0  1.04302  0  0  0.114102  0  1.041529  0  0  0.093551  0.108433  0  1.043543  0
H  H6  1  0.94026829  0.79648063  0.06858808  1  0  0.112897  0  0.97193  0  0  0.122166  0  1.034676  0  0  0.125786  0  1.033158  0  0  0.103698  0.119593  0  1.035918  0
H  H7  1  0.05972563  0.20352201  0.93141239  1  0  0.112887  0  0.97196  0  0  0.122175  0  1.034669  0  0  0.125789  0  1.033158  0  0  0.103716  0.119601  0  1.035879  0
H  H8  1  0.82130072  0.98564773  0.94783445  1  0  0.063393  0  0.970282  0  0  0.069752  0  1.043497  0  0  0.071956  0  1.041604  0  0  0.10105  0.068592  0  1.043622  0
H  H9  1  0.17869667  0.01435269  0.05216407  1  0  0.063406  0  0.970289  0  0  0.069753  0  1.043506  0  0  0.071966  0  1.041601  0  0  0.101059  0.068599  0  1.043619  0
H  H10  1  0.13123557  0.55747648  0.11766388  1  0  0.095154  0  0.959861  0  0  0.105117  0  1.025503  0  0  0.108611  0  1.022779  0  0  0.096534  0.101942  0  1.028952  0
H  H11  1  0.86876388  0.44252514  0.88233901  1  0  0.095082  0  0.960107  0  0  0.10507  0  1.025731  0  0  0.108576  0  1.022986  0  0  0.096503  0.101889  0  1.029171  0
H  H12  1  0.39344530  0.36267206  0.98143474  1  0  0.079084  0  0.983222  0  0  0.090499  0  1.049002  0  0  0.093564  0  1.047201  0  0  0.08918  0.088179  0  1.050545  0
H  H13  1  0.60656036  0.63732960  0.01856603  1  0  0.07912  0  0.983274  0  0  0.090531  0  1.049051  0  0  0.093586  0  1.047258  0  0  0.089184  0.088203  0  1.050619  0
H  H14  1  0.56776718  0.12538787  0.01613024  1  0  0.085921  0  0.973556  0  0  0.09336  0  1.043646  0  0  0.096895  0  1.041859  0  0  0.092563  0.090956  0  1.044762  0
H  H15  1  0.43221349  0.87460226  0.98386731  1  0  0.085843  0  0.973718  0  0  0.093359  0  1.0437  0  0  0.09688  0  1.04194  0  0  0.092558  0.090961  0  1.044814  0
H  H16  1  0.69828932  0.91516315  0.12059034  1  0  0.095673  0  0.980263  0  0  0.103836  0  1.045289  0  0  0.107459  0  1.042234  0  0  0.100147  0.101612  0  1.046748  0
H  H17  1  0.30167839  0.08482236  0.87940845  1  0  0.095639  0  0.980311  0  0  0.10374  0  1.045409  0  0  0.107352  0  1.042374  0  0  0.100134  0.101533  0  1.046843  0
H  H18  1  0.37853752  0.18406401  0.32405498  1  0  0.100913  0  0.970373  0  0  0.1105  0  1.033622  0  0  0.113743  0  1.0316  0  0  0.102468  0.108353  0  1.034881  0
H  H19  1  0.62148112  0.81594230  0.67594646  1  0  0.10102  0  0.970344  0  0  0.110573  0  1.033614  0  0  0.113814  0  1.031595  0  0  0.102508  0.108419  0  1.034877  0
H  H20  1  0.25301105  0.39436632  0.22096674  1  0  0.090434  0  0.963662  0  0  0.102121  0  1.025027  0  0  0.105388  0  1.023275  0  0  0.098494  0.100785  0  1.023907  0
H  H21  1  0.74701806  0.60564458  0.77903483  1  0  0.090482  0  0.963782  0  0  0.102178  0  1.025082  0  0  0.105435  0  1.023339  0  0  0.098505  0.100836  0  1.02397  0
H  H22  1  0.74516002  0.88377193  0.48651499  1  0  0.117483  0  0.983307  0  0  0.127727  0  1.061352  0  0  0.130304  0  1.0603  0  0  0.080931  0.125955  0  1.061897  0
H  H23  1  0.25484655  0.11621421  0.51349531  1  0  0.117491  0  0.983377  0  0  0.127719  0  1.061413  0  0  0.130304  0  1.060342  0  0  0.080896  0.125948  0  1.061969  0
H  H24  1  0.76348330  0.70888548  0.53673399  1  0  0.109893  0  0.942807  0  0  0.136488  0  0.996141  0  0  0.137347  0  0.996685  0  0  0.090878  0.135494  0  0.996292  0
H  H25  1  0.23651589  0.29109145  0.46326539  1  0  0.109855  0  0.942838  0  0  0.136432  0  0.996162  0  0  0.137298  0  0.996701  0  0  0.090878  0.135478  0  0.996267  0
H  H26  1  0.54907175  0.85384059  0.52806681  1  0  0.121868  0  0.950814  0  0  0.137411  0  1.01896  0  0  0.139694  0  1.018205  0  0  0.090947  0.135843  0  1.019288  0
H  H27  1  0.45093201  0.14613760  0.47193877  1  0  0.121734  0  0.950863  0  0  0.137346  0  1.018931  0  0  0.139628  0  1.018181  0  0  0.09092  0.135765  0  1.0193  0
H  H28  1  0.42809506  0.69155506  0.46870715  1  0  0.118371  0  0.952755  0  0  0.13669  0  1.017335  0  0  0.139251  0  1.015797  0  0  0.088297  0.134686  0  1.018702  0
H  H29  1  0.57190160  0.30844425  0.53129272  1  0  0.118327  0  0.9528  0  0  0.136663  0  1.017369  0  0  0.139242  0  1.015807  0  0  0.088298  0.134661  0  1.018743  0
H  H30  1  0.63462287  0.53622677  0.46347167  1  0  0.115217  0  0.940506  0  0  0.141755  0  0.99173  0  0  0.142565  0  0.992762  0  0  0.093912  0.140747  0  0.991791  0
H  H31  1  0.36537393  0.46376906  0.53652001  1  0  0.115208  0  0.940438  0  0  0.141755  0  0.991669  0  0  0.142566  0  0.992701  0  0  0.09393  0.140767  0  0.991713  0
H  H32  1  0.50681231  0.60264399  0.36967767  1  0  0.109959  0  0.967862  0  0  0.126728  0  1.034681  0  0  0.128849  0  1.033857  0  0  0.084522  0.125004  0  1.035343  0
H  H33  1  0.49317977  0.39737088  0.63031790  1  0  0.109994  0  0.967769  0  0  0.126784  0  1.034583  0  0  0.128894  0  1.033769  0  0  0.084518  0.125058  0  1.035244  0
H  H34  1  0.10922780  0.62504710  0.34345568  1  0  0.114696  0  0.955195  0  0  0.1309  0  1.022689  0  0  0.13348  0  1.020983  0  0  0.088155  0.129014  0  1.023576  0
H  H35  1  0.89076621  0.37497446  0.65653637  1  0  0.114634  0  0.955199  0  0  0.13089  0  1.022669  0  0  0.133472  0  1.020962  0  0  0.088108  0.128973  0  1.023594  0
H  H36  1  0.02602636  0.56188872  0.43971810  1  0  0.107782  0  0.952037  0  0  0.13205  0  1.008013  0  0  0.133262  0  1.008111  0  0  0.089958  0.131034  0  1.008208  0
H  H37  1  0.97398744  0.43812528  0.56027744  1  0  0.107707  0  0.952119  0  0  0.132037  0  1.008028  0  0  0.13325  0  1.008124  0  0  0.089981  0.131026  0  1.008219  0
H  H38  1  0.99961547  0.75321041  0.42483161  1  0  0.1116  0  0.981928  0  0  0.125259  0  1.055214  0  0  0.127273  0  1.054821  0  0  0.082438  0.12384  0  1.055253  0
H  H39  1  0.00038057  0.24680671  0.57516183  1  0  0.111582  0  0.981931  0  0  0.125243  0  1.05525  0  0  0.127255  0  1.054855  0  0  0.082473  0.123823  0  1.055287  0
H  H40  1  0.94832787  0.51952257  0.25440509  1  0  0.112439  0  0.954098  0  0  0.131001  0  1.019415  0  0  0.133135  0  1.018473  0  0  0.090239  0.129213  0  1.020378  0
H  H41  1  0.05167731  0.48048023  0.74559693  1  0  0.112437  0  0.954159  0  0  0.130978  0  1.019478  0  0  0.133112  0  1.018536  0  0  0.090234  0.129177  0  1.020447  0
H  H42  1  0.71383917  0.55849592  0.26851045  1  0  0.103726  0  0.987552  0  0  0.119627  0  1.057818  0  0  0.12196  0  1.056865  0  0  0.079231  0.117816  0  1.058512  0
H  H43  1  0.28616555  0.44149682  0.73149390  1  0  0.103842  0  0.98748  0  0  0.119718  0  1.057743  0  0  0.122049  0  1.056784  0  0  0.07929  0.117904  0  1.058421  0
H  H44  1  0.86477524  0.44419931  0.34616550  1  0  0.108309  0  0.974255  0  0  0.127246  0  1.040034  0  0  0.128955  0  1.04  0  0  0.081064  0.125021  0  1.041968  0
H  H45  1  0.13523671  0.55580248  0.65383890  1  0  0.108264  0  0.974364  0  0  0.127185  0  1.040153  0  0  0.128887  0  1.040126  0  0  0.08109  0.124954  0  1.04209  0
C  C46  1  0.13775661  0.73086668  0.83994180  1  0  0.121064  0  3.74047  0  0  0.093839  0  3.986012  0  0  0.100785  0  4.006557  0  0  0.035917  0.089442  0  3.97214  0
C  C47  1  0.86224804  0.26913721  0.16005891  1  0  0.120946  0  3.740636  0  0  0.093717  0  3.986151  0  0  0.100667  0  4.006711  0  0  0.035925  0.089312  0  3.972288  0
C  C48  1  0.20852971  0.61972384  0.90190613  1  0  -0.155282  0  3.684009  0  0  -0.167991  0  3.917768  0  0  -0.176604  0  3.939435  0  0  -0.084152  -0.162123  0  3.902399  0
C  C49  1  0.79147993  0.38027450  0.09809400  1  0  -0.15518  0  3.684115  0  0  -0.16784  0  3.917894  0  0  -0.176468  0  3.939571  0  0  -0.084077  -0.16199  0  3.902551  0
C  C50  1  0.13618126  0.63849463  0.98647365  1  0  0.14078  0  3.801972  0  0  0.157286  0  4.029544  0  0  0.163458  0  4.051399  0  0  0.006973  0.153874  0  4.014585  0
C  C51  1  0.86381771  0.36150812  0.01353049  1  0  0.140713  0  3.802299  0  0  0.157215  0  4.0299  0  0  0.16339  0  4.05176  0  0  0.006892  0.153807  0  4.014942  0
C  C52  1  0.99609801  0.77459616  0.00336901  1  0  -0.167559  0  3.685587  0  0  -0.183903  0  3.928336  0  0  -0.192452  0  3.948978  0  0  -0.085966  -0.179044  0  3.913898  0
C  C53  1  0.00390213  0.22540653  0.99662998  1  0  -0.167478  0  3.685523  0  0  -0.183824  0  3.928243  0  0  -0.192353  0  3.948878  0  0  -0.085902  -0.178953  0  3.91379  0
C  C54  1  0.93131085  0.87978010  0.93724323  1  0  0.124227  0  3.736949  0  0  0.095994  0  3.987068  0  0  0.10355  0  4.006871  0  0  0.039406  0.09121  0  3.972487  0
C  C55  1  0.06869254  0.12021816  0.06275582  1  0  0.124187  0  3.736831  0  0  0.095987  0  3.98691  0  0  0.103543  0  4.006701  0  0  0.039409  0.091208  0  3.972319  0
C  C56  1  0.19871481  0.52627466  0.05516456  1  0  -0.109231  0  3.731539  0  0  -0.131918  0  3.984104  0  0  -0.134537  0  4.0032  0  0  -0.092187  -0.130726  0  3.973253  0
C  C57  1  0.80130382  0.47371482  0.94483498  1  0  -0.109174  0  3.731352  0  0  -0.131897  0  3.983954  0  0  -0.134523  0  4.003032  0  0  -0.092143  -0.130705  0  3.973102  0
C  C58  1  0.32995733  0.39133461  0.04511861  1  0  -0.088517  0  3.726792  0  0  -0.10769  0  3.97638  0  0  -0.110238  0  3.997093  0  0  -0.083778  -0.106403  0  3.96338  0
C  C59  1  0.67003488  0.60868039  0.95488527  1  0  -0.088506  0  3.726408  0  0  -0.107655  0  3.976018  0  0  -0.110193  0  3.996741  0  0  -0.083782  -0.10637  0  3.963027  0
C  C60  1  0.40002262  0.27451082  0.11034640  1  0  0.103383  0  3.81065  0  0  0.119617  0  4.041185  0  0  0.122659  0  4.065044  0  0  -0.007805  0.117187  0  4.02488  0
C  C61  1  0.59998326  0.72548746  0.88965257  1  0  0.103323  0  3.810906  0  0  0.119502  0  4.041545  0  0  0.122528  0  4.06541  0  0  -0.007742  0.11707  0  4.025231  0
C  C62  1  0.52766110  0.13759036  0.08403407  1  0  -0.109124  0  3.716133  0  0  -0.124125  0  3.960986  0  0  -0.129792  0  3.982736  0  0  -0.089453  -0.121194  0  3.947729  0
C  C63  1  0.47232837  0.86239994  0.91596831  1  0  -0.109023  0  3.715842  0  0  -0.124052  0  3.960712  0  0  -0.129732  0  3.982489  0  0  -0.089445  -0.121137  0  3.947479  0
C  C64  1  0.60126578  0.02014429  0.14213321  1  0  -0.075535  0  3.744131  0  0  -0.103594  0  3.997928  0  0  -0.102111  0  4.016516  0  0  -0.089581  -0.105501  0  3.98527  0
C  C65  1  0.39871432  0.97984689  0.85785983  1  0  -0.075487  0  3.744356  0  0  -0.103515  0  3.99815  0  0  -0.102023  0  4.016767  0  0  -0.089651  -0.105445  0  3.985545  0
C  C66  1  0.54866076  0.03509637  0.22954970  1  0  -0.003141  0  3.830898  0  0  0.017966  0  4.069122  0  0  0.0137  0  4.091738  0  0  -0.014246  0.022115  0  4.054257  0
C  C67  1  0.45133223  0.96489737  0.77045499  1  0  -0.003374  0  3.831119  0  0  0.01782  0  4.069221  0  0  0.013585  0  4.091808  0  0  -0.014269  0.0219  0  4.054398  0
C  C68  1  0.42076089  0.17146758  0.25672465  1  0  -0.08773  0  3.742611  0  0  -0.11341  0  3.995333  0  0  -0.112923  0  4.014008  0  0  -0.088324  -0.113038  0  3.981871  0
C  C69  1  0.57925166  0.82854080  0.74327051  1  0  -0.087822  0  3.742028  0  0  -0.113499  0  3.994739  0  0  -0.113012  0  4.013414  0  0  -0.088367  -0.113128  0  3.98132  0
C  C70  1  0.34912014  0.28913940  0.19819472  1  0  -0.104816  0  3.70824  0  0  -0.123068  0  3.953772  0  0  -0.127627  0  3.974998  0  0  -0.087512  -0.118  0  3.935489  0
C  C71  1  0.65090805  0.71085138  0.80180958  1  0  -0.104789  0  3.707844  0  0  -0.123004  0  3.953392  0  0  -0.12755  0  3.974624  0  0  -0.087481  -0.117927  0  3.935103  0
C  C72  1  0.62347717  0.90958695  0.28960419  1  0  0.143827  0  3.724451  0  0  0.095958  0  4.010601  0  0  0.107915  0  4.0243  0  0  0.217662  0.087305  0  4.003936  0
C  C73  1  0.37651489  0.09041668  0.71038862  1  0  0.144035  0  3.72424  0  0  0.096028  0  4.010526  0  0  0.108032  0  4.024092  0  0  0.217921  0.087523  0  4.00304  0
C  C74  1  0.65000315  0.74230125  0.41051060  1  0  0.187083  0  3.492168  0  0  0.198959  0  3.727031  0  0  0.201826  0  3.744975  0  0  0.087272  0.196943  0  3.715484  0
C  C75  1  0.34999874  0.25770035  0.58948901  1  0  0.187369  0  3.491635  0  0  0.198878  0  3.727041  0  0  0.201752  0  3.744966  0  0  0.087384  0.196853  0  3.715285  0
C  C76  1  0.82228247  0.68054365  0.35019199  1  0  0.193068  0  3.491524  0  0  0.204762  0  3.72493  0  0  0.20779  0  3.743372  0  0  0.086912  0.20264  0  3.712839  0
C  C77  1  0.17771591  0.31946014  0.64980638  1  0  0.192864  0  3.491782  0  0  0.204664  0  3.725202  0  0  0.207674  0  3.743651  0  0  0.086889  0.202516  0  3.712925  0
C  C78  1  0.68044684  0.80121408  0.49547828  1  0  -0.358514  0  3.649703  0  0  -0.441549  0  3.891152  0  0  -0.444842  0  3.900218  0  0  -0.247233  -0.438883  0  3.884726  0
C  C79  1  0.31955463  0.19877189  0.50452452  1  0  -0.358407  0  3.649515  0  0  -0.441398  0  3.890999  0  0  -0.444672  0  3.90004  0  0  -0.247203  -0.438742  0  3.884565  0
C  C80  1  0.54850225  0.63614566  0.42852105  1  0  -0.348314  0  3.659395  0  0  -0.430028  0  3.893765  0  0  -0.432888  0  3.902169  0  0  -0.243464  -0.427549  0  3.88844  0
C  C81  1  0.45149288  0.36385696  0.57147682  1  0  -0.348385  0  3.659199  0  0  -0.430091  0  3.893724  0  0  -0.432951  0  3.902106  0  0  -0.243467  -0.427613  0  3.888353  0
C  C82  1  0.99972413  0.65497539  0.39249792  1  0  -0.353626  0  3.66179  0  0  -0.434685  0  3.897951  0  0  -0.437487  0  3.906026  0  0  -0.246276  -0.431998  0  3.891778  0
C  C83  1  0.00027467  0.34503842  0.60749620  1  0  -0.353364  0  3.66197  0  0  -0.434546  0  3.898048  0  0  -0.437344  0  3.90612  0  0  -0.246213  -0.431832  0  3.891867  0
C  C84  1  0.83701392  0.54183849  0.30220650  1  0  -0.357904  0  3.665974  0  0  -0.438383  0  3.900332  0  0  -0.442341  0  3.909763  0  0  -0.248643  -0.435165  0  3.89446  0
C  C85  1  0.16299079  0.45815985  0.69779763  1  0  -0.357985  0  3.666083  0  0  -0.438393  0  3.900441  0  0  -0.442319  0  3.909866  0  0  -0.248737  -0.435131  0  3.894518  0
I  I86  1  0.63158423  0.26271778  0.81967592  1  0  -0.351084  0  1.179089  0  0  -0.313123  0  1.524685  0  0  -0.331825  0  1.506922  0  0  -0.137898  -0.29873  0  1.534964  0
I  I87  1  0.36841365  0.73728151  0.18032200  1  0  -0.351076  0  1.179084  0  0  -0.313099  0  1.524697  0  0  -0.331823  0  1.506926  0  0  -0.137895  -0.298712  0  1.535041  0
I  I88  1  0.11533166  0.88213174  0.61043449  1  0  -0.326046  0  1.103779  0  0  -0.284296  0  1.428003  0  0  -0.301991  0  1.409466  0  0  -0.147398  -0.272439  0  1.442622  0
I  I89  1  0.88465027  0.11786401  0.38956408  1  0  -0.326044  0  1.103748  0  0  -0.284295  0  1.427998  0  0  -0.302008  0  1.409474  0  0  -0.1474  -0.272446  0  1.442687  0
N  N90  1  0.53439212  0.87547944  0.35896239  1  0  0.137267  0  3.550094  0  0  0.183571  0  3.824558  0  0  0.183714  0  3.842187  0  0  -0.112416  0.182609  0  3.813584  0
N  N91  1  0.46560166  0.12452107  0.64104520  1  0  0.13686  0  3.550289  0  0  0.183376  0  3.824893  0  0  0.183706  0  3.842356  0  0  -0.112615  0.182666  0  3.813084  0
N  N92  1  0.78996213  0.80439047  0.28312786  1  0  0.131294  0  3.548492  0  0  0.178373  0  3.824408  0  0  0.177557  0  3.843492  0  0  -0.118256  0.178124  0  3.812895  0
N  N93  1  0.21003173  0.19560650  0.71686772  1  0  0.130829  0  3.548624  0  0  0.177962  0  3.824563  0  0  0.177449  0  3.843522  0  0  -0.118463  0.178077  0  3.812313  0
N  N94  1  0.99981854  0.85805096  0.85657539  1  0  -0.300811  0  3.266199  0  0  -0.224103  0  3.527433  0  0  -0.245466  0  3.550538  0  0  -0.317529  -0.209697  0  3.511561  0
N  N95  1  0.00018214  0.14195066  0.14342618  1  0  -0.300805  0  3.266232  0  0  -0.224117  0  3.52747  0  0  -0.245499  0  3.550591  0  0  -0.317564  -0.209704  0  3.5116  0
O  O96  1  0.36981526  0.94590702  0.38146959  1  0  -0.401759  0  1.827931  0  0  -0.363711  0  2.068113  0  0  -0.381765  0  2.071435  0  0  -0.171699  -0.351356  0  2.066259  0
O  O97  1  0.63018069  0.05409679  0.61853269  1  0  -0.402111  0  1.827864  0  0  -0.36389  0  2.068043  0  0  -0.381811  0  2.071236  0  0  -0.171707  -0.351297  0  2.065694  0
O  O98  1  0.91253101  0.80073976  0.22544280  1  0  -0.428734  0  1.828563  0  0  -0.391002  0  2.070926  0  0  -0.411371  0  2.072937  0  0  -0.191865  -0.377549  0  2.069923  0
O  O99  1  0.08745233  0.19926380  0.77455157  1  0  -0.428976  0  1.82851  0  0  -0.391473  0  2.070957  0  0  -0.411442  0  2.072887  0  0  -0.191858  -0.3775  0  2.069459  0
