# generated using pymatgen
data_HgH8(C7N)2
_symmetry_space_group_name_H-M   'P 1'
_cell_length_a   4.10517732
_cell_length_b   10.80868633
_cell_length_c   26.52496469
_cell_angle_alpha   89.99993895
_cell_angle_beta   90.00015619
_cell_angle_gamma   93.47296853
_symmetry_Int_Tables_number   1
_chemical_formula_structural   HgH8(C7N)2
_chemical_formula_sum   'Hg4 H32 C56 N8'
_cell_volume   1174.79294169
_cell_formula_units_Z   4
loop_
 _symmetry_equiv_pos_site_id
 _symmetry_equiv_pos_as_xyz
  1  'x, y, z'
loop_
 _atom_site_type_symbol
 _atom_site_label
 _atom_site_symmetry_multiplicity
 _atom_site_fract_x
 _atom_site_fract_y
 _atom_site_fract_z
 _atom_site_occupancy
 _atom_site_hle17_bader_spin_density
 _atom_site_hle17_ddec_charge
 _atom_site_hle17_ddec_spin_density
 _atom_site_hle17_ddec_sum_bond_order
 _atom_site_hle17_magmom
 _atom_site_hse06_10hf_bader_spin_density
 _atom_site_hse06_10hf_ddec_charge
 _atom_site_hse06_10hf_ddec_spin_density
 _atom_site_hse06_10hf_ddec_sum_bond_order
 _atom_site_hse06_10hf_magmom
 _atom_site_hse06_bader_spin_density
 _atom_site_hse06_ddec_charge
 _atom_site_hse06_ddec_spin_density
 _atom_site_hse06_ddec_sum_bond_order
 _atom_site_hse06_magmom
 _atom_site_pbe_bader_spin_density
 _atom_site_pbe_cm5_charge
 _atom_site_pbe_ddec_charge
 _atom_site_pbe_ddec_spin_density
 _atom_site_pbe_ddec_sum_bond_order
 _atom_site_pbe_magmom
Hg  Hg0  1  0.18224687  0.84434928  0.38644486  1  0  0.726842  0  2.364941  0  0  0.595459  0  2.827436  0  0  0.630066  0  2.805103  0  0  0.510579  0.571179  0  2.843138  0
Hg  Hg1  1  0.81771129  0.65564750  0.88644607  1  0  0.726961  0  2.364549  0  0  0.595584  0  2.827047  0  0  0.630198  0  2.804695  0  0  0.510642  0.571318  0  2.842744  0
Hg  Hg2  1  0.81775624  0.15565995  0.61355572  1  0  0.726786  0  2.364628  0  0  0.595395  0  2.827099  0  0  0.630004  0  2.804761  0  0  0.510554  0.571127  0  2.842792  0
Hg  Hg3  1  0.18226422  0.34435508  0.11355601  1  0  0.726958  0  2.365116  0  0  0.595584  0  2.827655  0  0  0.630191  0  2.805321  0  0  0.510638  0.571311  0  2.84337  0
H  H4  1  0.01460549  0.97517266  0.90539214  1  0  0.060734  0  0.947103  0  0  0.069401  0  1.014711  0  0  0.071613  0  1.01296  0  0  0.104603  0.067691  0  1.016212  0
H  H5  1  0.98539023  0.52482985  0.40539102  1  0  0.060677  0  0.947129  0  0  0.069346  0  1.014745  0  0  0.071556  0  1.012998  0  0  0.104584  0.067639  0  1.016242  0
H  H6  1  0.98539862  0.02482454  0.09461221  1  0  0.060716  0  0.947141  0  0  0.069334  0  1.014808  0  0  0.071549  0  1.013048  0  0  0.104601  0.067626  0  1.016305  0
H  H7  1  0.01460412  0.47516729  0.59460917  1  0  0.060678  0  0.947171  0  0  0.069318  0  1.014817  0  0  0.071531  0  1.013061  0  0  0.104568  0.067605  0  1.016315  0
H  H8  1  0.72177960  0.01813764  0.98398449  1  0  0.100839  0  0.98196  0  0  0.110387  0  1.045582  0  0  0.113246  0  1.045358  0  0  0.101235  0.108209  0  1.046244  0
H  H9  1  0.27822872  0.48186443  0.48398288  1  0  0.100802  0  0.982009  0  0  0.110335  0  1.045643  0  0  0.11319  0  1.045425  0  0  0.101234  0.108159  0  1.046297  0
H  H10  1  0.27819126  0.98186678  0.01601759  1  0  0.100888  0  0.98195  0  0  0.110347  0  1.045655  0  0  0.113202  0  1.045438  0  0  0.101245  0.108171  0  1.046306  0
H  H11  1  0.72178226  0.51812910  0.51601581  1  0  0.10085  0  0.981945  0  0  0.110366  0  1.045584  0  0  0.113223  0  1.045364  0  0  0.10122  0.108186  0  1.046245  0
H  H12  1  0.87236321  0.40895798  0.95033086  1  0  0.097445  0  0.956874  0  0  0.109905  0  1.016915  0  0  0.113547  0  1.014951  0  0  0.100015  0.107023  0  1.018966  0
H  H13  1  0.12768864  0.09104627  0.45032521  1  0  0.097417  0  0.95669  0  0  0.109813  0  1.016808  0  0  0.113504  0  1.014792  0  0  0.099958  0.106935  0  1.018856  0
H  H14  1  0.12761940  0.59104280  0.04966820  1  0  0.097402  0  0.956893  0  0  0.109834  0  1.016956  0  0  0.113522  0  1.014945  0  0  0.099981  0.106954  0  1.019008  0
H  H15  1  0.87235658  0.90894839  0.54967084  1  0  0.097478  0  0.956778  0  0  0.109883  0  1.016871  0  0  0.113564  0  1.014866  0  0  0.100005  0.107001  0  1.018927  0
H  H16  1  0.15569081  0.34946727  0.87218283  1  0  0.058337  0  0.989184  0  0  0.065556  0  1.057942  0  0  0.067488  0  1.057468  0  0  0.097445  0.064157  0  1.058327  0
H  H17  1  0.84433310  0.15053885  0.37218198  1  0  0.058355  0  0.989234  0  0  0.065567  0  1.058007  0  0  0.0675  0  1.057531  0  0  0.097466  0.064176  0  1.058383  0
H  H18  1  0.84432327  0.65053183  0.12781736  1  0  0.058333  0  0.989184  0  0  0.06556  0  1.057948  0  0  0.067492  0  1.057472  0  0  0.09747  0.064167  0  1.058328  0
H  H19  1  0.15568309  0.84945749  0.62781859  1  0  0.058392  0  0.989128  0  0  0.065594  0  1.057918  0  0  0.067527  0  1.057443  0  0  0.09751  0.064196  0  1.058305  0
H  H20  1  0.18852207  0.80516022  0.26060417  1  0  0.071992  0  0.948956  0  0  0.080582  0  1.014353  0  0  0.08237  0  1.014032  0  0  0.105999  0.079224  0  1.014743  0
H  H21  1  0.81148513  0.69483714  0.76060650  1  0  0.071999  0  0.948956  0  0  0.080597  0  1.014342  0  0  0.082388  0  1.014015  0  0  0.105988  0.079242  0  1.014732  0
H  H22  1  0.81148824  0.19484813  0.73939489  1  0  0.071929  0  0.948874  0  0  0.080563  0  1.014234  0  0  0.082351  0  1.013911  0  0  0.105987  0.07921  0  1.014623  0
H  H23  1  0.18851366  0.30515632  0.23939369  1  0  0.071906  0  0.948963  0  0  0.08051  0  1.014361  0  0  0.082298  0  1.014038  0  0  0.105961  0.079155  0  1.014751  0
H  H24  1  0.43046106  0.69318641  0.18868671  1  0  0.115052  0  0.944255  0  0  0.126838  0  1.001347  0  0  0.129776  0  1.000684  0  0  0.110001  0.124702  0  1.001974  0
H  H25  1  0.56955487  0.80681302  0.68868738  1  0  0.115055  0  0.94402  0  0  0.126801  0  1.001178  0  0  0.12976  0  1.000488  0  0  0.109985  0.124644  0  1.001827  0
H  H26  1  0.56953196  0.30681998  0.81131235  1  0  0.115019  0  0.944229  0  0  0.126803  0  1.001334  0  0  0.129738  0  1.000676  0  0  0.110031  0.124679  0  1.001947  0
H  H27  1  0.43045655  0.19318422  0.31131281  1  0  0.115036  0  0.944196  0  0  0.126816  0  1.001303  0  0  0.129753  0  1.000641  0  0  0.109993  0.12466  0  1.00195  0
H  H28  1  0.76391905  0.43021172  0.29844608  1  0  0.11147  0  0.968222  0  0  0.113328  0  1.042469  0  0  0.11764  0  1.040014  0  0  0.103759  0.110228  0  1.044367  0
H  H29  1  0.23606602  0.06978602  0.79844445  1  0  0.111402  0  0.96824  0  0  0.113258  0  1.04249  0  0  0.117567  0  1.040037  0  0  0.103748  0.110157  0  1.044386  0
H  H30  1  0.23605402  0.56979086  0.70155336  1  0  0.111428  0  0.968254  0  0  0.113298  0  1.042509  0  0  0.117611  0  1.040053  0  0  0.103764  0.110198  0  1.044404  0
H  H31  1  0.76394529  0.93021030  0.20155612  1  0  0.111471  0  0.968171  0  0  0.113365  0  1.042391  0  0  0.117682  0  1.039933  0  0  0.103781  0.110265  0  1.044287  0
H  H32  1  0.51429220  0.55471423  0.36430283  1  0  0.06378  0  0.964871  0  0  0.071588  0  1.035562  0  0  0.073277  0  1.034362  0  0  0.106958  0.07039  0  1.036332  0
H  H33  1  0.48568508  0.94528272  0.86430378  1  0  0.063735  0  0.964885  0  0  0.071609  0  1.035515  0  0  0.073297  0  1.034319  0  0  0.106976  0.070408  0  1.036283  0
H  H34  1  0.48569816  0.44529030  0.63569623  1  0  0.063821  0  0.964802  0  0  0.071675  0  1.035432  0  0  0.073365  0  1.034234  0  0  0.107026  0.070477  0  1.036195  0
H  H35  1  0.51431869  0.05471170  0.13569754  1  0  0.063737  0  0.964934  0  0  0.071604  0  1.035568  0  0  0.073293  0  1.034369  0  0  0.106967  0.070404  0  1.036337  0
C  C36  1  0.97853648  0.07114249  0.91601988  1  0  0.114737  0  3.773244  0  0  0.090535  0  4.035339  0  0  0.095862  0  4.052898  0  0  0.037143  0.08727  0  4.023113  0
C  C37  1  0.02147555  0.42885976  0.41601932  1  0  0.114811  0  3.773472  0  0  0.090602  0  4.03555  0  0  0.095932  0  4.053106  0  0  0.037176  0.087336  0  4.023327  0
C  C38  1  0.02145832  0.92885836  0.08398295  1  0  0.114834  0  3.773436  0  0  0.090646  0  4.035501  0  0  0.095978  0  4.053056  0  0  0.037174  0.08738  0  4.023273  0
C  C39  1  0.97853066  0.57113467  0.58398050  1  0  0.114817  0  3.773345  0  0  0.090614  0  4.035434  0  0  0.095943  0  4.052989  0  0  0.037187  0.087351  0  4.023208  0
C  C40  1  0.81268751  0.09487479  0.96036750  1  0  -0.168734  0  3.69622  0  0  -0.184947  0  3.936015  0  0  -0.191856  0  3.956097  0  0  -0.08563  -0.180357  0  3.922539  0
C  C41  1  0.18733271  0.40512833  0.46036588  1  0  -0.168677  0  3.696455  0  0  -0.184859  0  3.936274  0  0  -0.191777  0  3.956358  0  0  -0.0856  -0.18027  0  3.922798  0
C  C42  1  0.18729776  0.90512786  0.03963307  1  0  -0.168867  0  3.696172  0  0  -0.18499  0  3.936011  0  0  -0.191904  0  3.956094  0  0  -0.085668  -0.180398  0  3.922531  0
C  C43  1  0.81268093  0.59486707  0.53963281  1  0  -0.168787  0  3.696297  0  0  -0.184964  0  3.936111  0  0  -0.19187  0  3.956187  0  0  -0.085579  -0.18037  0  3.922631  0
C  C44  1  0.76791917  0.21838801  0.97410509  1  0  0.160618  0  3.869508  0  0  0.174333  0  4.085842  0  0  0.180052  0  4.106828  0  0  0.01303  0.170562  0  4.071329  0
C  C45  1  0.23211868  0.28161795  0.47410203  1  0  0.16061  0  3.869092  0  0  0.174265  0  4.085523  0  0  0.180001  0  4.10651  0  0  0.012992  0.170493  0  4.071019  0
C  C46  1  0.23207108  0.78161559  0.02589586  1  0  0.160695  0  3.869113  0  0  0.174376  0  4.085488  0  0  0.180098  0  4.106487  0  0  0.013069  0.17061  0  4.070971  0
C  C47  1  0.76790737  0.71837937  0.52589590  1  0  0.160747  0  3.869338  0  0  0.174436  0  4.085703  0  0  0.180157  0  4.106692  0  0  0.013013  0.170667  0  4.071187  0
C  C48  1  0.89728695  0.31151355  0.94144907  1  0  -0.161558  0  3.695009  0  0  -0.173508  0  3.924789  0  0  -0.181074  0  3.945757  0  0  -0.082313  -0.168374  0  3.910648  0
C  C49  1  0.10275012  0.18849063  0.44144411  1  0  -0.161402  0  3.69482  0  0  -0.173275  0  3.924626  0  0  -0.180895  0  3.94558  0  0  -0.082201  -0.168142  0  3.910487  0
C  C50  1  0.10270563  0.68848914  0.05855226  1  0  -0.161531  0  3.695044  0  0  -0.173446  0  3.924852  0  0  -0.18106  0  3.945805  0  0  -0.082267  -0.168313  0  3.910713  0
C  C51  1  0.89727327  0.81150482  0.55855231  1  0  -0.161538  0  3.694849  0  0  -0.173428  0  3.92465  0  0  -0.18103  0  3.945599  0  0  -0.082237  -0.168295  0  3.910514  0
C  C52  1  0.05771979  0.27747735  0.89782999  1  0  0.109742  0  3.770267  0  0  0.08704  0  4.026596  0  0  0.092338  0  4.044457  0  0  0.033089  0.083768  0  4.014087  0
C  C53  1  0.94230666  0.22252595  0.39782764  1  0  0.10967  0  3.770536  0  0  0.086971  0  4.02683  0  0  0.092266  0  4.044707  0  0  0.033063  0.083694  0  4.014323  0
C  C54  1  0.94229174  0.72252082  0.10217096  1  0  0.109729  0  3.770363  0  0  0.087014  0  4.02667  0  0  0.09231  0  4.044544  0  0  0.033058  0.083738  0  4.014164  0
C  C55  1  0.05770941  0.77746946  0.60217105  1  0  0.109693  0  3.770264  0  0  0.08699  0  4.026568  0  0  0.092284  0  4.044438  0  0  0.033005  0.083715  0  4.014067  0
C  C56  1  0.59860229  0.24903537  0.01861310  1  0  -0.028853  0  3.94633  0  0  -0.021406  0  4.18403  0  0  -0.023394  0  4.21951  0  0  -0.064005  -0.019855  0  4.159415  0
C  C57  1  0.40145367  0.25096435  0.51861410  1  0  -0.028974  0  3.946539  0  0  -0.021512  0  4.184226  0  0  -0.023508  0  4.219707  0  0  -0.064097  -0.019962  0  4.15961  0
C  C58  1  0.40140459  0.75096462  0.98138370  1  0  -0.028704  0  3.946672  0  0  -0.021228  0  4.184326  0  0  -0.023212  0  4.219806  0  0  -0.06399  -0.019683  0  4.159713  0
C  C59  1  0.59858656  0.74902935  0.48138534  1  0  -0.028973  0  3.946605  0  0  -0.021527  0  4.184321  0  0  -0.023516  0  4.219799  0  0  -0.06405  -0.019984  0  4.159712  0
C  C60  1  0.44892319  0.27940074  0.05620595  1  0  -0.433347  0  3.622842  0  0  -0.391525  0  3.947011  0  0  -0.407689  0  3.969972  0  0  -0.220474  -0.380163  0  3.931154  0
C  C61  1  0.55109983  0.22062371  0.55620552  1  0  -0.433185  0  3.623517  0  0  -0.391352  0  3.947634  0  0  -0.407515  0  3.970596  0  0  -0.220368  -0.379989  0  3.931763  0
C  C62  1  0.55104568  0.72060737  0.94379387  1  0  -0.433534  0  3.623609  0  0  -0.391726  0  3.947768  0  0  -0.407895  0  3.970729  0  0  -0.220541  -0.380365  0  3.931906  0
C  C63  1  0.44891092  0.77938835  0.44379392  1  0  -0.433278  0  3.623183  0  0  -0.391444  0  3.947327  0  0  -0.407609  0  3.97029  0  0  -0.220453  -0.380081  0  3.931467  0
C  C64  1  0.31938009  0.72157843  0.26703137  1  0  0.128012  0  3.741336  0  0  0.100189  0  3.994011  0  0  0.106215  0  4.013171  0  0  0.040137  0.096289  0  3.981162  0
C  C65  1  0.68061071  0.77842345  0.76703210  1  0  0.127826  0  3.741439  0  0  0.100026  0  3.994092  0  0  0.10605  0  4.013264  0  0  0.040089  0.096117  0  3.981248  0
C  C66  1  0.68061072  0.27842980  0.73296920  1  0  0.127989  0  3.740951  0  0  0.100128  0  3.993648  0  0  0.106154  0  4.012806  0  0  0.040131  0.096215  0  3.98082  0
C  C67  1  0.31938853  0.22157372  0.23296810  1  0  0.128  0  3.741328  0  0  0.100172  0  3.994009  0  0  0.106198  0  4.01317  0  0  0.040138  0.096263  0  3.981168  0
C  C68  1  0.45348135  0.65898874  0.22705586  1  0  -0.15587  0  3.670388  0  0  -0.169467  0  3.907898  0  0  -0.176288  0  3.927579  0  0  -0.077221  -0.165142  0  3.894804  0
C  C69  1  0.54651840  0.84101236  0.72705764  1  0  -0.155851  0  3.670488  0  0  -0.16945  0  3.907972  0  0  -0.17629  0  3.927649  0  0  -0.07726  -0.165103  0  3.894884  0
C  C70  1  0.54649738  0.34102035  0.77294358  1  0  -0.155852  0  3.670434  0  0  -0.16951  0  3.907938  0  0  -0.17633  0  3.927618  0  0  -0.077348  -0.165192  0  3.894845  0
C  C71  1  0.45348859  0.15898856  0.27294331  1  0  -0.155874  0  3.67067  0  0  -0.169499  0  3.908162  0  0  -0.17632  0  3.927844  0  0  -0.077277  -0.165152  0  3.895077  0
C  C72  1  0.61890079  0.55114875  0.23711814  1  0  0.151535  0  3.871083  0  0  0.164008  0  4.092336  0  0  0.169767  0  4.112746  0  0  0.013754  0.160188  0  4.07853  0
C  C73  1  0.38110102  0.94884770  0.73711754  1  0  0.151399  0  3.870987  0  0  0.163946  0  4.092154  0  0  0.169705  0  4.112564  0  0  0.013793  0.160125  0  4.078342  0
C  C74  1  0.38108459  0.44885482  0.76288243  1  0  0.151281  0  3.87114  0  0  0.16394  0  4.092174  0  0  0.169695  0  4.112593  0  0  0.01378  0.160123  0  4.07837  0
C  C75  1  0.61890841  0.05115323  0.26288303  1  0  0.151535  0  3.871175  0  0  0.164096  0  4.092324  0  0  0.169858  0  4.112728  0  0  0.013858  0.160271  0  4.07852  0
C  C76  1  0.63846359  0.51215404  0.28760154  1  0  -0.151638  0  3.667132  0  0  -0.166561  0  3.908858  0  0  -0.173661  0  3.928256  0  0  -0.079047  -0.162062  0  3.896174  0
C  C77  1  0.36151714  0.98784218  0.78760016  1  0  -0.151348  0  3.666976  0  0  -0.166289  0  3.908697  0  0  -0.173385  0  3.928095  0  0  -0.078959  -0.161786  0  3.896002  0
C  C78  1  0.36150938  0.48784761  0.71240017  1  0  -0.151392  0  3.667112  0  0  -0.166401  0  3.908798  0  0  -0.173499  0  3.928196  0  0  -0.079029  -0.161906  0  3.896109  0
C  C79  1  0.63848464  0.01215593  0.21239966  1  0  -0.151536  0  3.666929  0  0  -0.166522  0  3.908633  0  0  -0.17363  0  3.928038  0  0  -0.07905  -0.162024  0  3.895944  0
C  C80  1  0.49866736  0.58213373  0.32485357  1  0  0.122779  0  3.746295  0  0  0.094108  0  4.001867  0  0  0.100161  0  4.020678  0  0  0.039792  0.090217  0  3.988955  0
C  C81  1  0.50131169  0.91786331  0.82485341  1  0  0.122667  0  3.746075  0  0  0.093954  0  4.00168  0  0  0.100006  0  4.020494  0  0  0.039752  0.090076  0  3.988752  0
C  C82  1  0.50131559  0.41786982  0.67514625  1  0  0.122569  0  3.746081  0  0  0.09388  0  4.0017  0  0  0.099932  0  4.020511  0  0  0.039699  0.090003  0  3.988768  0
C  C83  1  0.49868954  0.08213016  0.17514603  1  0  0.122691  0  3.746188  0  0  0.093973  0  4.001808  0  0  0.100025  0  4.020623  0  0  0.039759  0.090097  0  3.988881  0
C  C84  1  0.90561041  0.43122213  0.16422237  1  0  -0.41035  0  3.596074  0  0  -0.368384  0  3.921984  0  0  -0.384093  0  3.943417  0  0  -0.205033  -0.357212  0  3.906783  0
C  C85  1  0.09440106  0.06877144  0.66422671  1  0  -0.410319  0  3.596548  0  0  -0.368335  0  3.922398  0  0  -0.384045  0  3.943833  0  0  -0.205043  -0.357163  0  3.907185  0
C  C86  1  0.09438594  0.56877132  0.83577292  1  0  -0.410297  0  3.596547  0  0  -0.368322  0  3.922407  0  0  -0.384033  0  3.943845  0  0  -0.205031  -0.357148  0  3.907191  0
C  C87  1  0.90559584  0.93122664  0.33577914  1  0  -0.410278  0  3.596143  0  0  -0.368293  0  3.922019  0  0  -0.384003  0  3.943451  0  0  -0.20499  -0.357119  0  3.906804  0
C  C88  1  0.76784885  0.48548320  0.19792304  1  0  -0.031297  0  3.925569  0  0  -0.027101  0  4.17011  0  0  -0.02841  0  4.203158  0  0  -0.057262  -0.026037  0  4.147201  0
C  C89  1  0.23214758  0.01452224  0.69791954  1  0  -0.031164  0  3.926056  0  0  -0.027  0  4.170562  0  0  -0.028308  0  4.203611  0  0  -0.057203  -0.025938  0  4.147648  0
C  C90  1  0.23213509  0.51452870  0.80207980  1  0  -0.031207  0  3.926206  0  0  -0.027073  0  4.170676  0  0  -0.028382  0  4.203726  0  0  -0.057248  -0.026013  0  4.147762  0
C  C91  1  0.76784545  0.98548415  0.30207914  1  0  -0.031333  0  3.925771  0  0  -0.027176  0  4.170301  0  0  -0.028485  0  4.203347  0  0  -0.057318  -0.026112  0  4.147384  0
N  N92  1  0.09993352  0.15947836  0.88447506  1  0  -0.317766  0  3.064022  0  0  -0.28217  0  3.33525  0  0  -0.292149  0  3.34993  0  0  -0.32405  -0.275133  0  3.324751  0
N  N93  1  0.90008307  0.34052584  0.38447377  1  0  -0.317871  0  3.064214  0  0  -0.282261  0  3.335422  0  0  -0.29224  0  3.350102  0  0  -0.324105  -0.275211  0  3.324908  0
N  N94  1  0.90008056  0.84052075  0.11552778  1  0  -0.317805  0  3.064268  0  0  -0.282191  0  3.335481  0  0  -0.292173  0  3.350162  0  0  -0.324076  -0.275152  0  3.324977  0
N  N95  1  0.09992824  0.65947047  0.61552605  1  0  -0.317836  0  3.064075  0  0  -0.282198  0  3.335251  0  0  -0.292188  0  3.349956  0  0  -0.324081  -0.275151  0  3.324725  0
N  N96  1  0.34089876  0.68463995  0.31522296  1  0  -0.33458  0  3.214023  0  0  -0.268268  0  3.477318  0  0  -0.28488  0  3.496703  0  0  -0.322544  -0.25686  0  3.464026  0
N  N97  1  0.65909231  0.81535718  0.81522555  1  0  -0.33444  0  3.213811  0  0  -0.268172  0  3.477157  0  0  -0.284785  0  3.496545  0  0  -0.322523  -0.256771  0  3.463876  0
N  N98  1  0.65909892  0.31536462  0.68477535  1  0  -0.33441  0  3.213789  0  0  -0.268112  0  3.477114  0  0  -0.284724  0  3.4965  0  0  -0.32247  -0.256708  0  3.463829  0
N  N99  1  0.34090880  0.18463536  0.18477540  1  0  -0.334454  0  3.213722  0  0  -0.268153  0  3.477037  0  0  -0.284764  0  3.496422  0  0  -0.322511  -0.256749  0  3.463758  0
