# generated using pymatgen
data_CuH20C14(N4O5)2
_symmetry_space_group_name_H-M   'P 1'
_cell_length_a   8.26420623
_cell_length_b   7.89621425
_cell_length_c   10.56034741
_cell_angle_alpha   122.11369774
_cell_angle_beta   116.70911534
_cell_angle_gamma   85.07171012
_symmetry_Int_Tables_number   1
_chemical_formula_structural   CuH20C14(N4O5)2
_chemical_formula_sum   'Cu1 H20 C14 N8 O10'
_cell_volume   510.63113224
_cell_formula_units_Z   1
loop_
 _symmetry_equiv_pos_site_id
 _symmetry_equiv_pos_as_xyz
  1  'x, y, z'
loop_
 _atom_site_type_symbol
 _atom_site_label
 _atom_site_symmetry_multiplicity
 _atom_site_fract_x
 _atom_site_fract_y
 _atom_site_fract_z
 _atom_site_occupancy
 _atom_site_hle17_ddec_charge
 _atom_site_hle17_ddec_spin_density
 _atom_site_hle17_ddec_sum_bond_order
 _atom_site_hle17_magmom
 _atom_site_hse06_10hf_ddec_charge
 _atom_site_hse06_10hf_ddec_spin_density
 _atom_site_hse06_10hf_ddec_sum_bond_order
 _atom_site_hse06_10hf_magmom
 _atom_site_hse06_ddec_charge
 _atom_site_hse06_ddec_spin_density
 _atom_site_hse06_ddec_sum_bond_order
 _atom_site_hse06_magmom
 _atom_site_pbe_cm5_charge
 _atom_site_pbe_ddec_charge
 _atom_site_pbe_ddec_spin_density
 _atom_site_pbe_ddec_sum_bond_order
 _atom_site_pbe_magmom
Cu  Cu0  1  0.99999767  0.99999944  0.99999203  1  0.929193  -0.701392  1.654577  -0.527  0.906508  -0.783356  2.020619  -0.637  1.005229  -0.843178  1.933746  -0.714  0.775573  0.85377  -0.740805  2.064221  -0.585
H  H1  1  0.68079386  0.95520296  0.32685427  1  0.297833  -0.000244  0.930672  0.0  0.274214  -0.000155  1.004381  0.0  0.282592  -0.000102  0.997467  0.0  0.305815  0.268301  -0.000223  1.009144  0.0
H  H2  1  0.31919419  0.04479258  0.67312965  1  0.297923  -0.000244  0.930646  0.0  0.274324  -0.000155  1.004337  0.0  0.282704  -0.000102  0.997419  0.0  0.305874  0.26841  -0.000223  1.0091  0.0
H  H3  1  0.78540008  0.15600577  0.29588656  1  0.298932  1.3e-05  0.929956  0.0  0.277235  8e-06  1.000342  0.0  0.285509  7e-06  0.993832  0.0  0.303713  0.271293  -7e-06  1.005128  0.0
H  H4  1  0.21460379  0.84399518  0.70412116  1  0.298922  1.2e-05  0.929974  0.0  0.277227  7e-06  1.000355  0.0  0.285498  7e-06  0.993847  0.0  0.303678  0.271285  -7e-06  1.005136  0.0
H  H5  1  0.63402958  0.74073652  0.75162142  1  0.090438  -0.001183  0.975904  -0.002  0.085295  -0.000822  1.062829  -0.002  0.088301  -0.00052  1.058817  -0.001  0.113905  0.0824  -0.001059  1.066895  -0.002
H  H6  1  0.36598274  0.25926192  0.24838488  1  0.090437  -0.001182  0.975912  -0.002  0.085352  -0.000821  1.062779  -0.002  0.088358  -0.000519  1.058768  -0.001  0.113917  0.082454  -0.001058  1.066856  -0.002
H  H7  1  0.42073441  0.60219797  0.44128449  1  0.104177  -0.000874  0.967813  -0.001  0.115073  -0.000582  1.026304  -0.001  0.116723  -0.000397  1.026928  0.0  0.111257  0.113822  -0.000744  1.02605  -0.001
H  H8  1  0.57926380  0.39779438  0.55872294  1  0.104101  -0.000874  0.967906  -0.001  0.115036  -0.000582  1.026335  -0.001  0.116684  -0.000397  1.02696  0.0  0.111286  0.113784  -0.000744  1.026076  -0.001
H  H9  1  0.49299895  0.73720613  0.30345112  1  0.128244  -0.000409  0.925243  -0.001  0.137224  -4.9e-05  0.983063  0.0  0.14055  1.7e-05  0.98038  0.0  0.11745  0.134684  -0.000121  0.985282  0.0
H  H10  1  0.50697632  0.26278319  0.69653427  1  0.128295  -0.00041  0.92531  -0.001  0.137217  -4.9e-05  0.983214  0.0  0.140554  1.7e-05  0.980503  0.0  0.117459  0.13467  -0.00012  0.985448  0.0
H  H11  1  0.98268814  0.12881747  0.78364990  1  0.11498  -0.001547  0.957864  -0.003  0.115389  -0.001066  1.029917  -0.002  0.118367  -0.000679  1.026246  -0.002  0.121401  0.112839  -0.001391  1.03327  -0.002
H  H12  1  0.01728951  0.87117298  0.21633186  1  0.114986  -0.001549  0.95777  -0.003  0.115426  -0.001067  1.029791  -0.002  0.118402  -0.000679  1.026126  -0.002  0.121395  0.112879  -0.001392  1.03314  -0.002
H  H13  1  0.87456361  0.58677825  0.58085947  1  0.054035  0.00015  0.989089  0.0  0.07023  8.6e-05  1.054759  0.0  0.069201  8e-05  1.057534  0.0  0.101892  0.070974  8.9e-05  1.052813  0.0
H  H14  1  0.12543813  0.41322699  0.41913509  1  0.054148  0.00015  0.989113  0.0  0.070325  8.6e-05  1.054795  0.0  0.069304  8e-05  1.057566  0.0  0.101911  0.071068  8.9e-05  1.052854  0.0
H  H15  1  0.81045775  0.49083771  0.36675432  1  0.079495  -7.7e-05  0.947442  0.0  0.093256  -0.00013  1.011514  0.0  0.094252  -8.9e-05  1.010608  0.0  0.106601  0.09245  -0.00017  1.01231  0.0
H  H16  1  0.18954878  0.50915643  0.63324384  1  0.079496  -7.8e-05  0.947393  0.0  0.09331  -0.00013  1.011411  0.0  0.094311  -8.9e-05  1.010507  0.0  0.10662  0.092502  -0.00017  1.012203  0.0
H  H17  1  0.23366415  0.75640648  0.96757622  1  0.429235  -2.9e-05  0.862241  0.0  0.396915  -0.000701  0.930577  -0.001  0.40959  -0.000503  0.912245  -0.001  0.295997  0.387777  -0.000825  0.943849  -0.001
H  H18  1  0.76633746  0.24359625  0.03243157  1  0.429185  -2.8e-05  0.86223  0.0  0.396856  -0.0007  0.930644  -0.001  0.409531  -0.000502  0.912311  -0.001  0.295992  0.38772  -0.000824  0.943912  -0.001
H  H19  1  0.03243051  0.59998227  0.82157269  1  0.442091  -0.00082  0.852582  -0.002  0.414011  -0.001339  0.911277  -0.003  0.426866  -0.001064  0.892828  -0.002  0.296011  0.404699  -0.001514  0.924674  -0.003
H  H20  1  0.96757437  0.40002938  0.17843673  1  0.442028  -0.000821  0.852681  -0.002  0.413933  -0.00134  0.911393  -0.003  0.426788  -0.001065  0.892944  -0.002  0.295998  0.404623  -0.001515  0.924788  -0.003
C  C21  1  0.66134731  0.79277384  0.68454703  1  0.089106  0.011063  3.692479  0.007  0.053244  0.002322  3.967736  0.001  0.062446  0.004368  3.984775  0.003  0.029143  0.047034  0.000757  3.958369  0.0
C  C22  1  0.33866959  0.20723668  0.31546633  1  0.088991  0.011077  3.692338  0.007  0.053054  0.002321  3.967712  0.001  0.062253  0.004367  3.984752  0.003  0.029054  0.046839  0.000757  3.958355  0.0
C  C23  1  0.54369945  0.71895244  0.51406466  1  -0.084898  -0.010687  3.746805  -0.012  -0.099116  -0.004149  3.999186  -0.005  -0.103793  -0.003607  4.019273  -0.005  -0.081914  -0.096348  -0.004564  3.985879  -0.006
C  C24  1  0.45629995  0.28104551  0.48593298  1  -0.084681  -0.01069  3.747028  -0.012  -0.098863  -0.004145  3.999344  -0.005  -0.10354  -0.003605  4.019434  -0.005  -0.081895  -0.096089  -0.004561  3.986035  -0.006
C  C25  1  0.58311312  0.79542036  0.43740179  1  -0.097338  0.014754  3.661264  0.009  -0.121789  0.005054  3.910406  0.003  -0.120077  0.005688  3.92567  0.003  -0.066045  -0.122792  0.004489  3.900393  0.002
C  C26  1  0.41688387  0.20458695  0.56259317  1  -0.09738  0.014771  3.661293  0.009  -0.121828  0.005053  3.910448  0.003  -0.120114  0.005688  3.925715  0.003  -0.066059  -0.122831  0.004489  3.900432  0.002
C  C27  1  0.73988481  0.95025963  0.53385367  1  0.232831  -0.009603  3.792005  -0.011  0.229601  -0.00389  4.038133  -0.005  0.234055  -0.003412  4.059174  -0.004  0.110877  0.226039  -0.00426  4.024005  -0.005
C  C28  1  0.26010717  0.04974497  0.46613688  1  0.232962  -0.00961  3.791802  -0.011  0.229764  -0.003889  4.037928  -0.005  0.234219  -0.003412  4.058968  -0.004  0.110966  0.226203  -0.004259  4.023806  -0.005
C  C29  1  0.85635984  0.01433203  0.70394274  1  0.031519  0.010162  3.613346  0.007  -0.007688  0.002046  3.879933  0.001  -0.000308  0.003936  3.897448  0.003  0.040529  -0.012724  0.000479  3.869985  0.0
C  C30  1  0.14363277  0.98567926  0.29606303  1  0.031458  0.01018  3.613544  0.007  -0.007739  0.002044  3.880141  0.001  -0.000366  0.003935  3.897671  0.003  0.04053  -0.012772  0.000478  3.870188  0.0
C  C31  1  0.85483197  0.22909329  0.53401572  1  0.71669  0.000202  3.885814  0.0  0.642583  -6.3e-05  4.199404  0.0  0.677335  -7.2e-05  4.196178  0.0  0.331232  0.618919  -6.9e-05  4.200436  0.0
C  C32  1  0.14515767  0.77090362  0.46596825  1  0.716782  0.000201  3.885693  0.0  0.642684  -6.4e-05  4.199298  0.0  0.677441  -7.2e-05  4.196058  0.0  0.331187  0.61902  -6.9e-05  4.200348  0.0
C  C33  1  0.89811921  0.47679730  0.47381354  1  0.028747  8e-05  3.671493  0.0  -0.033839  -4.8e-05  3.934398  0.0  -0.029414  -9e-06  3.946346  0.0  -0.073315  -0.036736  -0.000109  3.925919  0.0
C  C34  1  0.10187072  0.52318918  0.52617871  1  0.028661  8.6e-05  3.671339  0.0  -0.034023  -4.8e-05  3.934393  0.0  -0.029617  -9e-06  3.946349  0.0  -0.073286  -0.036907  -0.000109  3.925909  0.0
N  N35  1  0.81631904  0.93362046  0.77355289  1  -0.290658  -0.086169  3.408032  -0.111  -0.242424  -0.053533  3.71235  -0.073  -0.276836  -0.043393  3.737722  -0.064  -0.364285  -0.223112  -0.059072  3.697264  -0.077
N  N36  1  0.18369093  0.06637213  0.22645420  1  -0.290642  -0.086184  3.407582  -0.111  -0.242471  -0.053534  3.711998  -0.073  -0.276886  -0.043392  3.737377  -0.064  -0.364186  -0.223154  -0.059074  3.696913  -0.077
N  N37  1  0.77253622  0.02869938  0.45527803  1  -0.498609  -0.001936  3.321966  -0.002  -0.443247  -0.000895  3.56879  -0.001  -0.466578  -0.000695  3.577351  -0.001  -0.41095  -0.426621  -0.001259  3.562303  -0.001
N  N38  1  0.22745799  0.97130815  0.54471528  1  -0.498864  -0.00193  3.321684  -0.002  -0.443568  -0.000896  3.568581  -0.001  -0.466905  -0.000695  3.57714  -0.001  -0.411093  -0.426941  -0.001259  3.562097  -0.001
N  N39  1  0.84008205  0.27262635  0.42232853  1  -0.470055  -6.1e-05  3.307284  0.0  -0.408833  -8.1e-05  3.5671  0.0  -0.432072  -5.6e-05  3.575533  0.0  -0.430566  -0.392335  -0.00016  3.560675  0.0
N  N40  1  0.15992657  0.72737398  0.57767650  1  -0.470141  -6.3e-05  3.306733  0.0  -0.408931  -8.1e-05  3.566605  0.0  -0.432187  -5.6e-05  3.575091  0.0  -0.430582  -0.392423  -0.00016  3.560151  0.0
N  N41  1  0.56176523  0.79054842  0.00850839  1  0.697497  0.000274  4.135911  0.0  0.728448  6.1e-05  4.431132  0.0  0.75695  2.7e-05  4.43688  0.0  0.101917  0.71094  2.6e-05  4.426277  0.0
N  N42  1  0.43824604  0.20944877  0.99150185  1  0.6977  0.000269  4.13591  0.0  0.728669  6.4e-05  4.431092  0.0  0.757173  2.8e-05  4.436837  0.0  0.101998  0.711134  2.6e-05  4.426254  0.0
O  O43  1  0.92803294  0.35532762  0.69242393  1  -0.618798  -0.00503  1.915437  -0.007  -0.561318  -0.002196  2.128662  -0.003  -0.585225  -0.00115  2.118484  -0.002  -0.310222  -0.544102  -0.003512  2.135129  -0.005
O  O44  1  0.07195536  0.64466981  0.30756937  1  -0.618756  -0.005028  1.915776  -0.007  -0.56122  -0.002194  2.12897  -0.003  -0.585118  -0.001151  2.118784  -0.002  -0.31015  -0.544005  -0.003511  2.135445  -0.005
O  O45  1  0.71570881  0.90590847  0.08085172  1  -0.482968  -0.000119  1.774352  -0.001  -0.479415  0.000457  2.004093  0.0  -0.496865  0.000668  1.995845  0.0  -0.191779  -0.468318  9.2e-05  2.010349  -0.001
O  O46  1  0.28430445  0.09408689  0.91915645  1  -0.483119  -0.000116  1.774431  -0.001  -0.479561  0.000455  2.004155  0.0  -0.497016  0.000675  1.995914  0.0  -0.191861  -0.468452  9.3e-05  2.010407  -0.001
O  O47  1  0.48150923  0.82357404  0.09764218  1  -0.503531  -0.002296  1.766423  -0.003  -0.480845  -0.001047  1.972121  -0.002  -0.498427  -0.000449  1.96445  -0.001  -0.20081  -0.468937  -0.001778  1.977463  -0.003
O  O48  1  0.51850576  0.17641511  0.90236878  1  -0.50352  -0.002295  1.766331  -0.003  -0.480831  -0.001048  1.972009  -0.002  -0.498421  -0.000451  1.964342  -0.001  -0.200787  -0.468919  -0.001778  1.977356  -0.003
O  O49  1  0.48890582  0.64858682  0.85466935  1  -0.427908  -0.000696  1.772989  -0.001  -0.41742  -0.0004  1.982493  0.0  -0.430567  -0.000207  1.976413  0.0  -0.16852  -0.408493  -0.000727  1.98661  -0.001
O  O50  1  0.51110252  0.35141817  0.14533651  1  -0.428013  -0.000695  1.77301  -0.001  -0.417511  -0.000397  1.982468  0.0  -0.430652  -0.00021  1.976385  0.0  -0.16855  -0.408578  -0.000726  1.986598  -0.001
O  O51  1  0.10029954  0.74641911  0.89655454  1  -0.82567  -0.06006  1.955671  -0.084  -0.790019  -0.04721  2.174693  -0.07  -0.82515  -0.036802  2.133909  -0.059  -0.577167  -0.768531  -0.05397  2.202291  -0.076
O  O52  1  0.89970812  0.25358903  0.10345143  1  -0.825567  -0.060064  1.95561  -0.084  -0.789902  -0.047211  2.174725  -0.07  -0.82505  -0.036802  2.13397  -0.06  -0.577157  -0.768413  -0.05397  2.202317  -0.076
