# generated using pymatgen
data_Zn6H29C40(NO10)3
_symmetry_space_group_name_H-M   'P 1'
_cell_length_a   18.76751095
_cell_length_b   18.80842159
_cell_length_c   18.82306961
_cell_angle_alpha   109.20023392
_cell_angle_beta   108.95925687
_cell_angle_gamma   109.50444650
_symmetry_Int_Tables_number   1
_chemical_formula_structural   Zn6H29C40(NO10)3
_chemical_formula_sum   'Zn6 H29 C40 N3 O30'
_cell_volume   5161.48173517
_cell_formula_units_Z   1
loop_
 _symmetry_equiv_pos_site_id
 _symmetry_equiv_pos_as_xyz
  1  'x, y, z'
loop_
 _atom_site_type_symbol
 _atom_site_label
 _atom_site_symmetry_multiplicity
 _atom_site_fract_x
 _atom_site_fract_y
 _atom_site_fract_z
 _atom_site_occupancy
 _atom_site_pbe_bader_charge
 _atom_site_pbe_bader_spin_density
 _atom_site_pbe_cm5_charge
 _atom_site_pbe_ddec_charge
 _atom_site_pbe_ddec_spin_density
 _atom_site_pbe_ddec_sum_bond_order
 _atom_site_pbe_magmom
Zn  Zn0  1  0.93928334  0.49400940  0.94321491  1  1.305923  0  0.722961  0.958431  0  2.139906  0
Zn  Zn1  1  0.07152155  0.51699844  0.07848765  1  1.300146  0  0.715571  0.941865  0  2.147654  0
Zn  Zn2  1  0.50294389  0.06313133  0.06106625  1  1.305565  0  0.717221  0.946892  0  2.165611  0
Zn  Zn3  1  0.50134922  0.94371503  0.93217808  1  1.303407  0  0.716089  0.94485  0  2.154031  0
Zn  Zn4  1  0.93391594  0.94778387  0.51112219  1  1.309205  0  0.722883  0.956059  0  2.140773  0
Zn  Zn5  1  0.06108242  0.06836868  0.50956987  1  1.30392  0  0.71839  0.948299  0  2.149985  0
H  H6  1  0.71461578  0.33998245  0.94578535  1  0.093145  0  0.099713  0.108501  0  0.992903  0
H  H7  1  0.78209046  0.37449647  0.05469351  1  0.004877  0  0.101834  0.107202  0  0.958276  0
H  H8  1  0.66833081  0.26549605  0.04697574  1  0.045632  0  0.098602  0.106999  0  0.978518  0
H  H9  1  0.60623087  0.22404038  0.93500564  1  0.030807  0  0.095719  0.098366  0  0.974671  0
H  H10  1  0.61806847  0.11224617  0.82906936  1  0.092398  0  0.111387  0.128887  0  0.971418  0
H  H11  1  0.89230975  0.24794524  0.02489223  1  0.032787  0  0.097918  0.101898  0  0.982473  0
H  H12  1  0.88425161  0.32661967  0.09832946  1  0.054901  0  0.103197  0.113602  0  0.969214  0
H  H13  1  0.77892982  0.21903725  0.10091731  1  0.059424  0  0.098738  0.102731  0  0.969569  0
H  H14  1  0.78609574  0.13908018  0.02607321  1  0.037099  0  0.096692  0.098248  0  0.968107  0
H  H15  1  0.03081409  0.80292615  0.34596829  1  0.126844  0  0.130919  0.155356  0  0.95528  0
H  H16  1  0.86599495  0.63984114  0.11383036  1  0.141871  0  0.121257  0.133041  0  0.975398  0
H  H17  1  0.03442145  0.69032487  0.26831816  1  0.093596  0  0.112855  0.128893  0  0.985189  0
H  H18  1  0.33306663  0.86881407  0.07821090  1  0.129655  0  0.113986  0.114763  0  0.972172  0
H  H19  1  0.27482644  0.72635384  0.89861921  1  0.075025  0  0.114548  0.135887  0  0.979032  0
H  H20  1  0.24656161  0.74197956  0.08942474  1  0.112932  0  0.114506  0.115234  0  0.969964  0
H  H21  1  0.11769179  0.68088278  0.90271507  1  0.104726  0  0.113515  0.13487  0  0.979024  0
H  H22  1  0.05428613  0.26423189  0.69308567  1  0.093995  0  0.113028  0.112852  0  0.973706  0
H  H23  1  0.96322994  0.14167969  0.74929846  1  0.0988  0  0.1147  0.139626  0  0.981723  0
H  H24  1  0.01694129  0.36063721  0.78718982  1  0.124765  0  0.114729  0.115772  0  0.968866  0
H  H25  1  0.09200264  0.29981739  0.91182609  1  0.088993  0  0.115376  0.137565  0  0.975246  0
H  H26  1  0.31405829  0.09294796  0.68252239  1  0.114264  0  0.116602  0.116611  0  0.965816  0
H  H27  1  0.39261414  0.03761295  0.77168627  1  0.08962  0  0.112913  0.113474  0  0.971149  0
H  H28  1  0.30834192  0.09589574  0.87832099  1  0.111159  0  0.115107  0.136621  0  0.977998  0
H  H29  1  0.86897614  0.08279375  0.30851969  1  0.097323  0  0.113194  0.13215  0  0.981309  0
H  H30  1  0.66419763  0.06791728  0.29809875  1  0.103241  0  0.114819  0.113757  0  0.969601  0
H  H31  1  0.71654148  0.98340374  0.16843720  1  0.094562  0  0.113713  0.135466  0  0.978676  0
H  H32  1  0.69253883  0.07771769  0.86461346  1  0.139581  0  0.111676  0.134808  0  0.989268  0
H  H33  1  0.17609171  0.99359767  0.71992830  1  0.094797  0  0.112403  0.132113  0  0.981464  0
H  H34  1  0.75235608  0.01615620  0.38157484  1  0.102748  0  0.116463  0.117079  0  0.965593  0
C  C35  1  0.99705658  0.60475161  0.13658962  1  1.533245  0  0.212744  0.641144  0  4.151258  0
C  C36  1  0.87196883  0.36714931  0.97311979  1  1.581045  0  0.216866  0.583786  0  4.142191  0
C  C37  1  0.05937437  0.40419198  0.94600479  1  1.514884  0  0.211497  0.643816  0  4.141749  0
C  C38  1  0.08485479  0.62114814  0.97835968  1  1.528992  0  0.211986  0.644195  0  4.149775  0
C  C39  1  0.74165602  0.31802346  0.98950509  1  -0.006034  0  -0.156056  -0.17242  0  3.844077  0
C  C40  1  0.66999786  0.24447548  0.98619705  1  -0.013771  0  -0.161344  -0.184186  0  3.869674  0
C  C41  1  0.75145117  0.20549185  0.87952355  1  0.356668  0  0.170561  0.099301  0  3.555798  0
C  C42  1  0.84591963  0.26660350  0.03625061  1  0.007385  0  -0.159939  -0.175716  0  3.858614  0
C  C43  1  0.80409130  0.28942934  0.96782266  1  0.029639  0  -0.008251  -0.035067  0  3.783877  0
C  C44  1  0.68541232  0.16647394  0.96779106  1  0.046716  0  -0.014888  0.043487  0  3.807748  0
C  C45  1  0.68217142  0.13359507  0.87997892  1  -0.076268  0  -0.159803  -0.278958  0  3.86891  0
C  C46  1  0.77623861  0.19542486  0.03791246  1  -0.062868  0  -0.155554  -0.176647  0  3.846939  0
C  C47  1  0.90482938  0.73407060  0.24309225  1  0.126663  0  0.085459  0.091915  0  3.936255  0
C  C48  1  0.96628895  0.79619890  0.32430796  1  0.06304  0  -0.051837  -0.208373  0  3.775929  0
C  C49  1  0.91610476  0.67437000  0.18125793  1  0.059115  0  -0.065786  -0.074524  0  3.975338  0
C  C50  1  0.98434793  0.66089626  0.20180539  1  -0.089035  0  -0.08566  -0.208944  0  3.878471  0
C  C51  1  0.29132469  0.80409406  0.02149659  1  -0.037412  0  -0.062806  -0.013936  0  3.974896  0
C  C52  1  0.30795286  0.79011051  0.95513112  1  -0.032009  0  -0.088025  -0.23202  0  3.875245  0
C  C53  1  0.22711036  0.74041237  0.02717188  1  -0.098849  0  -0.062929  -0.014683  0  3.97709  0
C  C54  1  0.14461800  0.68263345  0.96446707  1  0.004539  0  -0.088251  -0.232454  0  3.880286  0
C  C55  1  0.03177350  0.24827312  0.73553371  1  -0.059542  0  -0.062358  -0.011676  0  3.973732  0
C  C56  1  0.99412229  0.16439164  0.71512223  1  0.012275  0  -0.088178  -0.233209  0  3.873122  0
C  C57  1  0.03690319  0.31737648  0.80409636  1  -0.083922  0  -0.062641  -0.012288  0  3.974885  0
C  C58  1  0.06461936  0.33452028  0.88644175  1  0.038607  0  -0.087348  -0.228551  0  3.888904  0
C  C59  1  0.40184947  0.05202471  0.91894068  1  1.515347  0  0.210486  0.640921  0  4.155622  0
C  C60  1  0.61864220  0.09577171  0.97060604  1  1.566146  0  0.225757  0.597704  0  4.072438  0
C  C61  1  0.61592259  0.01774207  0.13024247  1  1.510987  0  0.211763  0.641677  0  4.154746  0
C  C62  1  0.37837891  0.86110968  0.96045146  1  1.528703  0  0.21225  0.641861  0  4.151846  0
C  C63  1  0.13877481  0.02745450  0.61970178  1  1.517137  0  0.209791  0.640115  0  4.156556  0
C  C64  1  0.96261835  0.86446008  0.38896064  1  1.618026  0  0.219048  0.648271  0  4.190859  0
C  C65  1  0.90933300  0.04421092  0.40587302  1  1.521304  0  0.216746  0.648215  0  4.141598  0
C  C66  1  0.98618109  0.09831549  0.63915627  1  1.491599  0  0.211081  0.641551  0  4.150883  0
C  C67  1  0.28875062  0.06383879  0.71673299  1  0.006515  0  -0.061871  -0.01689  0  3.965142  0
C  C68  1  0.20341844  0.02893418  0.69109339  1  -0.094322  0  -0.088569  -0.227102  0  3.892866  0
C  C69  1  0.34660192  0.05640511  0.78365194  1  0.024301  0  -0.065309  -0.020818  0  3.978571  0
C  C70  1  0.34663016  0.06958581  0.85853513  1  -0.078132  0  -0.088394  -0.232399  0  3.884867  0
C  C71  1  0.76800460  0.03646619  0.33785809  1  -0.100168  0  -0.061456  -0.01505  0  3.966039  0
C  C72  1  0.84671765  0.05521570  0.34496932  1  0.006257  0  -0.08652  -0.227609  0  3.878852  0
C  C73  1  0.70298392  0.04322836  0.27690617  1  0.004464  0  -0.062012  -0.016275  0  3.971097  0
C  C74  1  0.68460007  0.01529889  0.19406891  1  -0.042814  0  -0.088947  -0.231555  0  3.889512  0
N  N75  1  0.81347336  0.17583174  0.85637160  1  0.494562  0  0.057906  0.472057  0  4.173752  0
N  N76  1  0.81671486  0.72395488  0.20996426  1  0.399051  0  0.060871  0.515355  0  4.189744  0
N  N77  1  0.70734413  0.21895278  0.80279660  1  0.503598  0  0.063513  0.49019  0  4.16015  0
O  O78  1  0.94718823  0.57390659  0.05692914  1  -1.162509  0  -0.312357  -0.566187  0  2.273754  0
O  O79  1  0.06104378  0.59206044  0.16835068  1  -1.119826  0  -0.322931  -0.532376  0  2.226603  0
O  O80  1  0.84400897  0.38821745  0.91536177  1  -1.128568  0  -0.318932  -0.532365  0  2.292025  0
O  O81  1  0.94739976  0.40952309  0.03649064  1  -1.182907  0  -0.302475  -0.555254  0  2.337776  0
O  O82  1  0.00817441  0.42909713  0.91400415  1  -1.179368  0  -0.314423  -0.584319  0  2.330017  0
O  O83  1  0.10672685  0.43649995  0.02820030  1  -1.125518  0  -0.324155  -0.529416  0  2.178312  0
O  O84  1  0.00362330  0.58084506  0.92161593  1  -1.12086  0  -0.323876  -0.534187  0  2.209961  0
O  O85  1  0.11550231  0.61125119  0.04315098  1  -1.179062  0  -0.316334  -0.579782  0  2.291629  0
O  O86  1  0.42495251  0.09463740  0.99966014  1  -1.126404  0  -0.325006  -0.532637  0  2.194297  0
O  O87  1  0.42298555  0.99638317  0.88840414  1  -1.174125  0  -0.314932  -0.580447  0  2.303339  0
O  O88  1  0.59840656  0.11962443  0.02868947  1  -1.183095  0  -0.308328  -0.570511  0  2.328827  0
O  O89  1  0.58847240  0.01646727  0.91509579  1  -1.137944  0  -0.317004  -0.521324  0  2.24405  0
O  O90  1  0.58695817  0.06823883  0.15794000  1  -1.127397  0  -0.324353  -0.539966  0  2.234957  0
O  O91  1  0.58991090  0.96907453  0.05122000  1  -1.16719  0  -0.315845  -0.569352  0  2.27161  0
O  O92  1  0.40893977  0.93822160  0.01821356  1  -1.182914  0  -0.315685  -0.580744  0  2.318713  0
O  O93  1  0.40523147  0.83957190  0.90579611  1  -1.126796  0  -0.321956  -0.529921  0  2.199121  0
O  O94  1  0.05997134  0.97478065  0.59176165  1  -1.168836  0  -0.316804  -0.576  0  2.275791  0
O  O95  1  0.16432499  0.07815673  0.58988071  1  -1.132234  0  -0.32372  -0.537252  0  2.213034  0
O  O96  1  0.91219573  0.84255556  0.41943368  1  -1.111237  0  -0.309667  -0.516076  0  2.226447  0
O  O97  1  0.01634227  0.94054418  0.41189924  1  -1.150452  0  -0.301251  -0.551838  0  2.259947  0
O  O98  1  0.88155087  0.99297371  0.43279175  1  -1.16326  0  -0.311078  -0.569422  0  2.299329  0
O  O99  1  0.98974060  0.08872246  0.42740584  1  -1.119777  0  -0.324646  -0.534807  0  2.213464  0
O  O100  1  0.93133005  0.01863466  0.61067164  1  -1.114585  0  -0.322174  -0.528878  0  2.198988  0
O  O101  1  0.03211524  0.12278963  0.60592532  1  -1.17966  0  -0.318235  -0.587391  0  2.311362  0
O  O102  1  0.88794134  0.23302634  0.88584334  1  -0.441384  0  -0.097365  -0.286117  0  2.008669  0
O  O103  1  0.78340237  0.09796867  0.80977941  1  -0.418791  0  -0.115973  -0.296918  0  1.913192  0
O  O104  1  0.75611092  0.64903011  0.15737355  1  -0.432012  0  -0.13598  -0.331905  0  1.846051  0
O  O105  1  0.80959653  0.78933562  0.23644910  1  -0.435367  0  -0.124513  -0.314335  0  1.889412  0
O  O106  1  0.64522426  0.22986258  0.79881216  1  -0.43815  0  -0.114119  -0.300393  0  1.929115  0
O  O107  1  0.73557939  0.21629491  0.75215782  1  -0.423168  0  -0.112696  -0.292857  0  1.923498  0
