# generated using pymatgen
data_TlH4C6NO3
_symmetry_space_group_name_H-M   'P 1'
_cell_length_a   3.90199934
_cell_length_b   13.76108389
_cell_length_c   15.33570447
_cell_angle_alpha   116.58546746
_cell_angle_beta   90.15623074
_cell_angle_gamma   97.88278647
_symmetry_Int_Tables_number   1
_chemical_formula_structural   TlH4C6NO3
_chemical_formula_sum   'Tl4 H16 C24 N4 O12'
_cell_volume   727.52456255
_cell_formula_units_Z   4
loop_
 _symmetry_equiv_pos_site_id
 _symmetry_equiv_pos_as_xyz
  1  'x, y, z'
loop_
 _atom_site_type_symbol
 _atom_site_label
 _atom_site_symmetry_multiplicity
 _atom_site_fract_x
 _atom_site_fract_y
 _atom_site_fract_z
 _atom_site_occupancy
 _atom_site_hle17_bader_spin_density
 _atom_site_hle17_ddec_charge
 _atom_site_hle17_ddec_spin_density
 _atom_site_hle17_ddec_sum_bond_order
 _atom_site_hle17_magmom
 _atom_site_hse06_10hf_bader_spin_density
 _atom_site_hse06_10hf_ddec_charge
 _atom_site_hse06_10hf_ddec_spin_density
 _atom_site_hse06_10hf_ddec_sum_bond_order
 _atom_site_hse06_10hf_magmom
 _atom_site_hse06_bader_spin_density
 _atom_site_hse06_ddec_charge
 _atom_site_hse06_ddec_spin_density
 _atom_site_hse06_ddec_sum_bond_order
 _atom_site_hse06_magmom
 _atom_site_pbe_bader_spin_density
 _atom_site_pbe_cm5_charge
 _atom_site_pbe_ddec_charge
 _atom_site_pbe_ddec_spin_density
 _atom_site_pbe_ddec_sum_bond_order
 _atom_site_pbe_magmom
Tl  Tl0  1  0.63670786  0.95680510  0.36062415  1  0  0.833646  0  0.810707  0  0  0.719703  0  1.099001  0  0  0.755086  0  1.073004  0  0  0.412351  0.692927  0  1.118033  0
Tl  Tl1  1  0.68078532  0.04286524  0.13930661  1  0  0.833916  0  0.810675  0  0  0.72004  0  1.09918  0  0  0.755314  0  1.073337  0  0  0.412309  0.69344  0  1.117989  0
Tl  Tl2  1  0.36328048  0.04319313  0.63937359  1  0  0.833654  0  0.810705  0  0  0.719714  0  1.098991  0  0  0.755098  0  1.072996  0  0  0.412346  0.692939  0  1.118024  0
Tl  Tl3  1  0.31920943  0.95713556  0.86069604  1  0  0.83391  0  0.810708  0  0  0.720024  0  1.099214  0  0  0.755309  0  1.073349  0  0  0.412301  0.693427  0  1.118026  0
H  H4  1  0.28578789  0.42544410  0.45926599  1  0  0.103025  0  0.970085  0  0  0.110751  0  1.036465  0  0  0.113332  0  1.034537  0  0  0.107538  0.108864  0  1.037867  0
H  H5  1  0.85898253  0.57514373  0.04147550  1  0  0.102682  0  0.970404  0  0  0.110881  0  1.036438  0  0  0.113479  0  1.034478  0  0  0.107321  0.108972  0  1.037869  0
H  H6  1  0.71421749  0.57455749  0.54073565  1  0  0.103013  0  0.970073  0  0  0.110727  0  1.036467  0  0  0.113308  0  1.03454  0  0  0.107518  0.108839  0  1.03787  0
H  H7  1  0.14101230  0.42485206  0.95852262  1  0  0.102666  0  0.970411  0  0  0.110909  0  1.036401  0  0  0.11351  0  1.034436  0  0  0.107314  0.108999  0  1.037834  0
H  H8  1  0.13028261  0.53238781  0.63031850  1  0  0.100637  0  0.956376  0  0  0.110009  0  1.018536  0  0  0.113319  0  1.017724  0  0  0.100571  0.107636  0  1.019319  0
H  H9  1  0.59676088  0.46825071  0.87038408  1  0  0.100403  0  0.956321  0  0  0.109816  0  1.018501  0  0  0.113107  0  1.017722  0  0  0.100468  0.107447  0  1.019282  0
H  H10  1  0.86971253  0.46761380  0.36968380  1  0  0.100611  0  0.956425  0  0  0.110018  0  1.018538  0  0  0.113326  0  1.017734  0  0  0.10059  0.107644  0  1.019323  0
H  H11  1  0.40324619  0.53174913  0.12961364  1  0  0.100377  0  0.956329  0  0  0.109779  0  1.018519  0  0  0.11307  0  1.017743  0  0  0.100452  0.10741  0  1.019301  0
H  H12  1  0.98264699  0.43330362  0.73231264  1  0  0.085728  0  0.960569  0  0  0.098912  0  1.020277  0  0  0.100835  0  1.018945  0  0  0.101802  0.097512  0  1.02116  0
H  H13  1  0.55109491  0.56692950  0.76767334  1  0  0.085449  0  0.960036  0  0  0.098765  0  1.01986  0  0  0.10078  0  1.018397  0  0  0.101885  0.097324  0  1.020804  0
H  H14  1  0.01734393  0.56669464  0.26768643  1  0  0.085776  0  0.960502  0  0  0.098924  0  1.020254  0  0  0.10085  0  1.018919  0  0  0.101785  0.097522  0  1.021139  0
H  H15  1  0.44890963  0.43307040  0.23232635  1  0  0.085428  0  0.960041  0  0  0.098771  0  1.019844  0  0  0.100782  0  1.018382  0  0  0.101863  0.09733  0  1.020758  0
H  H16  1  0.00498933  0.23695027  0.66676719  1  0  0.083412  0  1.010442  0  0  0.089244  0  1.084148  0  0  0.091815  0  1.084391  0  0  0.091625  0.087449  0  1.08414  0
H  H17  1  0.77391395  0.76256214  0.83235893  1  0  0.083152  0  1.010676  0  0  0.089232  0  1.083991  0  0  0.091828  0  1.084224  0  0  0.091658  0.087446  0  1.083982  0
H  H18  1  0.99500794  0.76305046  0.33323282  1  0  0.083428  0  1.010428  0  0  0.08926  0  1.084141  0  0  0.091831  0  1.084384  0  0  0.091631  0.08747  0  1.084129  0
H  H19  1  0.22608119  0.23743947  0.16764337  1  0  0.083207  0  1.010695  0  0  0.0893  0  1.083988  0  0  0.091899  0  1.084219  0  0  0.091689  0.087512  0  1.083982  0
C  C20  1  0.16175136  0.21238531  0.52394330  1  0  0.362939  0  3.869428  0  0  0.344761  0  4.132855  0  0  0.366435  0  4.146325  0  0  0.099367  0.330384  0  4.122902  0
C  C21  1  0.95240697  0.78743997  0.97570068  1  0  0.364583  0  3.867462  0  0  0.346183  0  4.130718  0  0  0.368002  0  4.144054  0  0  0.100219  0.331682  0  4.120867  0
C  C22  1  0.83824512  0.78761381  0.47605740  1  0  0.362985  0  3.869548  0  0  0.344804  0  4.132985  0  0  0.366479  0  4.146453  0  0  0.099375  0.330427  0  4.12303  0
C  C23  1  0.04760189  0.21255829  0.02429839  1  0  0.364649  0  3.867456  0  0  0.346256  0  4.130676  0  0  0.368075  0  4.144014  0  0  0.100234  0.331751  0  4.120827  0
C  C24  1  0.23190484  0.27189156  0.46656750  1  0  -0.047104  0  3.623568  0  0  -0.066221  0  3.876296  0  0  -0.079168  0  3.898464  0  0  0.060772  -0.058293  0  3.861796  0
C  C25  1  0.96122469  0.72823269  0.03351273  1  0  -0.056178  0  3.616911  0  0  -0.066648  0  3.875189  0  0  -0.079766  0  3.897524  0  0  0.061626  -0.058529  0  3.860462  0
C  C26  1  0.76809543  0.72811004  0.53343480  1  0  -0.047177  0  3.623733  0  0  -0.066335  0  3.876493  0  0  -0.079282  0  3.898659  0  0  0.060724  -0.058403  0  3.861987  0
C  C27  1  0.03878292  0.27176306  0.96648407  1  0  -0.056373  0  3.617172  0  0  -0.066813  0  3.875405  0  0  -0.079935  0  3.897746  0  0  0.061597  -0.058692  0  3.86068  0
C  C28  1  0.22785909  0.38618773  0.50647869  1  0  -0.082499  0  3.771064  0  0  -0.106962  0  4.032717  0  0  -0.101337  0  4.053021  0  0  -0.087141  -0.110126  0  4.018839  0
C  C29  1  0.84148383  0.61420240  0.99397886  1  0  -0.082073  0  3.77303  0  0  -0.106894  0  4.033471  0  0  -0.101256  0  4.053808  0  0  -0.086982  -0.11005  0  4.019513  0
C  C30  1  0.77214927  0.61381469  0.49352393  1  0  -0.082467  0  3.771033  0  0  -0.10692  0  4.032734  0  0  -0.101295  0  4.053039  0  0  -0.087135  -0.110093  0  4.018878  0
C  C31  1  0.15851180  0.38579502  0.00601922  1  0  -0.081935  0  3.773015  0  0  -0.106796  0  4.033424  0  0  -0.101156  0  4.053761  0  0  -0.086881  -0.109956  0  4.01947  0
C  C32  1  0.13932369  0.44468006  0.60081624  1  0  -0.113555  0  3.785207  0  0  -0.132461  0  4.048611  0  0  -0.143323  0  4.073405  0  0  -0.107572  -0.12555  0  4.031898  0
C  C33  1  0.69453753  0.55573802  0.89962402  1  0  -0.114026  0  3.784251  0  0  -0.132857  0  4.048146  0  0  -0.143724  0  4.073013  0  0  -0.107754  -0.125948  0  4.031393  0
C  C34  1  0.86067911  0.55532151  0.39918474  1  0  -0.113547  0  3.785227  0  0  -0.132485  0  4.048639  0  0  -0.143348  0  4.073431  0  0  -0.107603  -0.125572  0  4.031923  0
C  C35  1  0.30546833  0.44425937  0.10037341  1  0  -0.114098  0  3.784264  0  0  -0.13293  0  4.048188  0  0  -0.143799  0  4.073056  0  0  -0.107822  -0.126021  0  4.031431  0
C  C36  1  0.05704782  0.38869756  0.65780916  1  0  0.000559  0  3.756698  0  0  -0.015819  0  4.003758  0  0  -0.00906  0  4.022964  0  0  -0.077812  -0.019792  0  3.990321  0
C  C37  1  0.67017740  0.61145311  0.84218372  1  0  0.001638  0  3.754932  0  0  -0.015027  0  4.002263  0  0  -0.008334  0  4.021449  0  0  -0.0776  -0.018969  0  3.988868  0
C  C38  1  0.94294907  0.61130240  0.34219251  1  0  0.000514  0  3.756709  0  0  -0.015837  0  4.003768  0  0  -0.009079  0  4.022973  0  0  -0.077802  -0.01981  0  3.99033  0
C  C39  1  0.32982929  0.38854594  0.15781500  1  0  0.001679  0  3.754767  0  0  -0.01501  0  4.002088  0  0  -0.00831  0  4.021271  0  0  -0.077566  -0.018935  0  3.988684  0
C  C40  1  0.06934242  0.27795069  0.62099021  1  0  -0.21731  0  3.733133  0  0  -0.23082  0  3.982241  0  0  -0.243717  0  4.005174  0  0  -0.111657  -0.222358  0  3.966601  0
C  C41  1  0.79546529  0.72184801  0.87855195  1  0  -0.21704  0  3.731633  0  0  -0.230529  0  3.981063  0  0  -0.243429  0  4.003899  0  0  -0.111544  -0.222109  0  3.965501  0
C  C42  1  0.93066296  0.72205089  0.37901143  1  0  -0.217295  0  3.733099  0  0  -0.230801  0  3.982182  0  0  -0.243698  0  4.005115  0  0  -0.111627  -0.222344  0  3.966536  0
C  C43  1  0.20453038  0.27814947  0.12144811  1  0  -0.217082  0  3.731503  0  0  -0.230598  0  3.980934  0  0  -0.243498  0  4.003766  0  0  -0.111568  -0.22218  0  3.965374  0
N  N44  1  0.31232091  0.21817930  0.36771500  1  0  0.485681  0  3.942858  0  0  0.542718  0  4.190712  0  0  0.566976  0  4.199796  0  0  0.037355  0.526536  0  4.184302  0
N  N45  1  0.09567890  0.78185850  0.13233963  1  0  0.51361  0  3.90176  0  0  0.542569  0  4.191202  0  0  0.566858  0  4.20035  0  0  0.036839  0.526345  0  4.184729  0
N  N46  1  0.68767797  0.78182470  0.63228562  1  0  0.485608  0  3.943065  0  0  0.5427  0  4.190856  0  0  0.566957  0  4.199945  0  0  0.037357  0.526516  0  4.184441  0
N  N47  1  0.90432186  0.21813894  0.86765911  1  0  0.513797  0  3.901818  0  0  0.542759  0  4.191242  0  0  0.567049  0  4.200386  0  0  0.036886  0.526532  0  4.184772  0
O  O48  1  0.18620810  0.10968818  0.49463200  1  0  -0.673123  0  2.042614  0  0  -0.601038  0  2.278669  0  0  -0.634586  0  2.279729  0  0  -0.320776  -0.576584  0  2.276579  0
O  O49  1  0.08026653  0.88985123  0.00479340  1  0  -0.674082  0  2.039875  0  0  -0.602024  0  2.275995  0  0  -0.635572  0  2.277025  0  0  -0.321618  -0.577638  0  2.274052  0
O  O50  1  0.81379010  0.89030926  0.50536675  1  0  -0.673124  0  2.042753  0  0  -0.601046  0  2.27881  0  0  -0.634604  0  2.279893  0  0  -0.32077  -0.576591  0  2.276718  0
O  O51  1  0.91973548  0.11014871  0.99520761  1  0  -0.67409  0  2.039885  0  0  -0.602042  0  2.275994  0  0  -0.63559  0  2.277024  0  0  -0.321629  -0.577654  0  2.274049  0
O  O52  1  0.21368757  0.11521740  0.31846398  1  0  -0.513427  0  1.905602  0  0  -0.478553  0  2.127597  0  0  -0.498863  0  2.127663  0  0  -0.158644  -0.463996  0  2.127401  0
O  O53  1  0.10095855  0.88500753  0.18137660  1  0  -0.523585  0  1.894061  0  0  -0.479148  0  2.128731  0  0  -0.49956  0  2.128853  0  0  -0.158903  -0.464521  0  2.128531  0
O  O54  1  0.78631857  0.88478576  0.68153566  1  0  -0.513339  0  1.905648  0  0  -0.478471  0  2.127608  0  0  -0.498781  0  2.127677  0  0  -0.158605  -0.463921  0  2.127429  0
O  O55  1  0.89903711  0.11498994  0.81862346  1  0  -0.523646  0  1.893981  0  0  -0.479196  0  2.128632  0  0  -0.499609  0  2.128751  0  0  -0.158896  -0.464567  0  2.128434  0
O  O56  1  0.47482216  0.27224306  0.32891537  1  0  -0.408711  0  1.751137  0  0  -0.384307  0  1.944613  0  0  -0.397765  0  1.941752  0  0  -0.147818  -0.374748  0  1.946353  0
O  O57  1  0.20363036  0.72757018  0.17135621  1  0  -0.418339  0  1.738778  0  0  -0.38427  0  1.944866  0  0  -0.397701  0  1.941965  0  0  -0.147877  -0.374746  0  1.946702  0
O  O58  1  0.52517027  0.72776345  0.67108751  1  0  -0.40872  0  1.751218  0  0  -0.384296  0  1.944627  0  0  -0.397754  0  1.941767  0  0  -0.147832  -0.374738  0  1.946378  0
O  O59  1  0.79638658  0.27242887  0.82864251  1  0  -0.418422  0  1.738869  0  0  -0.384374  0  1.945009  0  0  -0.397809  0  1.942107  0  0  -0.147936  -0.374847  0  1.946835  0
