# generated using pymatgen
data_ZnH8C10NO4
_symmetry_space_group_name_H-M   'P 1'
_cell_length_a   10.15880119
_cell_length_b   14.89943803
_cell_length_c   18.21273560
_cell_angle_alpha   114.90203131
_cell_angle_beta   89.99959843
_cell_angle_gamma   90.00018982
_symmetry_Int_Tables_number   1
_chemical_formula_structural   ZnH8C10NO4
_chemical_formula_sum   'Zn8 H64 C80 N8 O32'
_cell_volume   2500.39571628
_cell_formula_units_Z   8
loop_
 _symmetry_equiv_pos_site_id
 _symmetry_equiv_pos_as_xyz
  1  'x, y, z'
loop_
 _atom_site_type_symbol
 _atom_site_label
 _atom_site_symmetry_multiplicity
 _atom_site_fract_x
 _atom_site_fract_y
 _atom_site_fract_z
 _atom_site_occupancy
 _atom_site_pbe_bader_charge
 _atom_site_pbe_bader_spin_density
 _atom_site_pbe_cm5_charge
 _atom_site_pbe_ddec_charge
 _atom_site_pbe_ddec_spin_density
 _atom_site_pbe_ddec_sum_bond_order
 _atom_site_pbe_magmom
Zn  Zn0  1  0.72034917  0.89426189  0.75253379  1  1.290533  0  0.7119  0.878854  0  2.321393  0
Zn  Zn1  1  0.95092446  0.15039454  0.95620102  1  1.288421  0  0.686575  0.853518  0  2.258925  0
Zn  Zn2  1  0.22035718  0.10574052  0.74746612  1  1.290556  0  0.711853  0.878781  0  2.321542  0
Zn  Zn3  1  0.45092784  0.84960571  0.54379615  1  1.288353  0  0.686555  0.853433  0  2.259047  0
Zn  Zn4  1  0.27964488  0.10573643  0.24746318  1  1.290443  0  0.71187  0.878798  0  2.321483  0
Zn  Zn5  1  0.04907254  0.84960601  0.04379890  1  1.288525  0  0.686578  0.853484  0  2.258869  0
Zn  Zn6  1  0.77964770  0.89426227  0.25253621  1  1.29043  0  0.711857  0.878798  0  2.32163  0
Zn  Zn7  1  0.54908000  0.15038893  0.45620230  1  1.288584  0  0.686584  0.853526  0  2.258929  0
H  H8  1  0.30245879  0.74582113  0.77753818  1  0.07077  0  0.095426  0.08461  0  1.006899  0
H  H9  1  0.16889425  0.86310347  0.75444181  1  0.091232  0  0.108928  0.108876  0  0.992634  0
H  H10  1  0.37199423  0.01465603  0.85803591  1  0.084961  0  0.10768  0.100123  0  1.000938  0
H  H11  1  0.39163609  0.91264409  0.92907657  1  0.052608  0  0.104494  0.106401  0  0.956456  0
H  H12  1  0.76738079  0.69589882  0.75554002  1  0.132645  0  0.123279  0.099095  0  1.000979  0
H  H13  1  0.92430491  0.55431512  0.68652609  1  0.058417  0  0.109463  0.113908  0  0.998662  0
H  H14  1  0.11069427  0.72987576  0.57812569  1  0.113589  0  0.11921  0.136596  0  0.975035  0
H  H15  1  0.95352191  0.86470755  0.65495163  1  0.109856  0  0.125219  0.092719  0  0.99798  0
H  H16  1  0.44860234  0.29463119  0.39577031  1  0.186053  0  0.118989  0.102861  0  1.032237  0
H  H17  1  0.34004135  0.45923384  0.45117529  1  0.05738  0  0.109046  0.119078  0  0.989482  0
H  H18  1  0.36857374  0.46266106  0.68876821  1  0.013093  0  0.105277  0.109843  0  1.008752  0
H  H19  1  0.48029559  0.29508728  0.62277828  1  0.195164  0  0.114821  0.096967  0  1.058412  0
H  H20  1  0.08756488  0.47913160  0.58823491  1  0.045281  0  0.097562  0.096911  0  0.978045  0
H  H21  1  0.11852481  0.52647571  0.51576545  1  0.071135  0  0.097929  0.097458  0  0.99588  0
H  H22  1  0.26761046  0.59854282  0.67728267  1  0.00659  0  0.100204  0.105369  0  0.984306  0
H  H23  1  0.30607031  0.62546466  0.59427060  1  0.074206  0  0.104055  0.118115  0  0.980229  0
H  H24  1  0.80246280  0.25417610  0.72245525  1  0.070858  0  0.095419  0.084624  0  1.00686  0
H  H25  1  0.66889149  0.13689372  0.74555102  1  0.091515  0  0.108914  0.108869  0  0.992671  0
H  H26  1  0.87199495  0.98533903  0.64196090  1  0.08491  0  0.107654  0.100093  0  1.00096  0
H  H27  1  0.89164907  0.08735097  0.57092016  1  0.052369  0  0.104528  0.10642  0  0.956464  0
H  H28  1  0.26738587  0.30410363  0.74446521  1  0.132324  0  0.123323  0.099159  0  1.000898  0
H  H29  1  0.42430882  0.44569034  0.81348066  1  0.057873  0  0.109443  0.113879  0  0.998641  0
H  H30  1  0.61069486  0.27012885  0.92187924  1  0.114373  0  0.119208  0.136585  0  0.975011  0
H  H31  1  0.45352884  0.13529495  0.84505124  1  0.109919  0  0.125219  0.092733  0  0.998032  0
H  H32  1  0.94859527  0.70536092  0.10423112  1  0.18971  0  0.118962  0.102838  0  1.032287  0
H  H33  1  0.84003812  0.54075674  0.04882329  1  0.057383  0  0.10904  0.119081  0  0.989574  0
H  H34  1  0.86857113  0.53733993  0.81123338  1  0.013103  0  0.105294  0.109864  0  1.008756  0
H  H35  1  0.98029099  0.70491376  0.87722729  1  0.187362  0  0.114807  0.096967  0  1.058496  0
H  H36  1  0.58756584  0.52087303  0.91177506  1  0.045017  0  0.097567  0.096889  0  0.978102  0
H  H37  1  0.61852955  0.47352300  0.98424018  1  0.070978  0  0.097943  0.097502  0  0.995924  0
H  H38  1  0.76760212  0.40145517  0.82271665  1  0.006599  0  0.100174  0.105362  0  0.984196  0
H  H39  1  0.80606473  0.37453184  0.90572586  1  0.074207  0  0.104069  0.118128  0  0.980222  0
H  H40  1  0.69753920  0.25417721  0.22246319  1  0.070814  0  0.095444  0.084636  0  1.006883  0
H  H41  1  0.83110177  0.13689191  0.24555634  1  0.091513  0  0.108913  0.108814  0  0.992631  0
H  H42  1  0.62800474  0.98533932  0.14195785  1  0.08494  0  0.107655  0.100084  0  1.000975  0
H  H43  1  0.60836092  0.08735942  0.07092382  1  0.05252  0  0.104459  0.106363  0  0.956477  0
H  H44  1  0.23262507  0.30410100  0.24446076  1  0.132601  0  0.123261  0.099075  0  1.000955  0
H  H45  1  0.07569899  0.44568616  0.31347134  1  0.058356  0  0.109436  0.113861  0  0.998721  0
H  H46  1  0.88930077  0.27012699  0.42187004  1  0.10705  0  0.119204  0.136534  0  0.974969  0
H  H47  1  0.04647214  0.13529373  0.34504580  1  0.110125  0  0.125216  0.092723  0  0.997991  0
H  H48  1  0.55139959  0.70536416  0.60422400  1  0.186126  0  0.118985  0.102864  0  1.032248  0
H  H49  1  0.65996353  0.54076151  0.54881901  1  0.057556  0  0.109027  0.119024  0  0.98946  0
H  H50  1  0.63141834  0.53733355  0.31122585  1  0.013118  0  0.10528  0.109856  0  1.008709  0
H  H51  1  0.51969747  0.70490808  0.37721713  1  0.195145  0  0.114804  0.096945  0  1.058444  0
H  H52  1  0.91243409  0.52087191  0.41176438  1  0.045213  0  0.097557  0.09689  0  0.978011  0
H  H53  1  0.88147514  0.47352408  0.48423092  1  0.071239  0  0.097906  0.097427  0  0.99602  0
H  H54  1  0.73239245  0.40145180  0.32271304  1  0.006842  0  0.100165  0.105375  0  0.984319  0
H  H55  1  0.69393358  0.37453663  0.40572848  1  0.074338  0  0.10408  0.118152  0  0.980214  0
H  H56  1  0.19754602  0.74582444  0.27754138  1  0.070777  0  0.095419  0.084615  0  1.00692  0
H  H57  1  0.33110354  0.86310904  0.25444581  1  0.091496  0  0.1089  0.108818  0  0.992648  0
H  H58  1  0.12800206  0.01466005  0.35803907  1  0.084901  0  0.107653  0.10009  0  1.000979  0
H  H59  1  0.10836368  0.91264442  0.42907964  1  0.052594  0  0.104492  0.106352  0  0.956396  0
H  H60  1  0.73262196  0.69589474  0.25554000  1  0.1322  0  0.123267  0.099036  0  1.001038  0
H  H61  1  0.57568917  0.55431543  0.18652984  1  0.058291  0  0.109427  0.113823  0  0.998705  0
H  H62  1  0.38930805  0.72988211  0.07813412  1  0.106921  0  0.119219  0.136584  0  0.975118  0
H  H63  1  0.54648097  0.86471083  0.15496036  1  0.110148  0  0.125288  0.092751  0  0.99802  0
H  H64  1  0.05141551  0.29463375  0.89577394  1  0.186104  0  0.11898  0.102941  0  1.032165  0
H  H65  1  0.15997365  0.45923718  0.95117986  1  0.057475  0  0.109017  0.119014  0  0.989492  0
H  H66  1  0.13141013  0.46266731  0.18877267  1  0.013153  0  0.105315  0.109893  0  1.008733  0
H  H67  1  0.01969518  0.29509127  0.12278076  1  0.195205  0  0.114834  0.096935  0  1.058427  0
H  H68  1  0.41243313  0.47913274  0.08823378  1  0.045247  0  0.097544  0.096856  0  0.978114  0
H  H69  1  0.38147533  0.52648129  0.01576816  1  0.0712  0  0.097924  0.097447  0  0.995911  0
H  H70  1  0.23239095  0.59855058  0.17728780  1  0.006829  0  0.100194  0.105422  0  0.984336  0
H  H71  1  0.19393425  0.62546797  0.09427491  1  0.07423  0  0.104055  0.118123  0  0.980252  0
C  C72  1  0.34594134  0.81934571  0.79686179  1  -0.004229  0  -0.082466  -0.134963  0  3.766332  0
C  C73  1  0.27127836  0.88920786  0.76677583  1  0.00112  0  -0.079888  -0.155889  0  3.810398  0
C  C74  1  0.28075945  0.97319176  0.85374871  1  -0.010263  0  -0.082013  -0.149497  0  3.817801  0
C  C75  1  0.31082658  0.89342072  0.88540877  1  0.007097  0  -0.081074  -0.124305  0  3.742129  0
C  C76  1  0.49225397  0.81041224  0.77826817  1  1.54511  0  0.200637  0.60305  0  4.171846  0
C  C77  1  0.32475563  0.90201237  0.69453635  1  1.550625  0  0.219733  0.615441  0  4.130368  0
C  C78  1  0.16882057  0.04593879  0.88376042  1  1.541208  0  0.216844  0.607709  0  4.123935  0
C  C79  1  0.19224439  0.85839369  0.91718513  1  1.595232  0  0.19991  0.608426  0  4.185803  0
C  C80  1  0.84768481  0.70028248  0.71748378  1  0.445515  0  0.062381  0.12023  0  3.927965  0
C  C81  1  0.93328257  0.62202812  0.67763055  1  0.031675  0  -0.081555  -0.189227  0  3.946338  0
C  C82  1  0.02920084  0.62941208  0.62534054  1  -0.046067  0  0.017615  0.170886  0  3.956213  0
C  C83  1  0.03705145  0.71857251  0.61699010  1  0.043757  0  -0.075493  -0.174321  0  3.909866  0
C  C84  1  0.94977520  0.79418713  0.65965828  1  0.417009  0  0.058511  0.106076  0  3.941829  0
C  C85  1  0.42885954  0.33407613  0.46043580  1  0.426525  0  0.048256  0.100862  0  3.923792  0
C  C86  1  0.36819591  0.42612834  0.49207898  1  0.039583  0  -0.086351  -0.189879  0  3.950359  0
C  C87  1  0.34314826  0.47439318  0.57537040  1  -0.09144  0  0.014513  0.170133  0  3.962913  0
C  C88  1  0.38475806  0.42741413  0.62353192  1  0.039711  0  -0.089005  -0.191598  0  3.96227  0
C  C89  1  0.44558807  0.33541917  0.58829817  1  0.417198  0  0.045505  0.089267  0  3.944364  0
C  C90  1  0.12103459  0.54520140  0.58102410  1  -0.036219  0  -0.152046  -0.199868  0  3.953247  0
C  C91  1  0.26486836  0.56828743  0.61092700  1  0.019915  0  -0.149877  -0.194873  0  3.90744  0
C  C92  1  0.84594425  0.18065080  0.70313287  1  -0.003961  0  -0.08243  -0.134974  0  3.766516  0
C  C93  1  0.77127662  0.11079084  0.73321878  1  0.000541  0  -0.079818  -0.155913  0  3.810542  0
C  C94  1  0.78076233  0.02680474  0.64624730  1  -0.010676  0  -0.082018  -0.149478  0  3.817797  0
C  C95  1  0.81083517  0.10657430  0.61458607  1  0.007851  0  -0.081175  -0.124388  0  3.742122  0
C  C96  1  0.99225571  0.18958507  0.72173004  1  1.544265  0  0.200674  0.603101  0  4.171783  0
C  C97  1  0.82475095  0.09798857  0.80546046  1  1.550753  0  0.21969  0.615349  0  4.130284  0
C  C98  1  0.66882145  0.95406138  0.61623673  1  1.541316  0  0.216818  0.607677  0  4.12389  0
C  C99  1  0.69225454  0.14159759  0.58280780  1  1.595169  0  0.200016  0.608602  0  4.185692  0
C  C100  1  0.34769234  0.29972222  0.78252355  1  0.445612  0  0.062486  0.12039  0  3.927991  0
C  C101  1  0.43328407  0.37797513  0.82237596  1  0.032511  0  -0.081646  -0.189324  0  3.946341  0
C  C102  1  0.52920154  0.37059177  0.87466500  1  -0.04609  0  0.017641  0.170822  0  3.956241  0
C  C103  1  0.53705259  0.28143209  0.88301621  1  0.042958  0  -0.075449  -0.174148  0  3.909639  0
C  C104  1  0.44977860  0.20581390  0.84034686  1  0.416986  0  0.05848  0.105984  0  3.941617  0
C  C105  1  0.92885211  0.66591671  0.03956540  1  0.41959  0  0.048136  0.10066  0  3.924111  0
C  C106  1  0.86819040  0.57386595  0.00792076  1  0.042614  0  -0.086165  -0.189657  0  3.950383  0
C  C107  1  0.84314612  0.52560262  0.92463007  1  -0.09109  0  0.014428  0.170031  0  3.962797  0
C  C108  1  0.88475480  0.57258390  0.87646805  1  0.039382  0  -0.089024  -0.191624  0  3.962182  0
C  C109  1  0.94558186  0.66458037  0.91170592  1  0.425058  0  0.04558  0.089311  0  3.944471  0
C  C110  1  0.62103612  0.45480100  0.91898168  1  -0.035876  0  -0.152054  -0.199922  0  3.953466  0
C  C111  1  0.76486523  0.43171130  0.88907258  1  0.019954  0  -0.149884  -0.194863  0  3.907376  0
C  C112  1  0.65405567  0.18065336  0.20313763  1  -0.003902  0  -0.08245  -0.134945  0  3.766494  0
C  C113  1  0.72871667  0.11078972  0.23322199  1  0.000588  0  -0.079817  -0.155735  0  3.810326  0
C  C114  1  0.71923755  0.02680730  0.14624851  1  -0.010268  0  -0.082023  -0.149498  0  3.817721  0
C  C115  1  0.68917141  0.10657983  0.11459061  1  0.007218  0  -0.081144  -0.124384  0  3.742262  0
C  C116  1  0.50774205  0.18958757  0.22173096  1  1.544269  0  0.200569  0.60287  0  4.172145  0
C  C117  1  0.67523941  0.09798596  0.30546172  1  1.550767  0  0.219764  0.615368  0  4.130432  0
C  C118  1  0.83118333  0.95406545  0.11623747  1  1.541397  0  0.216883  0.607778  0  4.123991  0
C  C119  1  0.80775261  0.14160612  0.08281400  1  1.595086  0  0.199962  0.608505  0  4.185917  0
C  C120  1  0.15231515  0.29971955  0.28251665  1  0.445518  0  0.062374  0.120257  0  3.928136  0
C  C121  1  0.06672330  0.37797168  0.32236693  1  0.031587  0  -0.081415  -0.189095  0  3.946509  0
C  C122  1  0.97080108  0.37059068  0.37465739  1  -0.045989  0  0.017579  0.170825  0  3.95631  0
C  C123  1  0.96294851  0.28142876  0.38300623  1  0.050408  0  -0.075537  -0.174261  0  3.909857  0
C  C124  1  0.05022082  0.20581341  0.34034000  1  0.416724  0  0.058553  0.106136  0  3.941782  0
C  C125  1  0.57114239  0.66591848  0.53955825  1  0.423484  0  0.04819  0.100736  0  3.923931  0
C  C126  1  0.63180700  0.57386998  0.50791689  1  0.042531  0  -0.086269  -0.189677  0  3.950352  0
C  C127  1  0.65685367  0.52560514  0.42462547  1  -0.091356  0  0.014516  0.170002  0  3.96298  0
C  C128  1  0.61523796  0.57258197  0.37646264  1  0.039512  0  -0.088956  -0.191521  0  3.962133  0
C  C129  1  0.55440795  0.66457544  0.41169643  1  0.417449  0  0.045598  0.089404  0  3.944169  0
C  C130  1  0.87896635  0.45479988  0.41897278  1  -0.036245  0  -0.152026  -0.199794  0  3.953427  0
C  C131  1  0.73513455  0.43171237  0.38906938  1  0.019504  0  -0.149859  -0.194944  0  3.907528  0
C  C132  1  0.15405767  0.81934604  0.29686359  1  -0.00391  0  -0.082481  -0.135043  0  3.766463  0
C  C133  1  0.22871842  0.88921044  0.26677810  1  0.000599  0  -0.079799  -0.155784  0  3.810448  0
C  C134  1  0.21923664  0.97319433  0.35375047  1  -0.010336  0  -0.082037  -0.149564  0  3.81799  0
C  C135  1  0.18917069  0.89342254  0.38540984  1  0.007105  0  -0.081093  -0.124147  0  3.742004  0
C  C136  1  0.00774523  0.81040660  0.27826740  1  1.545085  0  0.200624  0.602931  0  4.172192  0
C  C137  1  0.17524212  0.90200975  0.19453596  1  1.549826  0  0.219698  0.615302  0  4.130338  0
C  C138  1  0.33117457  0.04593990  0.38375960  1  1.541187  0  0.216859  0.60773  0  4.123765  0
C  C139  1  0.30775723  0.85839256  0.41717979  1  1.595047  0  0.199837  0.608324  0  4.185893  0
C  C140  1  0.65231648  0.70027986  0.21748513  1  0.445901  0  0.06242  0.120323  0  3.927976  0
C  C141  1  0.56671589  0.62202769  0.17763353  1  0.031839  0  -0.081529  -0.189142  0  3.946278  0
C  C142  1  0.47079842  0.62941326  0.12534414  1  -0.046131  0  0.017631  0.170878  0  3.956157  0
C  C143  1  0.46295032  0.71857518  0.11699644  1  0.050501  0  -0.075538  -0.174319  0  3.909945  0
C  C144  1  0.55022727  0.79418892  0.15966373  1  0.416812  0  0.058448  0.106028  0  3.942021  0
C  C145  1  0.07114981  0.33408166  0.96044092  1  0.423333  0  0.048191  0.100677  0  3.923898  0
C  C146  1  0.13181349  0.42613092  0.99208285  1  0.042732  0  -0.0863  -0.189702  0  3.950306  0
C  C147  1  0.15685187  0.47439796  0.07537480  1  -0.091393  0  0.014568  0.170076  0  3.962791  0
C  C148  1  0.11523335  0.42742111  0.12353670  1  0.039563  0  -0.088971  -0.191595  0  3.962214  0
C  C149  1  0.05440629  0.33542466  0.08830212  1  0.417447  0  0.045544  0.089453  0  3.94409  0
C  C150  1  0.37896384  0.54520329  0.08102666  1  -0.036471  0  -0.152002  -0.199725  0  3.953321  0
C  C151  1  0.23513178  0.56829150  0.11093196  1  0.01985  0  -0.149879  -0.194966  0  3.907484  0
N  N152  1  0.85560234  0.78506709  0.70827949  1  -1.242102  0  -0.326485  -0.236867  0  3.585195  0
N  N153  1  0.46613420  0.28917921  0.50782135  1  -1.244307  0  -0.328043  -0.239059  0  3.564135  0
N  N154  1  0.35560738  0.21493685  0.79172316  1  -1.24213  0  -0.326523  -0.23695  0  3.585311  0
N  N155  1  0.96612621  0.71081738  0.99218166  1  -1.244184  0  -0.328043  -0.239006  0  3.564355  0
N  N156  1  0.14439860  0.21493419  0.29171793  1  -1.24205  0  -0.326526  -0.236969  0  3.58523  0
N  N157  1  0.53386576  0.71081615  0.49217406  1  -1.244424  0  -0.328159  -0.239161  0  3.564138  0
N  N158  1  0.64440144  0.78506521  0.20828277  1  -1.242182  0  -0.326501  -0.23689  0  3.585388  0
N  N159  1  0.03386882  0.28918394  0.00782457  1  -1.244454  0  -0.328152  -0.239235  0  3.564045  0
O  O160  1  0.55459405  0.89502785  0.80442600  1  -1.158249  0  -0.341723  -0.566354  0  2.293348  0
O  O161  1  0.54444324  0.72777879  0.74043332  1  -1.191379  0  -0.339897  -0.578012  0  2.10003  0
O  O162  1  0.32872187  0.98662319  0.69232989  1  -1.178329  0  -0.319569  -0.549325  0  2.347266  0
O  O163  1  0.36641525  0.82449812  0.63590971  1  -1.169306  0  -0.304787  -0.528662  0  2.31409  0
O  O164  1  0.09463036  0.04998577  0.94103487  1  -1.137798  0  -0.287782  -0.473779  0  2.247555  0
O  O165  1  0.15091822  0.10471769  0.84955570  1  -1.187014  0  -0.328924  -0.589672  0  2.410882  0
O  O166  1  0.20371086  0.87349103  0.99242370  1  -1.167394  0  -0.350046  -0.578095  0  2.306089  0
O  O167  1  0.09751785  0.81690651  0.87162426  1  -1.199139  0  -0.336892  -0.569051  0  2.11552  0
O  O168  1  0.05459779  0.10497009  0.69557688  1  -1.157506  0  -0.341709  -0.566338  0  2.293328  0
O  O169  1  0.04444502  0.27221912  0.75956575  1  -1.191275  0  -0.339972  -0.578085  0  2.100015  0
O  O170  1  0.82871182  0.01337851  0.80766881  1  -1.178179  0  -0.319642  -0.549339  0  2.347107  0
O  O171  1  0.86641513  0.17550135  0.86408479  1  -1.169454  0  -0.304739  -0.528566  0  2.314145  0
O  O172  1  0.59464278  0.95001064  0.55895635  1  -1.137933  0  -0.287829  -0.473739  0  2.247554  0
O  O173  1  0.65090363  0.89529210  0.65044810  1  -1.186982  0  -0.328823  -0.589654  0  2.410885  0
O  O174  1  0.70372089  0.12649804  0.50756842  1  -1.167718  0  -0.350025  -0.578145  0  2.306305  0
O  O175  1  0.59752565  0.18308621  0.62836787  1  -1.199206  0  -0.337023  -0.569149  0  2.115279  0
O  O176  1  0.44540197  0.10497197  0.19557368  1  -1.157437  0  -0.341653  -0.566278  0  2.293396  0
O  O177  1  0.45555278  0.27222175  0.25956441  1  -1.191379  0  -0.339898  -0.577917  0  2.10016  0
O  O178  1  0.67127612  0.01337515  0.30766983  1  -1.17836  0  -0.319593  -0.549306  0  2.347267  0
O  O179  1  0.63357880  0.17550020  0.36408726  1  -1.169426  0  -0.304798  -0.52862  0  2.314186  0
O  O180  1  0.90535778  0.95001180  0.05895855  1  -1.138046  0  -0.28784  -0.473797  0  2.247692  0
O  O181  1  0.84909945  0.89529990  0.15045444  1  -1.187001  0  -0.328864  -0.589717  0  2.410952  0
O  O182  1  0.79628516  0.12651322  0.00757694  1  -1.167461  0  -0.350067  -0.578123  0  2.306168  0
O  O183  1  0.90248211  0.18309035  0.12837495  1  -1.199056  0  -0.336913  -0.569073  0  2.115538  0
O  O184  1  0.94540020  0.89501939  0.30442531  1  -1.158093  0  -0.34173  -0.56637  0  2.293524  0
O  O185  1  0.95556281  0.72777032  0.24042874  1  -1.191499  0  -0.339872  -0.577866  0  2.100281  0
O  O186  1  0.17127829  0.98662351  0.19232832  1  -1.177923  0  -0.319577  -0.549277  0  2.347053  0
O  O187  1  0.13358581  0.82449845  0.13591269  1  -1.168932  0  -0.304752  -0.528526  0  2.314182  0
O  O188  1  0.40536604  0.04998544  0.44103711  1  -1.137767  0  -0.287835  -0.473817  0  2.247322  0
O  O189  1  0.34908353  0.10471290  0.34955334  1  -1.186972  0  -0.328891  -0.589667  0  2.410924  0
O  O190  1  0.29629285  0.87348547  0.49241909  1  -1.16747  0  -0.350018  -0.578038  0  2.306045  0
O  O191  1  0.40248021  0.81690910  0.37161763  1  -1.198872  0  -0.336835  -0.569002  0  2.115606  0
