# generated using pymatgen
data_AlP2H11C10(NO4)2
_symmetry_space_group_name_H-M   'P 1'
_cell_length_a   8.31631035
_cell_length_b   10.90618502
_cell_length_c   15.69250732
_cell_angle_alpha   89.99977759
_cell_angle_beta   89.99987973
_cell_angle_gamma   109.29038081
_symmetry_Int_Tables_number   1
_chemical_formula_structural   AlP2H11C10(NO4)2
_chemical_formula_sum   'Al4 P8 H44 C40 N8 O32'
_cell_volume   1343.38911928
_cell_formula_units_Z   4
loop_
 _symmetry_equiv_pos_site_id
 _symmetry_equiv_pos_as_xyz
  1  'x, y, z'
loop_
 _atom_site_type_symbol
 _atom_site_label
 _atom_site_symmetry_multiplicity
 _atom_site_fract_x
 _atom_site_fract_y
 _atom_site_fract_z
 _atom_site_occupancy
 _atom_site_hle17_bader_spin_density
 _atom_site_hle17_ddec_charge
 _atom_site_hle17_ddec_spin_density
 _atom_site_hle17_ddec_sum_bond_order
 _atom_site_hle17_magmom
 _atom_site_hse06_10hf_bader_spin_density
 _atom_site_hse06_10hf_ddec_charge
 _atom_site_hse06_10hf_ddec_spin_density
 _atom_site_hse06_10hf_ddec_sum_bond_order
 _atom_site_hse06_10hf_magmom
 _atom_site_hse06_bader_spin_density
 _atom_site_hse06_ddec_charge
 _atom_site_hse06_ddec_spin_density
 _atom_site_hse06_ddec_sum_bond_order
 _atom_site_hse06_magmom
 _atom_site_pbe_bader_spin_density
 _atom_site_pbe_cm5_charge
 _atom_site_pbe_ddec_charge
 _atom_site_pbe_ddec_spin_density
 _atom_site_pbe_ddec_sum_bond_order
 _atom_site_pbe_magmom
Al  Al0  1  0.45469566  0.33551603  0.11581762  1  0  1.764213  0  2.298991  0  0  1.629031  0  2.59738  0  0  1.662654  0  2.555691  0  0  0.433375  1.604595  0  2.627161  0
Al  Al1  1  0.04530407  0.66448201  0.61581718  1  0  1.764242  0  2.298852  0  0  1.62915  0  2.597117  0  0  1.662772  0  2.55543  0  0  0.433443  1.604713  0  2.626899  0
Al  Al2  1  0.54530307  0.66448359  0.88418383  1  0  1.764158  0  2.298942  0  0  1.629187  0  2.597056  0  0  1.662807  0  2.55537  0  0  0.433398  1.604751  0  2.626836  0
Al  Al3  1  0.95469466  0.33551761  0.38418109  1  0  1.76425  0  2.298915  0  0  1.629046  0  2.597321  0  0  1.662671  0  2.55563  0  0  0.433395  1.604611  0  2.627101  0
P  P4  1  0.37552732  0.35277826  0.91980516  1  0  1.848137  0  4.733132  0  0  1.650879  0  5.27366  0  0  1.709057  0  5.213944  0  0  0.486894  1.610113  0  5.314794  0
P  P5  1  0.12447515  0.64722337  0.41980514  1  0  1.848188  0  4.732943  0  0  1.65094  0  5.273442  0  0  1.709119  0  5.213718  0  0  0.486905  1.610173  0  5.314578  0
P  P6  1  0.62447345  0.64722331  0.08019438  1  0  1.848316  0  4.73283  0  0  1.651083  0  5.273339  0  0  1.709263  0  5.213613  0  0  0.486968  1.610318  0  5.314473  0
P  P7  1  0.87552566  0.35278111  0.58019504  1  0  1.848136  0  4.733214  0  0  1.65088  0  5.27374  0  0  1.709059  0  5.214023  0  0  0.486879  1.610113  0  5.314874  0
P  P8  1  0.18809759  0.44390221  0.21460299  1  0  1.846545  0  4.757722  0  0  1.645475  0  5.29581  0  0  1.704135  0  5.237353  0  0  0.472653  1.60458  0  5.335667  0
P  P9  1  0.31189222  0.55609605  0.71460699  1  0  1.846507  0  4.757655  0  0  1.64549  0  5.295722  0  0  1.704148  0  5.23728  0  0  0.472615  1.604601  0  5.335575  0
P  P10  1  0.81189585  0.55609352  0.78539528  1  0  1.84632  0  4.757933  0  0  1.645279  0  5.296006  0  0  1.703936  0  5.237567  0  0  0.472548  1.604387  0  5.33586  0
P  P11  1  0.68810530  0.44390357  0.28539318  1  0  1.846497  0  4.757677  0  0  1.645431  0  5.295771  0  0  1.70409  0  5.237317  0  0  0.472633  1.604543  0  5.335624  0
H  H12  1  0.18909172  0.35023201  0.82309797  1  0  0.440111  0  0.865486  0  0  0.403032  0  0.937697  0  0  0.414735  0  0.920929  0  0  0.308271  0.394853  0  0.949375  0
H  H13  1  0.31090569  0.64976255  0.32309263  1  0  0.440188  0  0.865375  0  0  0.402996  0  0.937743  0  0  0.414706  0  0.920966  0  0  0.308297  0.394813  0  0.949425  0
H  H14  1  0.81090973  0.64976276  0.17690412  1  0  0.440273  0  0.865271  0  0  0.403083  0  0.937632  0  0  0.414788  0  0.920862  0  0  0.308322  0.394902  0  0.949313  0
H  H15  1  0.68909382  0.35023610  0.67690563  1  0  0.440179  0  0.865387  0  0  0.403044  0  0.937674  0  0  0.414752  0  0.9209  0  0  0.308319  0.394861  0  0.949356  0
H  H16  1  0.56910983  0.36281116  0.81970504  1  0  0.432416  0  0.874496  0  0  0.396666  0  0.944725  0  0  0.408359  0  0.927898  0  0  0.313209  0.388521  0  0.956407  0
H  H17  1  0.93089395  0.63718956  0.31970215  1  0  0.432486  0  0.874382  0  0  0.396682  0  0.94471  0  0  0.408377  0  0.927879  0  0  0.313208  0.388534  0  0.956394  0
H  H18  1  0.43088769  0.63718846  0.18029641  1  0  0.432509  0  0.874362  0  0  0.39672  0  0.94466  0  0  0.408415  0  0.92783  0  0  0.313225  0.388575  0  0.956343  0
H  H19  1  0.06910514  0.36280812  0.68029675  1  0  0.432408  0  0.874503  0  0  0.396665  0  0.944723  0  0  0.408359  0  0.927894  0  0  0.313207  0.38852  0  0.956404  0
H  H20  1  0.98381880  0.52290171  0.18976128  1  0  0.435814  0  0.868462  0  0  0.399086  0  0.940749  0  0  0.41074  0  0.923894  0  0  0.309761  0.390907  0  0.952555  0
H  H21  1  0.51617383  0.47709704  0.68976647  1  0  0.435741  0  0.868569  0  0  0.399068  0  0.940772  0  0  0.410718  0  0.923923  0  0  0.309768  0.390889  0  0.952578  0
H  H22  1  0.01617470  0.47709693  0.81023953  1  0  0.435785  0  0.868506  0  0  0.399097  0  0.940734  0  0  0.41075  0  0.923881  0  0  0.309767  0.390918  0  0.952541  0
H  H23  1  0.48382087  0.52290161  0.31023243  1  0  0.435716  0  0.868584  0  0  0.399036  0  0.940795  0  0  0.410687  0  0.923944  0  0  0.309773  0.390857  0  0.9526  0
H  H24  1  0.12152969  0.15533850  0.19212836  1  0  0.1  0  0.944106  0  0  0.105361  0  1.009656  0  0  0.108323  0  1.007354  0  0  0.128991  0.103158  0  1.011397  0
H  H25  1  0.37847315  0.84466189  0.69212960  1  0  0.100011  0  0.944057  0  0  0.105332  0  1.00965  0  0  0.108287  0  1.007362  0  0  0.128975  0.103129  0  1.011392  0
H  H26  1  0.87847186  0.84466210  0.80787182  1  0  0.100083  0  0.943983  0  0  0.105389  0  1.009592  0  0  0.10835  0  1.007289  0  0  0.128999  0.103186  0  1.011334  0
H  H27  1  0.62152520  0.15533967  0.30787185  1  0  0.100062  0  0.944003  0  0  0.105369  0  1.009604  0  0  0.108323  0  1.007325  0  0  0.128989  0.103165  0  1.011347  0
H  H28  1  0.98527751  0.91343317  0.21047255  1  0  0.108181  0  0.971588  0  0  0.118561  0  1.029671  0  0  0.121178  0  1.030057  0  0  0.106126  0.116658  0  1.029576  0
H  H29  1  0.51472627  0.08656933  0.71047178  1  0  0.108167  0  0.971558  0  0  0.118548  0  1.029636  0  0  0.121163  0  1.030021  0  0  0.106127  0.116645  0  1.029541  0
H  H30  1  0.01472692  0.08657132  0.78953081  1  0  0.108189  0  0.971529  0  0  0.118548  0  1.029635  0  0  0.121165  0  1.030021  0  0  0.106124  0.116645  0  1.029541  0
H  H31  1  0.48527528  0.91343127  0.28952903  1  0  0.108181  0  0.971545  0  0  0.118558  0  1.029626  0  0  0.121174  0  1.030011  0  0  0.106138  0.116655  0  1.029532  0
H  H32  1  0.15756942  0.76896436  0.17332491  1  0  0.110191  0  0.930806  0  0  0.122557  0  0.9847  0  0  0.125225  0  0.983057  0  0  0.115051  0.120625  0  0.985849  0
H  H33  1  0.34242514  0.23103616  0.67332593  1  0  0.110192  0  0.930913  0  0  0.12258  0  0.98476  0  0  0.125249  0  0.983116  0  0  0.115052  0.120648  0  0.985909  0
H  H34  1  0.84242653  0.23103720  0.82667782  1  0  0.110174  0  0.930904  0  0  0.122539  0  0.984777  0  0  0.125207  0  0.983135  0  0  0.115034  0.120608  0  0.985926  0
H  H35  1  0.65757641  0.76896444  0.32667424  1  0  0.110167  0  0.930851  0  0  0.122556  0  0.984715  0  0  0.125225  0  0.98307  0  0  0.115027  0.120624  0  0.985864  0
H  H36  1  0.45000900  0.86898636  0.11942181  1  0  0.126208  0  0.988448  0  0  0.133301  0  1.049923  0  0  0.136795  0  1.048436  0  0  0.111155  0.130709  0  1.051234  0
H  H37  1  0.04998987  0.13100971  0.61942344  1  0  0.126216  0  0.988444  0  0  0.133327  0  1.049901  0  0  0.136822  0  1.048412  0  0  0.111151  0.130735  0  1.051214  0
H  H38  1  0.54999172  0.13101229  0.88057900  1  0  0.126213  0  0.988527  0  0  0.133343  0  1.04996  0  0  0.136839  0  1.04847  0  0  0.111161  0.130749  0  1.051276  0
H  H39  1  0.95001131  0.86899283  0.38057610  1  0  0.126145  0  0.988498  0  0  0.133243  0  1.049976  0  0  0.136737  0  1.048489  0  0  0.111116  0.13065  0  1.05129  0
H  H40  1  0.70852487  0.97209714  0.09132787  1  0  0.118986  0  0.941837  0  0  0.131044  0  0.997701  0  0  0.134276  0  0.996537  0  0  0.113876  0.128533  0  0.998981  0
H  H41  1  0.79147647  0.02790138  0.59132567  1  0  0.118983  0  0.941794  0  0  0.131036  0  0.997661  0  0  0.134268  0  0.996498  0  0  0.113867  0.128524  0  0.998942  0
H  H42  1  0.29147547  0.02790346  0.90867358  1  0  0.118959  0  0.941765  0  0  0.131014  0  0.99764  0  0  0.134245  0  0.996478  0  0  0.113873  0.128503  0  0.99892  0
H  H43  1  0.20852587  0.97209825  0.40867323  1  0  0.118992  0  0.941841  0  0  0.131049  0  0.997696  0  0  0.134281  0  0.996533  0  0  0.113883  0.128537  0  0.998978  0
H  H44  1  0.99113839  0.10681298  0.03101602  1  0  0.098888  0  0.933136  0  0  0.111957  0  0.988355  0  0  0.114422  0  0.987092  0  0  0.113249  0.110121  0  0.98938  0
H  H45  1  0.50886297  0.89318501  0.53101308  1  0  0.09887  0  0.933094  0  0  0.111947  0  0.988317  0  0  0.114411  0  0.98705  0  0  0.113279  0.110111  0  0.989341  0
H  H46  1  0.00886076  0.89318761  0.96898543  1  0  0.09889  0  0.933122  0  0  0.111961  0  0.988343  0  0  0.114427  0  0.98708  0  0  0.113251  0.110124  0  0.989367  0
H  H47  1  0.49113984  0.10681850  0.46898646  1  0  0.098877  0  0.933128  0  0  0.111972  0  0.988321  0  0  0.114441  0  0.987051  0  0  0.113256  0.110136  0  0.989346  0
H  H48  1  0.04119633  0.33935655  0.99771707  1  0  0.118872  0  0.9464  0  0  0.12765  0  1.00575  0  0  0.130773  0  1.004354  0  0  0.117857  0.125297  0  1.007036  0
H  H49  1  0.45880873  0.66064063  0.49771600  1  0  0.118817  0  0.946458  0  0  0.127609  0  1.005773  0  0  0.130748  0  1.004356  0  0  0.117838  0.125256  0  1.007057  0
H  H50  1  0.95880360  0.66064308  0.00228374  1  0  0.118874  0  0.946402  0  0  0.127639  0  1.005769  0  0  0.13074  0  1.004404  0  0  0.117852  0.125298  0  1.00704  0
H  H51  1  0.54119245  0.33936191  0.50228354  1  0  0.118856  0  0.946393  0  0  0.127661  0  1.005713  0  0  0.130817  0  1.004275  0  0  0.117835  0.125308  0  1.006999  0
H  H52  1  0.80743213  0.43273086  0.02738847  1  0  0.097247  0  0.927161  0  0  0.10604  0  0.987208  0  0  0.108402  0  0.98507  0  0  0.131834  0.104276  0  0.98882  0
H  H53  1  0.69257573  0.56727106  0.52738812  1  0  0.09731  0  0.927124  0  0  0.106057  0  0.987214  0  0  0.108414  0  0.985083  0  0  0.131827  0.104294  0  0.988828  0
H  H54  1  0.19256905  0.56727168  0.97261298  1  0  0.097235  0  0.927252  0  0  0.106037  0  0.987285  0  0  0.108396  0  0.985153  0  0  0.131836  0.104274  0  0.988896  0
H  H55  1  0.30742383  0.43273051  0.47261206  1  0  0.097327  0  0.927086  0  0  0.106083  0  0.987183  0  0  0.108443  0  0.985049  0  0  0.131834  0.104321  0  0.988796  0
C  C56  1  0.18857385  0.08764819  0.17657449  1  0  0.147864  0  3.662055  0  0  0.111606  0  3.91997  0  0  0.118432  0  3.936284  0  0  0.066712  0.107243  0  3.908864  0
C  C57  1  0.31143031  0.91235232  0.67657626  1  0  0.14789  0  3.66196  0  0  0.111675  0  3.91988  0  0  0.1185  0  3.936194  0  0  0.066727  0.107311  0  3.908774  0
C  C58  1  0.81142854  0.91235435  0.82342377  1  0  0.147807  0  3.661977  0  0  0.111575  0  3.919881  0  0  0.118401  0  3.936196  0  0  0.066667  0.107212  0  3.908774  0
C  C59  1  0.68857082  0.08764731  0.32342455  1  0  0.147836  0  3.662108  0  0  0.111599  0  3.919982  0  0  0.118419  0  3.936295  0  0  0.066706  0.107237  0  3.908874  0
C  C60  1  0.11542816  0.95402674  0.18762768  1  0  -0.118296  0  3.714574  0  0  -0.132551  0  3.968846  0  0  -0.139734  0  3.99074  0  0  -0.079874  -0.12794  0  3.954155  0
C  C61  1  0.38457225  0.04597077  0.68762789  1  0  -0.118266  0  3.714765  0  0  -0.132511  0  3.969006  0  0  -0.139697  0  3.990909  0  0  -0.079863  -0.127898  0  3.954314  0
C  C62  1  0.88457255  0.04597192  0.81237568  1  0  -0.118325  0  3.714857  0  0  -0.132554  0  3.969101  0  0  -0.13974  0  3.991002  0  0  -0.079843  -0.127942  0  3.954412  0
C  C63  1  0.61542689  0.95402982  0.31237293  1  0  -0.118235  0  3.714786  0  0  -0.132481  0  3.969034  0  0  -0.139666  0  3.990939  0  0  -0.079846  -0.127869  0  3.954343  0
C  C64  1  0.21044790  0.87420467  0.16681526  1  0  0.020012  0  3.685804  0  0  0.001501  0  3.93567  0  0  0.00527  0  3.953454  0  0  -0.058368  -0.000759  0  3.923514  0
C  C65  1  0.28955994  0.12579593  0.66681790  1  0  0.020004  0  3.685894  0  0  0.001482  0  3.935761  0  0  0.005252  0  3.953537  0  0  -0.058377  -0.000779  0  3.923607  0
C  C66  1  0.78956129  0.12579692  0.83318619  1  0  0.020078  0  3.6859  0  0  0.001586  0  3.935741  0  0  0.005357  0  3.95352  0  0  -0.058346  -0.000676  0  3.923587  0
C  C67  1  0.71044324  0.87420565  0.33318100  1  0  0.019982  0  3.685829  0  0  0.001451  0  3.93571  0  0  0.005219  0  3.953492  0  0  -0.058383  -0.000809  0  3.923555  0
C  C68  1  0.37528096  0.93066183  0.13594112  1  0  -0.154468  0  3.710417  0  0  -0.175189  0  3.963976  0  0  -0.182636  0  3.98542  0  0  -0.079219  -0.170287  0  3.949535  0
C  C69  1  0.12471904  0.06933703  0.63594410  1  0  -0.154414  0  3.710266  0  0  -0.175191  0  3.963787  0  0  -0.182622  0  3.985243  0  0  -0.079161  -0.170291  0  3.949348  0
C  C70  1  0.62471698  0.06933876  0.86405969  1  0  -0.154526  0  3.710317  0  0  -0.175317  0  3.963859  0  0  -0.182757  0  3.985306  0  0  -0.079251  -0.170416  0  3.949419  0
C  C71  1  0.87528413  0.93066454  0.36405416  1  0  -0.15437  0  3.710301  0  0  -0.175117  0  3.963858  0  0  -0.182562  0  3.985303  0  0  -0.07916  -0.170218  0  3.949418  0
C  C72  1  0.44020115  0.06511818  0.12557871  1  0  0.183917  0  3.758241  0  0  0.174695  0  4.005463  0  0  0.181224  0  4.024628  0  0  0.136642  0.170411  0  3.992368  0
C  C73  1  0.05980254  0.93488077  0.62557879  1  0  0.18384  0  3.75836  0  0  0.174771  0  4.005451  0  0  0.181252  0  4.024685  0  0  0.136637  0.170487  0  3.992357  0
C  C74  1  0.55980197  0.93488048  0.87442019  1  0  0.183892  0  3.758279  0  0  0.174728  0  4.005446  0  0  0.181236  0  4.024643  0  0  0.136635  0.170445  0  3.992349  0
C  C75  1  0.94020142  0.06511983  0.37441948  1  0  0.183963  0  3.758333  0  0  0.174765  0  4.005496  0  0  0.181291  0  4.024666  0  0  0.136647  0.170482  0  3.992399  0
C  C76  1  0.61149035  0.13369693  0.09154763  1  0  0.183025  0  3.756028  0  0  0.173738  0  4.00441  0  0  0.179957  0  4.024102  0  0  0.135591  0.169644  0  3.991002  0
C  C77  1  0.88851701  0.86630160  0.59154625  1  0  0.183254  0  3.755783  0  0  0.173815  0  4.004304  0  0  0.180049  0  4.024005  0  0  0.135668  0.169722  0  3.990898  0
C  C78  1  0.38851199  0.86630270  0.90845382  1  0  0.183134  0  3.755761  0  0  0.173781  0  4.004208  0  0  0.180004  0  4.023905  0  0  0.135626  0.169688  0  3.990801  0
C  C79  1  0.11148695  0.13369900  0.40845074  1  0  0.183055  0  3.755929  0  0  0.173673  0  4.00442  0  0  0.179894  0  4.024113  0  0  0.135574  0.169579  0  3.991014  0
C  C80  1  0.73472545  0.07454148  0.07686930  1  0  -0.144998  0  3.690985  0  0  -0.164443  0  3.941305  0  0  -0.171302  0  3.962601  0  0  -0.075908  -0.159933  0  3.92704  0
C  C81  1  0.76527762  0.92545812  0.57686535  1  0  -0.14505  0  3.690754  0  0  -0.164448  0  3.941116  0  0  -0.171305  0  3.962406  0  0  -0.075893  -0.159941  0  3.926852  0
C  C82  1  0.26527448  0.92545815  0.92313470  1  0  -0.144935  0  3.69084  0  0  -0.164362  0  3.941186  0  0  -0.171219  0  3.962483  0  0  -0.075884  -0.159852  0  3.92692  0
C  C83  1  0.23472310  0.07454054  0.42313228  1  0  -0.144972  0  3.690808  0  0  -0.164386  0  3.941163  0  0  -0.171244  0  3.962456  0  0  -0.075898  -0.159877  0  3.9269  0
C  C84  1  0.89159231  0.14913469  0.04316066  1  0  0.008899  0  3.705841  0  0  -0.011928  0  3.959565  0  0  -0.008416  0  3.97804  0  0  -0.057449  -0.014012  0  3.94697  0
C  C85  1  0.60841215  0.85086225  0.54315709  1  0  0.008918  0  3.705877  0  0  -0.01194  0  3.959613  0  0  -0.008426  0  3.978092  0  0  -0.057527  -0.014022  0  3.947018  0
C  C86  1  0.10840924  0.85086591  0.95684015  1  0  0.008873  0  3.705937  0  0  -0.011962  0  3.959655  0  0  -0.008452  0  3.978127  0  0  -0.057458  -0.014045  0  3.947062  0
C  C87  1  0.39159181  0.14913836  0.45684053  1  0  0.008805  0  3.705863  0  0  -0.012059  0  3.959597  0  0  -0.008549  0  3.978081  0  0  -0.057533  -0.014143  0  3.947004  0
C  C88  1  0.92055891  0.27937623  0.02443561  1  0  -0.080976  0  3.664191  0  0  -0.09693  0  3.922122  0  0  -0.102997  0  3.941881  0  0  -0.064123  -0.093166  0  3.909191  0
C  C89  1  0.57944495  0.72062472  0.52443370  1  0  -0.081011  0  3.664143  0  0  -0.096955  0  3.92204  0  0  -0.103036  0  3.941798  0  0  -0.06412  -0.09319  0  3.909111  0
C  C90  1  0.07943783  0.72062435  0.97556520  1  0  -0.080967  0  3.664119  0  0  -0.096894  0  3.922032  0  0  -0.102946  0  3.941803  0  0  -0.0641  -0.093139  0  3.909096  0
C  C91  1  0.42055665  0.27937879  0.47556393  1  0  -0.080969  0  3.66412  0  0  -0.096931  0  3.922055  0  0  -0.103024  0  3.941805  0  0  -0.064068  -0.093165  0  3.909124  0
C  C92  1  0.79234051  0.33186189  0.04110599  1  0  0.181755  0  3.625339  0  0  0.144256  0  3.883806  0  0  0.151941  0  3.898876  0  0  0.078697  0.139192  0  3.873731  0
C  C93  1  0.70766637  0.66813507  0.54110471  1  0  0.181786  0  3.625234  0  0  0.14435  0  3.883638  0  0  0.152035  0  3.898718  0  0  0.078777  0.139283  0  3.873566  0
C  C94  1  0.20766104  0.66813871  0.95889546  1  0  0.18174  0  3.62543  0  0  0.144233  0  3.883907  0  0  0.151914  0  3.898977  0  0  0.078685  0.139169  0  3.873835  0
C  C95  1  0.29233879  0.33186553  0.45889355  1  0  0.181774  0  3.625193  0  0  0.144293  0  3.883661  0  0  0.151978  0  3.89874  0  0  0.078752  0.139227  0  3.873586  0
N  N96  1  0.34640438  0.14183243  0.14507203  1  0  -0.381262  0  3.281668  0  0  -0.313352  0  3.517397  0  0  -0.327188  0  3.53257  0  0  -0.263816  -0.304067  0  3.507138  0
N  N97  1  0.15359593  0.85816442  0.64507222  1  0  -0.381363  0  3.28164  0  0  -0.31351  0  3.517339  0  0  -0.327337  0  3.532532  0  0  -0.263855  -0.304224  0  3.50708  0
N  N98  1  0.65359393  0.85816622  0.85492814  1  0  -0.381294  0  3.281647  0  0  -0.313368  0  3.517266  0  0  -0.327202  0  3.53245  0  0  -0.263794  -0.304082  0  3.507006  0
N  N99  1  0.84640521  0.14183520  0.35492732  1  0  -0.381414  0  3.281781  0  0  -0.313383  0  3.517337  0  0  -0.327217  0  3.532514  0  0  -0.26382  -0.304097  0  3.507077  0
N  N100  1  0.64248004  0.26134096  0.07506059  1  0  -0.392683  0  3.286933  0  0  -0.326333  0  3.523681  0  0  -0.340669  0  3.539738  0  0  -0.263583  -0.316644  0  3.512902  0
N  N101  1  0.85752387  0.73866059  0.57505895  1  0  -0.39282  0  3.287087  0  0  -0.326456  0  3.523873  0  0  -0.340794  0  3.539929  0  0  -0.263654  -0.316767  0  3.513096  0
N  N102  1  0.35752030  0.73865963  0.92494277  1  0  -0.392735  0  3.286889  0  0  -0.326415  0  3.523705  0  0  -0.340742  0  3.53975  0  0  -0.263608  -0.316726  0  3.512926  0
N  N103  1  0.14247810  0.26134098  0.42493867  1  0  -0.392733  0  3.287052  0  0  -0.326356  0  3.523822  0  0  -0.340692  0  3.539879  0  0  -0.263588  -0.316665  0  3.513044  0
O  O104  1  0.35151394  0.29055283  0.00717991  1  0  -0.921127  0  2.02474  0  0  -0.847748  0  2.292024  0  0  -0.871784  0  2.269505  0  0  -0.301507  -0.830552  0  2.307313  0
O  O105  1  0.14848735  0.70944504  0.50717604  1  0  -0.921064  0  2.024734  0  0  -0.84772  0  2.292052  0  0  -0.871765  0  2.269539  0  0  -0.301469  -0.830501  0  2.307306  0
O  O106  1  0.64848678  0.70944583  0.99282218  1  0  -0.921101  0  2.02475  0  0  -0.847757  0  2.292004  0  0  -0.871803  0  2.269489  0  0  -0.301487  -0.830562  0  2.307296  0
O  O107  1  0.85151499  0.29055459  0.49282031  1  0  -0.921056  0  2.02467  0  0  -0.847715  0  2.292014  0  0  -0.871758  0  2.269504  0  0  -0.301475  -0.830509  0  2.307291  0
O  O108  1  0.20386371  0.28776761  0.86929016  1  0  -0.798613  0  1.951882  0  0  -0.731565  0  2.189054  0  0  -0.752302  0  2.161594  0  0  -0.393077  -0.716879  0  2.207903  0
O  O109  1  0.29613981  0.71222760  0.36928722  1  0  -0.798669  0  1.951691  0  0  -0.731575  0  2.189  0  0  -0.752314  0  2.161528  0  0  -0.393119  -0.716888  0  2.207854  0
O  O110  1  0.79613738  0.71222911  0.13071193  1  0  -0.798796  0  1.951609  0  0  -0.73171  0  2.188922  0  0  -0.752443  0  2.161453  0  0  -0.393174  -0.717022  0  2.207776  0
O  O111  1  0.70386211  0.28777106  0.63071041  1  0  -0.798672  0  1.951732  0  0  -0.731599  0  2.188973  0  0  -0.752339  0  2.161507  0  0  -0.393153  -0.71691  0  2.207824  0
O  O112  1  0.51939720  0.31232205  0.87380866  1  0  -0.790338  0  2.013599  0  0  -0.71557  0  2.245469  0  0  -0.736021  0  2.217109  0  0  -0.379227  -0.701013  0  2.264922  0
O  O113  1  0.98060704  0.68768022  0.37380495  1  0  -0.790409  0  2.01345  0  0  -0.715613  0  2.245332  0  0  -0.736059  0  2.216964  0  0  -0.379233  -0.701057  0  2.264792  0
O  O114  1  0.48060477  0.68767952  0.12619406  1  0  -0.790453  0  2.013382  0  0  -0.715668  0  2.245261  0  0  -0.736112  0  2.216891  0  0  -0.379265  -0.701114  0  2.264716  0
O  O115  1  0.01939493  0.31232135  0.62619204  1  0  -0.790348  0  2.013611  0  0  -0.715573  0  2.245463  0  0  -0.736023  0  2.2171  0  0  -0.379231  -0.701018  0  2.264916  0
O  O116  1  0.41572941  0.49914365  0.91780526  1  0  -0.974434  0  2.131549  0  0  -0.887727  0  2.396111  0  0  -0.91127  0  2.370855  0  0  -0.297864  -0.870979  0  2.413177  0
O  O117  1  0.08426376  0.50085312  0.41780122  1  0  -0.974586  0  2.131632  0  0  -0.88778  0  2.396131  0  0  -0.911365  0  2.37095  0  0  -0.297923  -0.87104  0  2.413204  0
O  O118  1  0.58426607  0.50085402  0.08219874  1  0  -0.974549  0  2.131536  0  0  -0.887773  0  2.396057  0  0  -0.911358  0  2.370876  0  0  -0.2979  -0.871028  0  2.413127  0
O  O119  1  0.91572969  0.49914261  0.58219386  1  0  -0.97451  0  2.13171  0  0  -0.887751  0  2.396268  0  0  -0.911302  0  2.371023  0  0  -0.297866  -0.871008  0  2.413335  0
O  O120  1  0.26359754  0.36915953  0.15354270  1  0  -0.943732  0  2.068548  0  0  -0.85959  0  2.335929  0  0  -0.884023  0  2.312061  0  0  -0.304024  -0.842186  0  2.35198  0
O  O121  1  0.23639747  0.63083628  0.65354722  1  0  -0.943701  0  2.068639  0  0  -0.85959  0  2.336043  0  0  -0.883983  0  2.312091  0  0  -0.30398  -0.842195  0  2.352101  0
O  O122  1  0.73639632  0.63083717  0.84645621  1  0  -0.943669  0  2.068622  0  0  -0.85958  0  2.335985  0  0  -0.883982  0  2.312053  0  0  -0.304013  -0.842181  0  2.352043  0
O  O123  1  0.76360083  0.36916237  0.34645232  1  0  -0.943713  0  2.068638  0  0  -0.859576  0  2.336032  0  0  -0.883999  0  2.312152  0  0  -0.304018  -0.842178  0  2.352088  0
O  O124  1  0.33692377  0.55345019  0.25852308  1  0  -0.912662  0  1.9858  0  0  -0.810214  0  2.210555  0  0  -0.838591  0  2.187716  0  0  -0.356257  -0.790309  0  2.225926  0
O  O125  1  0.16307295  0.44654776  0.75852946  1  0  -0.912529  0  1.985763  0  0  -0.810205  0  2.210521  0  0  -0.838584  0  2.187688  0  0  -0.356139  -0.790299  0  2.225885  0
O  O126  1  0.66307328  0.44654554  0.74147518  1  0  -0.912529  0  1.985859  0  0  -0.810133  0  2.210588  0  0  -0.838511  0  2.187754  0  0  -0.356192  -0.790229  0  2.225961  0
O  O127  1  0.83692735  0.55344993  0.24147008  1  0  -0.912611  0  1.985749  0  0  -0.810143  0  2.210517  0  0  -0.838519  0  2.18768  0  0  -0.356145  -0.79024  0  2.225887  0
O  O128  1  0.08670886  0.51506408  0.15826778  1  0  -0.790317  0  1.950869  0  0  -0.723107  0  2.188005  0  0  -0.74492  0  2.161716  0  0  -0.394118  -0.707621  0  2.205846  0
O  O129  1  0.41328167  0.48492975  0.65827505  1  0  -0.790275  0  1.950812  0  0  -0.723132  0  2.187928  0  0  -0.744946  0  2.16164  0  0  -0.394174  -0.707648  0  2.20577  0
O  O130  1  0.91328662  0.48493360  0.84173239  1  0  -0.790267  0  1.950871  0  0  -0.723099  0  2.187976  0  0  -0.744919  0  2.161699  0  0  -0.394116  -0.707613  0  2.205818  0
O  O131  1  0.58671627  0.51507085  0.34172257  1  0  -0.790236  0  1.950923  0  0  -0.723066  0  2.188044  0  0  -0.744876  0  2.161754  0  0  -0.394159  -0.707582  0  2.205887  0
O  O132  1  0.06436142  0.35436914  0.27739429  1  0  -0.967383  0  2.071113  0  0  -0.890217  0  2.339333  0  0  -0.914052  0  2.315411  0  0  -0.311588  -0.873116  0  2.35551  0
O  O133  1  0.43563401  0.64563158  0.77739919  1  0  -0.967414  0  2.071021  0  0  -0.890267  0  2.339167  0  0  -0.914113  0  2.31525  0  0  -0.311606  -0.873166  0  2.355344  0
O  O134  1  0.93563245  0.64562756  0.72260461  1  0  -0.967325  0  2.071154  0  0  -0.890162  0  2.339326  0  0  -0.914006  0  2.315408  0  0  -0.311565  -0.873062  0  2.355502  0
O  O135  1  0.56436272  0.35436901  0.22260162  1  0  -0.967426  0  2.071024  0  0  -0.890243  0  2.33921  0  0  -0.914076  0  2.315288  0  0  -0.311604  -0.873142  0  2.355387  0
