# generated using pymatgen
data_CaH4(C4O3)2
_symmetry_space_group_name_H-M   'P 1'
_cell_length_a   6.85338658
_cell_length_b   6.85338545
_cell_length_c   7.95190234
_cell_angle_alpha   91.39124862
_cell_angle_beta   91.39100298
_cell_angle_gamma   97.79276808
_symmetry_Int_Tables_number   1
_chemical_formula_structural   CaH4(C4O3)2
_chemical_formula_sum   'Ca2 H8 C16 O12'
_cell_volume   369.79049493
_cell_formula_units_Z   2
loop_
 _symmetry_equiv_pos_site_id
 _symmetry_equiv_pos_as_xyz
  1  'x, y, z'
loop_
 _atom_site_type_symbol
 _atom_site_label
 _atom_site_symmetry_multiplicity
 _atom_site_fract_x
 _atom_site_fract_y
 _atom_site_fract_z
 _atom_site_occupancy
 _atom_site_pbe_bader_spin_density
 _atom_site_pbe_cm5_charge
 _atom_site_pbe_ddec_charge
 _atom_site_pbe_ddec_spin_density
 _atom_site_pbe_ddec_sum_bond_order
 _atom_site_pbe_magmom
Ca  Ca0  1  0.99857698  0.00142325  0.75000020  1  0  0.894771  1.375962  0  1.444498  0
Ca  Ca1  1  0.00142304  0.99857596  0.25000028  1  0  0.89477  1.375954  0  1.444498  0
H  H2  1  0.52675886  0.84227346  0.11719265  1  0  0.120839  0.139107  0  1.018333  0
H  H3  1  0.15772694  0.47324162  0.38280798  1  0  0.120858  0.139114  0  1.018302  0
H  H4  1  0.47324284  0.15772724  0.88280665  1  0  0.120861  0.139089  0  1.018383  0
H  H5  1  0.84227162  0.52675759  0.61719247  1  0  0.120846  0.139118  0  1.018322  0
H  H6  1  0.08909691  0.45256614  0.79958576  1  0  0.31268  0.355386  0  0.970895  0
H  H7  1  0.54743397  0.91090396  0.70041464  1  0  0.312664  0.355392  0  0.970869  0
H  H8  1  0.91090312  0.54743307  0.20041472  1  0  0.312668  0.355384  0  0.970884  0
H  H9  1  0.45256440  0.08909378  0.29958703  1  0  0.312667  0.35539  0  0.970875  0
C  C10  1  0.18414416  0.73116731  0.94784431  1  0  0.213193  0.585913  0  4.214754  0
C  C11  1  0.26883106  0.81585448  0.55215507  1  0  0.213172  0.585952  0  4.214742  0
C  C12  1  0.81585588  0.26883191  0.05215491  1  0  0.213168  0.585931  0  4.21475  0
C  C13  1  0.73116731  0.18414326  0.44784534  1  0  0.213212  0.585945  0  4.214596  0
C  C14  1  0.34494658  0.61084858  0.97643487  1  0  -0.022413  -0.146228  0  3.989142  0
C  C15  1  0.38915145  0.65505471  0.52356411  1  0  -0.022383  -0.146243  0  3.989187  0
C  C16  1  0.65505511  0.38915211  0.02356443  1  0  -0.022373  -0.146233  0  3.989252  0
C  C17  1  0.61084713  0.34494451  0.47643509  1  0  -0.022387  -0.1462  0  3.989189  0
C  C18  1  0.33077289  0.41676169  0.90721558  1  0  0.093444  0.300331  0  4.025151  0
C  C19  1  0.58323843  0.66922752  0.59278305  1  0  0.093434  0.300378  0  4.025209  0
C  C20  1  0.66922755  0.58324048  0.09278373  1  0  0.093444  0.300387  0  4.025211  0
C  C21  1  0.41675889  0.33077317  0.40721489  1  0  0.09348  0.300412  0  4.025171  0
C  C22  1  0.51488046  0.69217931  0.06731165  1  0  -0.081658  -0.181104  0  3.92983  0
C  C23  1  0.30782321  0.48512003  0.43268752  1  0  -0.081691  -0.181143  0  3.92988  0
C  C24  1  0.48512270  0.30782138  0.93268768  1  0  -0.081687  -0.181058  0  3.929844  0
C  C25  1  0.69217829  0.51487919  0.56731049  1  0  -0.081659  -0.181122  0  3.929865  0
O  O26  1  0.04644567  0.66660535  0.83892139  1  0  -0.333857  -0.588692  0  2.249128  0
O  O27  1  0.33339330  0.95355471  0.66107944  1  0  -0.333882  -0.588757  0  2.249013  0
O  O28  1  0.95355268  0.33339238  0.16108279  1  0  -0.333874  -0.588732  0  2.248989  0
O  O29  1  0.66660381  0.04644451  0.33891972  1  0  -0.333875  -0.58872  0  2.248969  0
O  O30  1  0.18628989  0.89830501  0.02287009  1  0  -0.376669  -0.64607  0  2.249359  0
O  O31  1  0.10169269  0.81371053  0.47713121  1  0  -0.376628  -0.646032  0  2.249453  0
O  O32  1  0.81371159  0.10169421  0.97713043  1  0  -0.376629  -0.646031  0  2.249454  0
O  O33  1  0.89830441  0.18628868  0.52287046  1  0  -0.376671  -0.646078  0  2.24937  0
O  O34  1  0.16758508  0.33687698  0.81450652  1  0  -0.372966  -0.506659  0  2.408917  0
O  O35  1  0.66312173  0.83241457  0.68549347  1  0  -0.372948  -0.506667  0  2.408935  0
O  O36  1  0.83241661  0.66312371  0.18549404  1  0  -0.372944  -0.506678  0  2.408931  0
O  O37  1  0.33687518  0.16758317  0.31450691  1  0  -0.372973  -0.506702  0  2.408894  0
