# generated using pymatgen
data_FeH12C8S2(N3O)2
_symmetry_space_group_name_H-M   'P 1'
_cell_length_a   8.10734130
_cell_length_b   8.90764910
_cell_length_c   10.08700302
_cell_angle_alpha   89.56977849
_cell_angle_beta   90.88876928
_cell_angle_gamma   95.49962391
_symmetry_Int_Tables_number   1
_chemical_formula_structural   FeH12C8S2(N3O)2
_chemical_formula_sum   'Fe2 H24 C16 S4 N12 O4'
_cell_volume   725.00292317
_cell_formula_units_Z   2
loop_
 _symmetry_equiv_pos_site_id
 _symmetry_equiv_pos_as_xyz
  1  'x, y, z'
loop_
 _atom_site_type_symbol
 _atom_site_label
 _atom_site_symmetry_multiplicity
 _atom_site_fract_x
 _atom_site_fract_y
 _atom_site_fract_z
 _atom_site_occupancy
 _atom_site_hse06_10hf_ddec_charge
 _atom_site_hse06_10hf_ddec_spin_density
 _atom_site_hse06_10hf_ddec_sum_bond_order
 _atom_site_hse06_10hf_magmom
 _atom_site_hse06_ddec_charge
 _atom_site_hse06_ddec_spin_density
 _atom_site_hse06_ddec_sum_bond_order
 _atom_site_hse06_magmom
 _atom_site_pbe_cm5_charge
 _atom_site_pbe_ddec_charge
 _atom_site_pbe_ddec_spin_density
 _atom_site_pbe_ddec_sum_bond_order
 _atom_site_pbe_magmom
Fe  Fe0  1  0.99999949  0.49999871  0.49999726  1  1.046005  3.931964  2.707221  3.632  1.101307  3.963109  2.632982  3.696  0.733786  0.999262  3.888697  2.76425  3.56
Fe  Fe1  1  0.49999955  0.00000134  0.99999913  1  0.929754  -2.058461  3.267348  -1.89  0.982782  -2.070025  3.189545  -1.915  0.789263  0.890864  -2.029934  3.32303  -1.848
H  H2  1  0.73806109  0.43945022  0.20859056  1  0.167422  -0.000107  1.005068  0.0  0.168634  -0.000101  1.005826  0.0  0.104571  0.166487  -0.000104  1.004688  0.0
H  H3  1  0.75906096  0.05683271  0.71053952  1  0.162363  1.6e-05  1.003966  0.0  0.163401  1.2e-05  1.005142  0.0  0.102225  0.161466  4.1e-05  1.003647  0.0
H  H4  1  0.26193716  0.56054771  0.79140605  1  0.16737  -0.000107  1.005133  0.0  0.168581  -0.000101  1.005891  0.0  0.104556  0.166439  -0.000104  1.004753  0.0
H  H5  1  0.24094464  0.94317532  0.28946603  1  0.162399  1.6e-05  1.003917  0.0  0.163419  1.2e-05  1.005115  0.0  0.102251  0.161501  4.1e-05  1.003603  0.0
H  H6  1  0.59248298  0.55883563  0.13981103  1  0.167825  3.6e-05  1.001954  0.0  0.169769  2.2e-05  1.001558  0.0  0.105119  0.166137  5e-05  1.002764  0.0
H  H7  1  0.90863630  0.94318837  0.64407599  1  0.167246  -3.7e-05  1.001571  0.0  0.168498  -4.5e-05  1.001963  0.0  0.103777  0.166479  -3.1e-05  1.001225  0.0
H  H8  1  0.40751947  0.44116679  0.86018757  1  0.167818  3.6e-05  1.001905  0.0  0.169761  2.2e-05  1.00151  0.0  0.105124  0.166132  5e-05  1.00272  0.0
H  H9  1  0.09136966  0.05682305  0.35592855  1  0.167212  -3.7e-05  1.001535  0.0  0.168463  -4.5e-05  1.001925  0.0  0.103755  0.166443  -3.1e-05  1.001187  0.0
H  H10  1  0.52975036  0.42809273  0.27244695  1  0.169349  -1.6e-05  0.986242  0.0  0.171413  -1.8e-05  0.98585  0.0  0.105755  0.167877  -1.5e-05  0.986428  0.0
H  H11  1  0.96798430  0.07224146  0.77843174  1  0.171001  -1.6e-05  0.982948  0.0  0.173354  -1.1e-05  0.982329  0.0  0.105488  0.16936  -2.4e-05  0.983217  0.0
H  H12  1  0.47025061  0.57190745  0.72755067  1  0.169368  -1.6e-05  0.986203  0.0  0.171432  -1.8e-05  0.98581  0.0  0.105782  0.167894  -1.5e-05  0.986391  0.0
H  H13  1  0.03201602  0.92776319  0.22157576  1  0.171031  -1.6e-05  0.983015  0.0  0.173385  -1.1e-05  0.982392  0.0  0.105522  0.169387  -2.4e-05  0.983286  0.0
H  H14  1  0.53587918  0.79847798  0.46310863  1  0.162046  -4.6e-05  1.013295  0.0  0.164178  -4.4e-05  1.012626  0.0  0.101581  0.160578  -3.9e-05  1.013896  0.0
H  H15  1  0.98001172  0.69595415  0.96055333  1  0.157678  3e-05  1.01013  0.0  0.159982  2.4e-05  1.009196  0.0  0.099044  0.155978  6.3e-05  1.010979  0.0
H  H16  1  0.46411773  0.20151881  0.53688996  1  0.162073  -4.6e-05  1.013328  0.0  0.164205  -4.4e-05  1.012659  0.0  0.101607  0.160603  -3.9e-05  1.013925  0.0
H  H17  1  0.01998570  0.30404714  0.03944723  1  0.157679  3e-05  1.010144  0.0  0.159982  2.4e-05  1.009208  0.0  0.099034  0.155976  6.3e-05  1.010992  0.0
H  H18  1  0.42500274  0.61752301  0.42343180  1  0.18009  -0.000189  1.011829  0.0  0.182946  -0.000234  1.011271  0.0  0.104257  0.177933  -0.000137  1.012352  0.0
H  H19  1  0.08300825  0.88113881  0.92468460  1  0.179008  0.000113  1.018127  0.0  0.181743  0.000145  1.01787  0.0  0.104622  0.17698  6.6e-05  1.018352  0.0
H  H20  1  0.57499295  0.38247378  0.57656778  1  0.180089  -0.000189  1.011862  0.0  0.182946  -0.000234  1.011303  0.0  0.104246  0.177952  -0.000137  1.012365  0.0
H  H21  1  0.91699177  0.11886360  0.07531796  1  0.178997  0.000113  1.018211  0.0  0.181732  0.000145  1.017954  0.0  0.104606  0.176964  6.6e-05  1.018438  0.0
H  H22  1  0.46384059  0.76272520  0.29699384  1  0.159656  0.000553  1.029146  0.001  0.159826  0.000433  1.031564  0.001  0.103204  0.159561  0.000687  1.027514  0.001
H  H23  1  0.04618194  0.73973924  0.79493114  1  0.157622  -0.00071  1.031858  -0.001  0.157619  -0.000563  1.034192  -0.001  0.100321  0.157816  -0.000869  1.030127  -0.001
H  H24  1  0.53615770  0.23727271  0.70300674  1  0.159707  0.000553  1.02905  0.001  0.159878  0.000433  1.031468  0.001  0.103225  0.159614  0.000687  1.027418  0.001
H  H25  1  0.95381919  0.26026204  0.20507043  1  0.157614  -0.00071  1.031822  -0.001  0.157612  -0.000563  1.034156  -0.001  0.100309  0.157808  -0.000869  1.030089  -0.001
C  C26  1  0.86369205  0.44400790  0.79347821  1  0.470754  0.001923  4.238867  0.006  0.497783  0.001432  4.249875  0.005  0.308847  0.450999  0.002472  4.231307  0.007
C  C27  1  0.62952240  0.06008813  0.28210762  1  0.459427  0.010219  4.237965  0.016  0.487959  0.009005  4.245747  0.014  0.307863  0.438919  0.010991  4.23401  0.016
C  C28  1  0.13631510  0.55599225  0.20652043  1  0.470559  0.001923  4.238965  0.006  0.497585  0.001435  4.249978  0.005  0.308817  0.4508  0.002474  4.2314  0.007
C  C29  1  0.37047798  0.93990639  0.71789199  1  0.459418  0.010218  4.237908  0.016  0.48795  0.009004  4.245685  0.014  0.307846  0.43891  0.01099  4.233958  0.016
C  C30  1  0.68131319  0.30849406  0.92717630  1  0.461879  -0.004903  4.239861  -0.009  0.487478  -0.004851  4.252783  -0.009  0.319965  0.443667  -0.005274  4.230768  -0.009
C  C31  1  0.80834711  0.18076318  0.43195841  1  0.464452  0.003687  4.265235  0.008  0.490744  0.002809  4.274814  0.006  0.301645  0.445297  0.004519  4.25966  0.009
C  C32  1  0.31869792  0.69149705  0.07282339  1  0.461867  -0.004903  4.239658  -0.009  0.487463  -0.004849  4.252577  -0.009  0.319893  0.443655  -0.005274  4.230576  -0.009
C  C33  1  0.19164831  0.81923137  0.56803820  1  0.464167  0.003689  4.265441  0.008  0.490459  0.002814  4.275026  0.006  0.301533  0.44501  0.00452  4.259872  0.009
C  C34  1  0.63188768  0.50204640  0.23018219  1  -0.499175  0.000378  3.805093  0.001  -0.50244  0.000163  3.810741  0.0  -0.229799  -0.496532  0.000658  3.801262  0.001
C  C35  1  0.86757694  0.99671996  0.73399333  1  -0.495974  -0.000194  3.806468  0.0  -0.499722  -6.4e-05  3.813271  0.0  -0.232148  -0.492889  -0.000367  3.801162  -0.001
C  C36  1  0.36810983  0.49795603  0.76981540  1  -0.499124  0.000378  3.805083  0.001  -0.502388  0.000161  3.810731  0.0  -0.229819  -0.496482  0.000658  3.801255  0.001
C  C37  1  0.13242459  0.00328469  0.26601220  1  -0.496006  -0.000194  3.806428  0.0  -0.499739  -6.5e-05  3.813248  0.0  -0.232185  -0.492904  -0.000367  3.801092  -0.001
C  C38  1  0.51090737  0.71131187  0.38738543  1  -0.506936  0.001771  3.805859  0.002  -0.511301  0.001215  3.811842  0.002  -0.237416  -0.503688  0.002371  3.801792  0.003
C  C39  1  0.00017584  0.78595779  0.88625212  1  -0.507163  -0.002064  3.812975  -0.003  -0.511441  -0.001491  3.81925  -0.002  -0.241872  -0.503922  -0.002698  3.808434  -0.003
C  C40  1  0.48909077  0.28868492  0.61261317  1  -0.507013  0.00177  3.805865  0.002  -0.511378  0.001213  3.811846  0.002  -0.237447  -0.503795  0.00237  3.801808  0.003
C  C41  1  0.99982405  0.21404351  0.11374846  1  -0.507151  -0.002064  3.813021  -0.003  -0.511429  -0.001491  3.819296  -0.002  -0.24185  -0.503913  -0.002698  3.808473  -0.003
S  S42  1  0.70574235  0.64499929  0.34791603  1  0.691911  0.003018  3.950979  0.003  0.707553  0.001944  3.950605  0.002  0.299563  0.680902  0.004214  3.950048  0.004
S  S43  1  0.80080912  0.84883685  0.85008214  1  0.662284  -0.002218  3.998548  -0.001  0.677907  -0.001344  3.99758  -0.001  0.283557  0.651663  -0.003307  3.997612  -0.002
S  S44  1  0.29425717  0.35499862  0.65208456  1  0.691906  0.003018  3.950928  0.003  0.707548  0.001946  3.950556  0.002  0.299579  0.680898  0.004213  3.950005  0.004
S  S45  1  0.19919102  0.15116670  0.14991942  1  0.662311  -0.002217  3.998618  -0.001  0.67794  -0.001343  3.997644  -0.001  0.28357  0.651695  -0.003307  3.997684  -0.002
N  N46  1  0.95086712  0.46936262  0.70189705  1  -0.572429  0.01732  3.241759  0.019  -0.596307  0.015627  3.242901  0.016  -0.382556  -0.554247  0.018661  3.241161  0.021
N  N47  1  0.56064425  0.03522410  0.17996458  1  -0.535921  0.007982  3.46344  0.01  -0.558681  0.006093  3.460191  0.007  -0.409433  -0.520936  0.009466  3.46686  0.013
N  N48  1  0.04913336  0.53063304  0.29810057  1  -0.572262  0.017317  3.241808  0.019  -0.596141  0.015624  3.242956  0.016  -0.38252  -0.554078  0.018658  3.241204  0.021
N  N49  1  0.43935548  0.96477607  0.82003302  1  -0.53586  0.007984  3.463493  0.01  -0.558625  0.006094  3.46025  0.007  -0.409381  -0.520863  0.009467  3.466889  0.013
N  N50  1  0.77628566  0.42980712  0.90049368  1  -0.418139  -0.001555  3.517403  -0.002  -0.443267  -0.001321  3.522447  -0.002  -0.309036  -0.399993  -0.002001  3.514062  -0.003
N  N51  1  0.69335283  0.07523705  0.40080149  1  -0.421394  0.003451  3.528814  0.005  -0.4448  0.002658  3.530592  0.004  -0.314347  -0.405444  0.0046  3.529169  0.007
N  N52  1  0.22371495  0.57018967  0.09950493  1  -0.418013  -0.001555  3.51732  -0.002  -0.443131  -0.001323  3.522355  -0.002  -0.308966  -0.399865  -0.002001  3.513971  -0.003
N  N53  1  0.30664508  0.92475748  0.59919810  1  -0.421321  0.00345  3.528858  0.005  -0.444727  0.002658  3.530636  0.004  -0.314326  -0.405365  0.004599  3.529208  0.007
N  N54  1  0.58941665  0.20432358  0.95841097  1  -0.507046  -0.001787  3.329455  0.012  -0.532667  -0.001277  3.331431  0.013  -0.388835  -0.488684  -0.002895  3.327753  0.01
N  N55  1  0.91434012  0.27175981  0.46906361  1  -0.575829  0.019408  3.17946  0.023  -0.595988  0.016896  3.178319  0.019  -0.389983  -0.561338  0.021994  3.181154  0.027
N  N56  1  0.41057839  0.79567887  0.04158560  1  -0.507042  -0.001786  3.329255  0.012  -0.532661  -0.001277  3.331231  0.013  -0.388811  -0.488684  -0.002893  3.327561  0.01
N  N57  1  0.08565543  0.72823586  0.53093399  1  -0.575593  0.019407  3.179384  0.023  -0.595752  0.01689  3.178251  0.019  -0.389881  -0.561103  0.021993  3.181078  0.027
O  O58  1  0.75240114  0.55856611  0.47344835  1  -0.585509  0.031645  2.264055  0.044  -0.615123  0.026579  2.255973  0.035  -0.347419  -0.561993  0.036662  2.268061  0.052
O  O59  1  0.75728438  0.92600497  0.97804896  1  -0.574457  -0.024459  2.249625  -0.039  -0.60117  -0.020231  2.241877  -0.031  -0.340127  -0.553582  -0.029132  2.253447  -0.047
O  O60  1  0.24759959  0.44143180  0.52655026  1  -0.585505  0.031646  2.263996  0.044  -0.61512  0.026579  2.255915  0.035  -0.347433  -0.561986  0.036661  2.267997  0.052
O  O61  1  0.24271575  0.07399858  0.02195161  1  -0.574497  -0.02446  2.249672  -0.039  -0.60122  -0.020231  2.241933  -0.031  -0.340118  -0.553622  -0.029133  2.253498  -0.047
