# generated using pymatgen
data_CuH14C11N5ClO
_symmetry_space_group_name_H-M   'P 1'
_cell_length_a   6.68537769
_cell_length_b   10.68595163
_cell_length_c   10.68590728
_cell_angle_alpha   102.27863852
_cell_angle_beta   107.95211659
_cell_angle_gamma   107.95139065
_symmetry_Int_Tables_number   1
_chemical_formula_structural   CuH14C11N5ClO
_chemical_formula_sum   'Cu2 H28 C22 N10 Cl2 O2'
_cell_volume   649.72838709
_cell_formula_units_Z   2
loop_
 _symmetry_equiv_pos_site_id
 _symmetry_equiv_pos_as_xyz
  1  'x, y, z'
loop_
 _atom_site_type_symbol
 _atom_site_label
 _atom_site_symmetry_multiplicity
 _atom_site_fract_x
 _atom_site_fract_y
 _atom_site_fract_z
 _atom_site_occupancy
 _atom_site_hle17_ddec_charge
 _atom_site_hle17_ddec_spin_density
 _atom_site_hle17_ddec_sum_bond_order
 _atom_site_hle17_magmom
 _atom_site_hse06_10hf_ddec_charge
 _atom_site_hse06_10hf_ddec_spin_density
 _atom_site_hse06_10hf_ddec_sum_bond_order
 _atom_site_hse06_10hf_magmom
 _atom_site_hse06_ddec_charge
 _atom_site_hse06_ddec_spin_density
 _atom_site_hse06_ddec_sum_bond_order
 _atom_site_hse06_magmom
 _atom_site_pbe_cm5_charge
 _atom_site_pbe_ddec_charge
 _atom_site_pbe_ddec_spin_density
 _atom_site_pbe_ddec_sum_bond_order
 _atom_site_pbe_magmom
Cu  Cu0  1  0.37970987  0.86852032  0.78607728  1  0.764443  0.659228  1.883302  0.433  0.756741  0.763735  2.272049  0.563  0.842296  0.857926  2.211231  0.658  0.742522  0.710417  0.696614  2.311636  0.502
Cu  Cu1  1  0.87970594  0.78606945  0.86851303  1  0.764288  -0.659242  1.883385  -0.433  0.756566  -0.76373  2.272149  -0.563  0.842078  -0.857934  2.211343  -0.658  0.742505  0.71026  -0.696622  2.311727  -0.502
H  H2  1  0.03921800  0.85816644  0.59997558  1  0.24777  -0.002401  0.930516  -0.002  0.243245  -0.001304  0.985235  -0.001  0.248359  -0.001279  0.983622  -0.001  0.294296  0.239604  -0.001292  0.986835  -0.001
H  H3  1  0.53921922  0.59996567  0.85815504  1  0.247748  0.002401  0.930552  0.002  0.243149  0.001305  0.985376  0.001  0.248251  0.001279  0.983771  0.001  0.294277  0.239515  0.001292  0.986976  0.001
H  H4  1  0.64105382  0.83269555  0.21138119  1  0.107425  -0.00061  0.947777  -0.001  0.11686  -6e-05  1.011139  0.0  0.120591  -6.3e-05  1.009253  0.0  0.101343  0.114207  -3.4e-05  1.012625  0.0
H  H5  1  0.14105031  0.21136982  0.83268528  1  0.107356  0.000613  0.947732  0.001  0.116783  6e-05  1.011105  0.0  0.120518  6.3e-05  1.009218  0.0  0.101293  0.114127  3.4e-05  1.012587  0.0
H  H6  1  0.79886991  0.02195950  0.43704898  1  0.104248  0.000661  0.981305  0.001  0.108887  0.000228  1.053255  0.0  0.112162  0.000134  1.049986  0.0  0.097279  0.107098  0.000278  1.05429  0.0
H  H7  1  0.29886621  0.43704009  0.02195404  1  0.104294  -0.000661  0.981249  -0.001  0.108931  -0.000228  1.053193  0.0  0.112224  -0.000134  1.049905  0.0  0.097323  0.107144  -0.000278  1.05423  0.0
H  H8  1  0.83337935  0.32582589  0.22728707  1  0.104976  0.000441  0.940156  0.0  0.114919  0.000245  1.003226  0.0  0.117985  0.000163  1.001019  0.0  0.101503  0.112716  0.000354  1.004774  0.0
H  H9  1  0.33336841  0.22728059  0.32581939  1  0.104967  -0.000441  0.94005  0.0  0.114945  -0.000245  1.003095  0.0  0.117973  -0.000163  1.000932  0.0  0.101478  0.112748  -0.000354  1.004643  0.0
H  H10  1  0.76518876  0.26337814  0.99310211  1  0.056662  0.007203  0.943257  0.008  0.071428  0.005212  1.008109  0.005  0.07208  0.003924  1.005344  0.004  0.112065  0.070651  0.006039  1.010059  0.006
H  H11  1  0.26518741  0.99309488  0.26338173  1  0.056634  -0.007201  0.943338  -0.008  0.071432  -0.005211  1.008155  -0.005  0.072084  -0.003923  1.005387  -0.004  0.112042  0.070636  -0.006038  1.010132  -0.006
H  H12  1  0.71017100  0.09214114  0.69346485  1  0.07121  0.001205  0.919515  0.002  0.08899  0.000634  0.981534  0.001  0.088438  0.000533  0.982326  0.001  0.107306  0.089027  0.000699  0.980999  0.001
H  H13  1  0.21017258  0.69346214  0.09214234  1  0.071223  -0.001202  0.919502  -0.002  0.088982  -0.000634  0.981543  -0.001  0.088428  -0.000533  0.982336  -0.001  0.107319  0.089021  -0.000699  0.981013  -0.001
H  H14  1  0.69557873  0.24542812  0.78491817  1  0.052522  0.004026  0.951144  0.004  0.069931  0.003282  1.018325  0.003  0.069441  0.002425  1.019129  0.002  0.100293  0.069602  0.003773  1.018748  0.004
H  H15  1  0.19556338  0.78490914  0.24542241  1  0.052436  -0.004023  0.951103  -0.004  0.069836  -0.003282  1.018344  -0.003  0.069346  -0.002424  1.019145  -0.002  0.100252  0.069511  -0.003773  1.018768  -0.004
H  H16  1  0.25437989  0.12104820  0.65763695  1  0.080724  -0.00012  0.928367  0.0  0.099866  -0.00014  0.988603  0.0  0.10104  -0.000102  0.988357  0.0  0.096112  0.099039  -0.000181  0.988824  0.0
H  H17  1  0.75437463  0.65762348  0.12103694  1  0.080773  0.000119  0.92837  0.0  0.099894  0.00014  0.988614  0.0  0.101068  0.000102  0.988374  0.0  0.096139  0.099071  0.000181  0.988836  0.0
H  H18  1  0.40820157  0.16203617  0.55357857  1  0.076413  -0.000207  0.932764  0.0  0.099691  -0.000214  0.988568  0.0  0.100071  -0.000172  0.989197  0.0  0.096781  0.099522  -0.000263  0.987735  0.0
H  H19  1  0.90820286  0.55356761  0.16202657  1  0.07646  0.000206  0.932783  0.0  0.099739  0.000214  0.988565  0.0  0.100123  0.000171  0.989197  0.0  0.096786  0.099568  0.000263  0.987733  0.0
H  H20  1  0.11715657  0.93028874  0.42535496  1  0.051188  0.003893  0.93518  0.004  0.071138  0.003258  0.998217  0.004  0.069975  0.002449  0.999493  0.003  0.097799  0.071656  0.003797  0.997664  0.004
H  H21  1  0.61716112  0.42534663  0.93027543  1  0.051331  -0.003891  0.934966  -0.004  0.071209  -0.003259  0.998102  -0.004  0.07005  -0.002449  0.999384  -0.003  0.097843  0.07173  -0.003798  0.997539  -0.004
H  H22  1  0.38772172  0.91744383  0.48489519  1  0.057293  -0.000604  0.953885  0.0  0.07377  -0.000586  1.021164  0.0  0.073418  -0.000467  1.021849  0.0  0.10128  0.074154  -0.000638  1.020229  0.0
H  H23  1  0.88772996  0.48488678  0.91743449  1  0.057235  0.000607  0.953925  0.0  0.073708  0.000586  1.021237  0.0  0.073361  0.000468  1.021927  0.0  0.101236  0.074091  0.000638  1.020298  0.0
H  H24  1  0.94786777  0.68542364  0.38780595  1  0.076043  0.003627  0.966563  0.004  0.095956  0.002994  1.03678  0.003  0.095941  0.002269  1.037212  0.003  0.089056  0.096091  0.003475  1.036098  0.004
H  H25  1  0.44788088  0.38780160  0.68541127  1  0.076008  -0.003628  0.966657  -0.004  0.095951  -0.002995  1.036822  -0.003  0.09593  -0.002269  1.037274  -0.003  0.089095  0.096081  -0.003475  1.036136  -0.004
H  H26  1  0.00653812  0.62460140  0.53226453  1  0.096053  -7e-06  0.981025  0.0  0.112943  5.4e-05  1.04943  0.0  0.113799  3.1e-05  1.049778  0.0  0.094152  0.112384  8.8e-05  1.048954  0.0
H  H27  1  0.50654745  0.53226401  0.62458996  1  0.096114  7e-06  0.981025  0.0  0.112999  -5.5e-05  1.049414  0.0  0.113852  -3.1e-05  1.049778  0.0  0.094148  0.11244  -8.8e-05  1.048937  0.0
H  H28  1  0.22012829  0.67613862  0.46492112  1  0.086635  -2.2e-05  0.966863  0.0  0.104284  4.5e-05  1.036763  0.0  0.104302  2.1e-05  1.038032  0.0  0.092283  0.104096  8.6e-05  1.03623  0.001
H  H29  1  0.72014210  0.46491975  0.67613270  1  0.086625  2.5e-05  0.966871  0.0  0.10431  -4.6e-05  1.036714  0.0  0.104326  -2e-05  1.037991  0.0  0.092306  0.104118  -8.6e-05  1.03618  -0.001
C  C30  1  0.63713136  0.96694969  0.08561583  1  0.346765  -0.01001  3.834458  -0.014  0.335811  -0.000524  4.100544  -0.004  0.358375  -0.001516  4.115809  -0.004  0.091546  0.321373  0.000408  4.089656  -0.003
C  C31  1  0.13712167  0.08560481  0.96693870  1  0.346888  0.009996  3.834255  0.014  0.335827  0.000525  4.100496  0.004  0.358397  0.001516  4.115762  0.004  0.091567  0.321391  -0.000408  4.08959  0.003
C  C32  1  0.68272308  0.94059070  0.21436602  1  -0.182946  0.02298  3.714135  0.021  -0.204378  0.00815  3.975193  0.009  -0.214537  0.006013  3.995354  0.007  -0.110962  -0.197325  0.009599  3.960972  0.01
C  C33  1  0.18272440  0.21436069  0.94058891  1  -0.182893  -0.022963  3.714283  -0.021  -0.204269  -0.008151  3.975349  -0.009  -0.214431  -0.006011  3.995517  -0.007  -0.110942  -0.197224  -0.009597  3.961147  -0.01
C  C34  1  0.77234654  0.04717375  0.34118485  1  -0.109794  -0.01097  3.793726  -0.01  -0.133909  -0.001527  4.051432  -0.001  -0.130852  -0.001841  4.071084  -0.001  -0.100482  -0.135314  -0.00123  4.036644  -0.001
C  C35  1  0.27233955  0.34117390  0.04716338  1  -0.10984  0.010955  3.79386  0.01  -0.133948  0.001529  4.051583  0.001  -0.130898  0.00184  4.071215  0.001  -0.100534  -0.135364  0.001231  4.036792  0.001
C  C36  1  0.82438071  0.18626930  0.34555514  1  0.091524  0.012782  3.839485  0.012  0.101235  0.00154  4.11207  0.002  0.098294  0.001213  4.136252  0.001  -0.014666  0.102802  0.002079  4.095475  0.002
C  C37  1  0.32437526  0.34555253  0.18626569  1  0.091447  -0.012768  3.83945  -0.012  0.101141  -0.00154  4.112088  -0.002  0.0982  -0.001212  4.136259  -0.001  -0.014681  0.10271  -0.002079  4.095487  -0.002
C  C38  1  0.78909679  0.21755880  0.22351842  1  -0.134565  -0.011161  3.769486  -0.011  -0.166222  -0.001863  4.025334  -0.002  -0.163035  -0.002103  4.047057  -0.002  -0.092944  -0.168265  -0.001466  4.011307  -0.002
C  C39  1  0.28908618  0.22351192  0.21754764  1  -0.134468  0.011151  3.769615  0.011  -0.16616  0.00186  4.025445  0.002  -0.162955  0.002103  4.047208  0.002  -0.092893  -0.168207  0.001466  4.011414  0.002
C  C40  1  0.69505608  0.11017322  0.09289684  1  -0.09905  0.016583  3.80312  0.017  -0.083008  0.005143  4.043693  0.007  -0.099681  0.003623  4.072987  0.005  -0.035253  -0.072678  0.006439  4.024935  0.008
C  C41  1  0.19504500  0.09289385  0.11016793  1  -0.099136  -0.016566  3.803461  -0.017  -0.083028  -0.005139  4.044034  -0.007  -0.099698  -0.003623  4.073307  -0.005  -0.03525  -0.072707  -0.006437  4.025277  -0.008
C  C42  1  0.67681006  0.15078769  0.97152825  1  0.163614  -0.019427  3.706694  -0.019  0.124453  -0.004892  3.963491  -0.006  0.145204  -0.006157  3.975144  -0.007  0.074771  0.110732  -0.00372  3.956935  -0.004
C  C43  1  0.17681358  0.97152999  0.15079150  1  0.16355  0.019423  3.706594  0.019  0.124352  0.004894  3.963379  0.006  0.14511  0.006158  3.975032  0.007  0.074762  0.110649  0.00372  3.956839  0.004
C  C44  1  0.60147688  0.13117096  0.73585029  1  0.028319  0.000211  3.681604  -0.001  -0.026128  0.001403  3.947553  0.0  -0.020885  0.000548  3.962441  -0.001  -0.066692  -0.02902  0.002003  3.938325  0.001
C  C45  1  0.10147469  0.73584551  0.13116579  1  0.028461  -0.000223  3.681453  0.001  -0.025983  -0.001402  3.94742  0.0  -0.020733  -0.000545  3.962303  0.001  -0.066686  -0.028873  -0.002002  3.938205  -0.001
C  C46  1  0.37376406  0.09500717  0.61622414  1  -0.148263  0.000668  3.687832  0.001  -0.193018  0.000299  3.94909  0.001  -0.19549  0.000286  3.962397  0.001  -0.162337  -0.191406  0.000275  3.939379  0.001
C  C47  1  0.87376939  0.61621680  0.09500047  1  -0.148521  -0.000666  3.687894  -0.001  -0.193227  -0.000299  3.949168  -0.001  -0.195704  -0.000285  3.962491  -0.001  -0.162383  -0.191611  -0.000276  3.939464  -0.001
C  C48  1  0.26233095  0.94392078  0.51931907  1  0.026255  -0.001041  3.647045  -0.003  -0.029259  0.000437  3.909352  -0.001  -0.023481  -0.000148  3.923229  -0.002  -0.076357  -0.032447  0.000612  3.89961  -0.001
C  C49  1  0.76233780  0.51930923  0.94391275  1  0.02624  0.001033  3.646634  0.003  -0.029285  -0.000436  3.909088  0.001  -0.02354  0.000146  3.923008  0.002  -0.076346  -0.032468  -0.000613  3.899345  0.001
C  C50  1  0.08217425  0.69842477  0.48621146  1  -0.159946  -0.000666  3.68162  -0.002  -0.257352  0.001279  3.938973  -0.001  -0.253518  0.000632  3.95117  -0.001  -0.1633  -0.259418  0.001739  3.930661  0.0
C  C51  1  0.58218212  0.48620553  0.69841025  1  -0.160099  0.000666  3.681771  0.002  -0.257531  -0.001278  3.939141  0.001  -0.253674  -0.000634  3.951269  0.001  -0.163419  -0.259588  -0.001739  3.930837  0.0
N  N52  1  0.57440697  0.06916588  0.84188142  1  -0.317807  0.087951  3.246098  0.101  -0.265643  0.060398  3.553328  0.076  -0.296838  0.052527  3.569296  0.07  -0.37526  -0.249295  0.063612  3.545876  0.077
N  N53  1  0.07440179  0.84187659  0.06916223  1  -0.317701  -0.087951  3.245785  -0.101  -0.265505  -0.0604  3.552965  -0.076  -0.296695  -0.05253  3.568929  -0.07  -0.375227  -0.249166  -0.063608  3.545523  -0.077
N  N54  1  0.17590021  0.84263355  0.58478617  1  -0.345395  0.073919  3.267362  0.086  -0.286279  0.058615  3.537916  0.074  -0.316163  0.049622  3.554893  0.067  -0.498319  -0.268607  0.062475  3.527915  0.076
N  N55  1  0.67590406  0.58477673  0.84262521  1  -0.345114  -0.073942  3.26727  -0.086  -0.285917  -0.058627  3.537811  -0.074  -0.315761  -0.049626  3.554788  -0.067  -0.498226  -0.268256  -0.062484  3.527806  -0.076
N  N56  1  0.11371076  0.70124590  0.77257787  1  -0.50645  0.045027  2.772324  0.051  -0.533754  0.023922  3.121319  0.029  -0.568755  0.014751  3.128128  0.019  -0.313527  -0.513979  0.029363  3.118863  0.033
N  N57  1  0.61369818  0.77257498  0.70124863  1  -0.50653  -0.045072  2.772048  -0.051  -0.53391  -0.023939  3.121099  -0.029  -0.568923  -0.014765  3.127913  -0.019  -0.313614  -0.514128  -0.029379  3.118638  -0.033
N  N58  1  0.16176591  0.61030793  0.80524976  1  0.38804  -0.016142  4.188726  -0.024  0.432387  0.000715  4.489364  -0.003  0.452213  -0.002154  4.518003  -0.006  0.072775  0.419834  0.003474  4.470244  0.0
N  N59  1  0.66175249  0.80524784  0.61029979  1  0.388038  0.016129  4.188916  0.024  0.432433  -0.000719  4.489517  0.003  0.452262  0.002152  4.518149  0.006  0.072829  0.419878  -0.003479  4.470399  0.0
N  N60  1  0.20508459  0.51987592  0.83676305  1  -0.405134  0.09987  2.421391  0.104  -0.405966  0.050512  2.659345  0.055  -0.413214  0.044007  2.666319  0.051  -0.206251  -0.401036  0.055004  2.654439  0.058
N  N61  1  0.70506210  0.83675721  0.51987436  1  -0.404939  -0.099811  2.421872  -0.104  -0.405811  -0.050494  2.659824  -0.055  -0.413033  -0.043991  2.666765  -0.051  -0.206167  -0.400896  -0.054987  2.654933  -0.058
Cl  Cl62  1  0.93498296  0.31711542  0.50713915  1  -0.112563  0.001701  1.33565  0.001  -0.094832  0.000293  1.559338  0.0  -0.099066  0.000155  1.555867  0.0  -0.012244  -0.091487  0.000574  1.561607  0.001
Cl  Cl63  1  0.43496917  0.50713514  0.31711371  1  -0.112511  -0.001703  1.335661  -0.001  -0.094774  -0.000294  1.559358  0.0  -0.09901  -0.000155  1.555889  0.0  -0.012196  -0.091428  -0.000573  1.561628  -0.001
O  O64  1  0.55156600  0.86251977  0.96894270  1  -0.556268  0.113858  2.102958  0.138  -0.542814  0.07461  2.407713  0.101  -0.588502  0.057944  2.406443  0.083  -0.33459  -0.514751  0.08411  2.409405  0.109
O  O65  1  0.05155403  0.96893198  0.86250928  1  -0.556307  -0.113824  2.102709  -0.138  -0.542814  -0.074603  2.407548  -0.101  -0.588493  -0.057935  2.40628  -0.083  -0.334615  -0.514748  -0.084099  2.409235  -0.109
