# generated using pymatgen
data_CuH2(CO2)2
_symmetry_space_group_name_H-M   'P 1'
_cell_length_a   6.23805690
_cell_length_b   8.97952565
_cell_length_c   14.32256069
_cell_angle_alpha   89.99998537
_cell_angle_beta   90.00000040
_cell_angle_gamma   89.99986940
_symmetry_Int_Tables_number   1
_chemical_formula_structural   CuH2(CO2)2
_chemical_formula_sum   'Cu8 H16 C16 O32'
_cell_volume   802.27525666
_cell_formula_units_Z   8
loop_
 _symmetry_equiv_pos_site_id
 _symmetry_equiv_pos_as_xyz
  1  'x, y, z'
loop_
 _atom_site_type_symbol
 _atom_site_label
 _atom_site_symmetry_multiplicity
 _atom_site_fract_x
 _atom_site_fract_y
 _atom_site_fract_z
 _atom_site_occupancy
 _atom_site_hle17_ddec_charge
 _atom_site_hle17_ddec_spin_density
 _atom_site_hle17_ddec_sum_bond_order
 _atom_site_hle17_magmom
 _atom_site_hse06_10hf_ddec_charge
 _atom_site_hse06_10hf_ddec_spin_density
 _atom_site_hse06_10hf_ddec_sum_bond_order
 _atom_site_hse06_10hf_magmom
 _atom_site_hse06_ddec_charge
 _atom_site_hse06_ddec_spin_density
 _atom_site_hse06_ddec_sum_bond_order
 _atom_site_hse06_magmom
 _atom_site_pbe_cm5_charge
 _atom_site_pbe_ddec_charge
 _atom_site_pbe_ddec_spin_density
 _atom_site_pbe_ddec_sum_bond_order
 _atom_site_pbe_magmom
Cu  Cu0  1  0.00192216  0.94254069  0.88327634  1  0.992021  0.696847  1.642373  0.524  0.998663  0.789354  2.019611  0.645  1.088589  0.85121  1.958781  0.733  0.711702  0.933926  0.746428  2.076195  0.59
Cu  Cu1  1  0.50192385  0.05745685  0.61672281  1  0.992018  0.696845  1.642386  0.524  0.998708  0.789362  2.019598  0.645  1.088583  0.851205  1.958815  0.733  0.711715  0.933967  0.746451  2.07622  0.59
Cu  Cu2  1  0.99807752  0.55745953  0.38327709  1  0.992027  0.696846  1.642345  0.524  0.998682  0.789355  2.019575  0.645  1.088607  0.851209  1.958745  0.733  0.711694  0.933963  0.746445  2.076203  0.59
Cu  Cu3  1  0.49807906  0.44254077  0.11672350  1  0.992021  0.696849  1.642401  0.524  0.998681  0.789359  2.019631  0.645  1.088577  0.851212  1.958827  0.733  0.71171  0.933933  0.746432  2.076222  0.59
Cu  Cu4  1  0.99807833  0.05745990  0.11672353  1  0.991997  0.696845  1.642408  0.524  0.998671  0.789358  2.019651  0.645  1.088565  0.851201  1.958832  0.733  0.71169  0.933931  0.746429  2.076205  0.59
Cu  Cu5  1  0.49807664  0.94254152  0.38327706  1  0.992058  0.696846  1.642305  0.524  0.998708  0.789355  2.019531  0.645  1.088632  0.851216  1.958706  0.733  0.711716  0.933999  0.746451  2.076153  0.59
Cu  Cu6  1  0.00192297  0.44254106  0.61672348  1  0.992061  0.696836  1.642298  0.524  0.998731  0.789354  2.019531  0.645  1.088637  0.851207  1.958704  0.733  0.711709  0.934004  0.746446  2.076133  0.59
Cu  Cu7  1  0.50192144  0.55745871  0.88327637  1  0.992031  0.696853  1.642386  0.524  0.998694  0.789361  2.0196  0.645  1.088585  0.851197  1.958816  0.733  0.711708  0.933948  0.74643  2.076191  0.59
H  H8  1  0.96598077  0.68723152  0.03552571  1  0.049777  0.006195  0.915829  0.008  0.058105  0.004042  0.975559  0.005  0.056193  0.002568  0.972949  0.004  0.127215  0.059362  0.005255  0.977352  0.007
H  H9  1  0.46597954  0.31276884  0.46447418  1  0.049774  0.006195  0.915807  0.008  0.058125  0.004042  0.975504  0.005  0.056214  0.002568  0.972895  0.004  0.127212  0.05939  0.005256  0.977309  0.007
H  H10  1  0.03401890  0.81277108  0.53552708  1  0.0498  0.006196  0.915777  0.008  0.058123  0.004042  0.975515  0.005  0.05621  0.002568  0.972906  0.004  0.127218  0.059393  0.005257  0.977315  0.007
H  H11  1  0.53401858  0.18723087  0.96447347  1  0.049769  0.006194  0.915807  0.008  0.058122  0.004041  0.975498  0.005  0.056211  0.002568  0.972887  0.004  0.127215  0.059378  0.005254  0.977289  0.007
H  H12  1  0.03402133  0.31276908  0.96447346  1  0.049778  0.006196  0.915787  0.008  0.058098  0.004042  0.975529  0.005  0.056187  0.002567  0.972919  0.004  0.127214  0.059357  0.005255  0.977315  0.007
H  H13  1  0.53401935  0.68722953  0.53552639  1  0.049787  0.006194  0.915823  0.008  0.058132  0.004042  0.975532  0.005  0.056221  0.002568  0.972922  0.004  0.127228  0.059398  0.005256  0.977331  0.007
H  H14  1  0.96598000  0.18722952  0.46447419  1  0.04978  0.006195  0.91579  0.008  0.058132  0.004042  0.975486  0.005  0.056222  0.002568  0.972876  0.004  0.127222  0.059397  0.005256  0.977292  0.007
H  H15  1  0.46598192  0.81276750  0.03552501  1  0.049766  0.006195  0.915846  0.008  0.058091  0.004042  0.975586  0.005  0.056179  0.002568  0.972975  0.004  0.127215  0.059345  0.005255  0.977375  0.007
H  H16  1  0.82911435  0.75268594  0.73892437  1  0.042107  0.008103  0.945538  0.012  0.043723  0.004848  1.0215  0.007  0.041301  0.002989  1.017335  0.005  0.120451  0.043923  0.00632  1.026009  0.009
H  H17  1  0.32911332  0.24731108  0.76107618  1  0.04215  0.008102  0.945571  0.012  0.043774  0.004848  1.021524  0.007  0.041352  0.002989  1.017357  0.005  0.120473  0.043966  0.006319  1.026041  0.009
H  H18  1  0.17089014  0.74731212  0.23892440  1  0.042088  0.008103  0.945549  0.012  0.043747  0.004849  1.021473  0.007  0.041325  0.002989  1.017308  0.005  0.120448  0.04394  0.00632  1.025991  0.009
H  H19  1  0.67088639  0.25268537  0.26107759  1  0.042151  0.008103  0.945544  0.012  0.043784  0.004849  1.02149  0.007  0.041364  0.002989  1.017323  0.005  0.120462  0.043978  0.00632  1.026004  0.009
H  H20  1  0.17088615  0.24731354  0.26107620  1  0.04218  0.008099  0.945607  0.012  0.043794  0.004847  1.021549  0.007  0.041374  0.002988  1.017384  0.005  0.120494  0.043994  0.006317  1.026064  0.009
H  H21  1  0.67089038  0.75268840  0.23892300  1  0.042112  0.008106  0.945532  0.012  0.043775  0.00485  1.021443  0.007  0.041352  0.00299  1.017282  0.005  0.120445  0.043969  0.006321  1.025958  0.009
H  H22  1  0.82911036  0.25268848  0.76107547  1  0.042141  0.008103  0.945502  0.012  0.043758  0.004849  1.021467  0.007  0.041339  0.002989  1.017296  0.005  0.120474  0.043951  0.00632  1.025982  0.009
H  H23  1  0.32911250  0.74731523  0.73892437  1  0.042117  0.008104  0.945532  0.012  0.043735  0.004849  1.021495  0.007  0.041313  0.00299  1.017331  0.005  0.120454  0.043935  0.00632  1.026007  0.009
C  C24  1  0.84599634  0.67384207  0.97983940  1  0.59992  -0.015716  3.800065  -0.015  0.543657  -0.00331  4.106146  -0.004  0.586613  -0.003818  4.094195  -0.004  0.15717  0.514366  -0.002422  4.111129  -0.005
C  C25  1  0.34599825  0.32615938  0.52015905  1  0.599946  -0.015714  3.800053  -0.015  0.543678  -0.00331  4.106139  -0.004  0.586634  -0.003819  4.09419  -0.004  0.157244  0.514406  -0.002412  4.111153  -0.005
C  C26  1  0.15400495  0.82616034  0.47984081  1  0.599831  -0.015717  3.800127  -0.015  0.543572  -0.00331  4.106209  -0.004  0.586527  -0.003818  4.094261  -0.004  0.157131  0.514299  -0.002411  4.111223  -0.005
C  C27  1  0.65400305  0.17384051  0.02015839  1  0.599976  -0.015716  3.800042  -0.015  0.543717  -0.003309  4.106116  -0.004  0.586671  -0.003818  4.094167  -0.004  0.157225  0.514432  -0.002422  4.111089  -0.005
C  C28  1  0.15400576  0.32615853  0.02015978  1  0.599906  -0.015715  3.800185  -0.015  0.543647  -0.00331  4.10628  -0.004  0.586604  -0.003818  4.094327  -0.004  0.157159  0.51436  -0.002422  4.111258  -0.005
C  C29  1  0.65400385  0.67384010  0.47984151  1  0.599856  -0.015713  3.800157  -0.015  0.543589  -0.003309  4.106228  -0.004  0.586544  -0.003818  4.094281  -0.004  0.15714  0.514319  -0.002411  4.111237  -0.005
C  C30  1  0.84599715  0.17384025  0.52015976  1  0.599936  -0.015722  3.799992  -0.015  0.543666  -0.00331  4.106075  -0.004  0.58662  -0.003818  4.094125  -0.004  0.157188  0.5144  -0.002411  4.111083  -0.005
C  C31  1  0.34599745  0.82615786  0.97984008  1  0.59996  -0.015722  3.800001  -0.015  0.543702  -0.00331  4.10608  -0.004  0.586656  -0.003818  4.094131  -0.004  0.157186  0.514421  -0.002421  4.11105  -0.005
C  C32  1  0.76492270  0.86404377  0.72260326  1  0.574082  -0.019466  3.829708  -0.018  0.514461  -0.004956  4.144472  -0.006  0.556414  -0.005599  4.136588  -0.005  0.150409  0.487052  -0.003562  4.147887  -0.006
C  C33  1  0.26491563  0.13595670  0.77739868  1  0.57398  -0.01946  3.829752  -0.018  0.514332  -0.004955  4.144555  -0.006  0.556286  -0.005598  4.136674  -0.005  0.150366  0.486913  -0.003563  4.147962  -0.006
C  C34  1  0.23508659  0.63595541  0.22260121  1  0.574098  -0.019455  3.82979  -0.018  0.514425  -0.004956  4.144602  -0.006  0.556379  -0.005598  4.136715  -0.005  0.150417  0.487008  -0.003562  4.148013  -0.006
C  C35  1  0.73507767  0.36404532  0.27739799  1  0.574004  -0.019463  3.82976  -0.018  0.514364  -0.004956  4.144549  -0.006  0.556317  -0.0056  4.136669  -0.005  0.15039  0.486965  -0.00356  4.147954  -0.006
C  C36  1  0.23507299  0.13595905  0.27739592  1  0.574032  -0.019459  3.829578  -0.018  0.514411  -0.004957  4.144356  -0.006  0.556366  -0.005599  4.136469  -0.005  0.150391  0.487001  -0.003562  4.147782  -0.006
C  C37  1  0.73508487  0.86404724  0.22260119  1  0.573986  -0.019469  3.829986  -0.018  0.514314  -0.004955  4.144798  -0.006  0.556266  -0.005597  4.136917  -0.005  0.150342  0.486898  -0.003561  4.148209  -0.006
C  C38  1  0.76491551  0.36404519  0.77739866  1  0.574105  -0.019459  3.829784  -0.018  0.514473  -0.004956  4.144562  -0.006  0.556428  -0.005598  4.136674  -0.005  0.150419  0.487054  -0.003564  4.147972  -0.006
C  C39  1  0.26492122  0.63595528  0.72260328  1  0.574065  -0.019471  3.829691  -0.018  0.514431  -0.004957  4.144484  -0.006  0.556384  -0.005599  4.136599  -0.005  0.150401  0.487023  -0.003562  4.147898  -0.006
O  O40  1  0.84745820  0.75656694  0.90820276  1  -0.592256  0.065392  2.192301  0.093  -0.567236  0.042059  2.496113  0.066  -0.608397  0.03003  2.480942  0.052  -0.32167  -0.536822  0.050935  2.50497  0.075
O  O41  1  0.34746199  0.24343339  0.59179639  1  -0.592302  0.065393  2.192221  0.093  -0.567292  0.04206  2.496029  0.066  -0.608444  0.030032  2.480857  0.052  -0.321694  -0.536861  0.050929  2.504903  0.075
O  O42  1  0.15253989  0.74343327  0.40820418  1  -0.592278  0.065394  2.192216  0.093  -0.567266  0.04206  2.496023  0.066  -0.608429  0.030031  2.480854  0.052  -0.321663  -0.536845  0.050927  2.504908  0.075
O  O43  1  0.65253932  0.25656647  0.09179641  1  -0.59229  0.065398  2.192163  0.093  -0.567287  0.042061  2.495979  0.066  -0.608442  0.030031  2.480803  0.052  -0.321697  -0.536873  0.050937  2.504837  0.075
O  O44  1  0.15254230  0.24343365  0.09179641  1  -0.592303  0.065389  2.19235  0.093  -0.567287  0.042058  2.496151  0.066  -0.608443  0.030031  2.480979  0.052  -0.321681  -0.536872  0.050934  2.505  0.075
O  O45  1  0.65254011  0.75656720  0.40820418  1  -0.592309  0.065396  2.192221  0.093  -0.567302  0.042061  2.49604  0.066  -0.608465  0.030031  2.48087  0.052  -0.321674  -0.536886  0.05093  2.504928  0.075
O  O46  1  0.84746061  0.25656621  0.59179639  1  -0.592312  0.065396  2.192205  0.093  -0.567306  0.042059  2.496024  0.066  -0.608461  0.030031  2.480843  0.052  -0.321676  -0.536883  0.050928  2.5049  0.075
O  O47  1  0.34745957  0.74343301  0.90820276  1  -0.592297  0.065395  2.192188  0.093  -0.567288  0.04206  2.495997  0.066  -0.608443  0.030032  2.480826  0.052  -0.3217  -0.536878  0.050936  2.504857  0.075
O  O48  1  0.80943318  0.97397158  0.77489348  1  -0.551728  0.079542  2.100991  0.111  -0.527881  0.052429  2.387937  0.08  -0.569394  0.038402  2.375816  0.064  -0.316689  -0.499467  0.061232  2.396833  0.088
O  O49  1  0.30943127  0.02602659  0.72510497  1  -0.55175  0.079548  2.100832  0.111  -0.527908  0.052431  2.387788  0.08  -0.569414  0.038403  2.375668  0.064  -0.316736  -0.499493  0.061248  2.396693  0.088
O  O50  1  0.19056971  0.52602758  0.27489284  1  -0.551787  0.079539  2.100906  0.111  -0.52794  0.052428  2.38787  0.08  -0.569453  0.038401  2.375752  0.064  -0.316719  -0.499531  0.061244  2.396786  0.088
O  O51  1  0.69056523  0.47397099  0.22510636  1  -0.55173  0.079539  2.101027  0.111  -0.527878  0.052427  2.387967  0.08  -0.569386  0.038401  2.375847  0.064  -0.316705  -0.499467  0.061228  2.396863  0.088
O  O52  1  0.19056251  0.02602790  0.22510639  1  -0.551712  0.079537  2.100983  0.111  -0.527871  0.052428  2.387928  0.08  -0.569377  0.038403  2.375804  0.064  -0.31669  -0.499457  0.06123  2.396822  0.088
O  O53  1  0.69056762  0.97397178  0.27489280  1  -0.551754  0.079539  2.101063  0.111  -0.527894  0.052425  2.388014  0.08  -0.569406  0.038397  2.375897  0.064  -0.316697  -0.499487  0.061239  2.396928  0.088
O  O54  1  0.80942919  0.47397302  0.72510773  1  -0.551835  0.079537  2.100998  0.111  -0.528003  0.052426  2.387964  0.08  -0.569511  0.0384  2.375837  0.064  -0.316771  -0.499591  0.061243  2.39687  0.088
O  O55  1  0.30943366  0.52602961  0.77489491  1  -0.551735  0.079538  2.10101  0.111  -0.527872  0.052427  2.38794  0.08  -0.569378  0.038402  2.375822  0.064  -0.316704  -0.499462  0.061229  2.396841  0.088
O  O56  1  0.70468327  0.57262748  0.99104550  1  -0.575754  0.085268  2.134238  0.12  -0.553573  0.055227  2.431497  0.085  -0.596763  0.040011  2.41779  0.067  -0.315106  -0.522356  0.065874  2.44016  0.095
O  O57  1  0.20468645  0.42737197  0.50895504  1  -0.575732  0.085272  2.134352  0.12  -0.553557  0.055228  2.431627  0.085  -0.596756  0.040009  2.417923  0.067  -0.315109  -0.522347  0.065857  2.440332  0.095
O  O58  1  0.29531482  0.92737270  0.49104550  1  -0.575642  0.085267  2.134416  0.12  -0.553449  0.055228  2.43168  0.085  -0.596643  0.040008  2.417973  0.067  -0.315023  -0.522236  0.065862  2.440379  0.095
O  O59  1  0.79531645  0.07262793  0.00895440  1  -0.575754  0.085262  2.134399  0.12  -0.55358  0.055224  2.431674  0.085  -0.596773  0.040007  2.417962  0.067  -0.315117  -0.522363  0.065869  2.44033  0.095
O  O60  1  0.29531562  0.42737200  0.00895437  1  -0.575696  0.085264  2.134371  0.12  -0.553507  0.055226  2.431626  0.085  -0.596698  0.040009  2.41792  0.067  -0.315077  -0.522288  0.065872  2.440287  0.095
O  O61  1  0.79531565  0.57262751  0.49104552  1  -0.575635  0.085267  2.134417  0.12  -0.553451  0.055227  2.431684  0.085  -0.596646  0.040009  2.417972  0.067  -0.315032  -0.522237  0.065859  2.440382  0.095
O  O62  1  0.70468568  0.07262678  0.50895507  1  -0.575693  0.085268  2.134322  0.12  -0.553511  0.055226  2.431588  0.085  -0.596703  0.040009  2.417884  0.067  -0.315069  -0.522301  0.065855  2.44029  0.095
O  O63  1  0.20468405  0.92737044  0.99104478  1  -0.575712  0.085271  2.134282  0.12  -0.553533  0.055226  2.431547  0.085  -0.596729  0.040008  2.417836  0.067  -0.315079  -0.522321  0.065869  2.440207  0.095
O  O64  1  0.64688272  0.87153091  0.65034732  1  -0.538202  0.093839  2.1113  0.129  -0.509983  0.060306  2.396288  0.091  -0.554598  0.044213  2.387174  0.072  -0.313522  -0.480065  0.069935  2.402231  0.1
O  O65  1  0.14688049  0.12846640  0.84965252  1  -0.538095  0.093824  2.11141  0.129  -0.509833  0.060301  2.396392  0.091  -0.554457  0.044209  2.387284  0.072  -0.313449  -0.479903  0.069926  2.4023  0.1
O  O66  1  0.35312176  0.62846718  0.15034806  1  -0.538133  0.093825  2.111431  0.129  -0.509893  0.060301  2.396441  0.091  -0.554509  0.044209  2.387331  0.072  -0.313496  -0.47996  0.069925  2.402348  0.1
O  O67  1  0.85311602  0.37153335  0.34965462  1  -0.538141  0.093838  2.11126  0.129  -0.509918  0.060306  2.396257  0.091  -0.554544  0.044212  2.38715  0.072  -0.313479  -0.480004  0.069935  2.402198  0.1
O  O68  1  0.35311457  0.12846746  0.34965534  1  -0.538222  0.093845  2.111056  0.129  -0.510002  0.060309  2.396054  0.091  -0.554627  0.044213  2.386941  0.072  -0.313532  -0.480087  0.069938  2.402002  0.1
O  O69  1  0.85311840  0.87153419  0.15034735  1  -0.538051  0.093838  2.111419  0.129  -0.509825  0.060305  2.39643  0.091  -0.554443  0.044212  2.387321  0.072  -0.313432  -0.479893  0.069929  2.402331  0.1
O  O70  1  0.64687874  0.37153230  0.84965250  1  -0.538176  0.093828  2.11139  0.129  -0.50993  0.060303  2.396378  0.091  -0.554549  0.044212  2.387271  0.072  -0.313486  -0.479998  0.069929  2.402286  0.1
O  O71  1  0.14688608  0.62846724  0.65034665  1  -0.538176  0.093841  2.111255  0.129  -0.509942  0.060306  2.396242  0.091  -0.554562  0.044212  2.387127  0.072  -0.31349  -0.480027  0.069936  2.40218  0.1
