# generated using pymatgen
data_CoH8C8NO5
_symmetry_space_group_name_H-M   'P 1'
_cell_length_a   9.40820949
_cell_length_b   9.40594270
_cell_length_c   11.76169984
_cell_angle_alpha   90.13706741
_cell_angle_beta   90.22097328
_cell_angle_gamma   111.04290413
_symmetry_Int_Tables_number   1
_chemical_formula_structural   CoH8C8NO5
_chemical_formula_sum   'Co4 H32 C32 N4 O20'
_cell_volume   971.40285464
_cell_formula_units_Z   4
loop_
 _symmetry_equiv_pos_site_id
 _symmetry_equiv_pos_as_xyz
  1  'x, y, z'
loop_
 _atom_site_type_symbol
 _atom_site_label
 _atom_site_symmetry_multiplicity
 _atom_site_fract_x
 _atom_site_fract_y
 _atom_site_fract_z
 _atom_site_occupancy
 _atom_site_pbe_cm5_charge
 _atom_site_pbe_ddec_charge
 _atom_site_pbe_ddec_spin_density
 _atom_site_pbe_ddec_sum_bond_order
 _atom_site_pbe_magmom
Co  Co0  1  0.88490923  0.11379014  0.50569405  1  0.654632  1.035177  2.807105  2.333511  2.586
Co  Co1  1  0.11422253  0.88540839  0.00642561  1  0.655245  1.036406  -2.808419  2.338365  -2.587
Co  Co2  1  0.86484643  0.85810821  0.68821460  1  0.652214  0.957754  -2.746134  2.379708  -2.533
Co  Co3  1  0.85632251  0.86556432  0.18783782  1  0.651486  0.957472  2.747291  2.373018  2.534
H  H4  1  0.43476414  0.93061479  0.22336206  1  0.110873  0.116137  -0.00011  1.015084  0.0
H  H5  1  0.93256753  0.43875314  0.72319640  1  0.110695  0.115883  0.000113  1.014032  0.0
H  H6  1  0.32252167  0.87507823  0.63371583  1  0.113276  0.126365  9.4e-05  0.994944  0.0
H  H7  1  0.87499336  0.32255417  0.13300850  1  0.113251  0.125867  -9.5e-05  0.994891  0.0
H  H8  1  0.07869539  0.17124625  0.30111304  1  0.128262  0.056213  0.000319  1.030204  0.001
H  H9  1  0.17180352  0.08254792  0.80383459  1  0.128163  0.056526  -0.000336  1.029644  -0.001
H  H10  1  0.16966754  0.60947886  0.21208399  1  0.104352  0.126758  -1e-06  1.006082  0.0
H  H11  1  0.60858575  0.16772352  0.71227483  1  0.104397  0.127173  4e-06  1.005783  0.0
H  H12  1  0.31833401  0.61994023  0.30995168  1  0.099782  0.113757  8.5e-05  1.016632  0.0
H  H13  1  0.62150087  0.31448705  0.81248572  1  0.099866  0.113935  -7.7e-05  1.016028  0.0
H  H14  1  0.12538825  0.56265385  0.35871784  1  0.112769  0.138723  0.000188  0.989112  0.0
H  H15  1  0.56092034  0.12004084  0.85835507  1  0.112979  0.139156  -0.000185  0.989042  0.0
H  H16  1  0.37916522  0.43365503  0.17543763  1  0.107064  0.123169  3.9e-05  0.98276  0.0
H  H17  1  0.43680063  0.37931610  0.67542555  1  0.10717  0.122662  -3.7e-05  0.983675  0.0
H  H18  1  0.21578125  0.40581910  0.08790796  1  0.101768  0.115884  -3.9e-05  1.019587  0.0
H  H19  1  0.40477173  0.21441292  0.58890573  1  0.101923  0.116301  3.4e-05  1.018977  0.0
H  H20  1  0.23642507  0.24738498  0.15997484  1  0.11151  0.139552  0.000115  1.0068  0.0
H  H21  1  0.24887248  0.23913320  0.66157708  1  0.11171  0.139396  -0.000112  1.005836  0.0
H  H22  1  0.85205158  0.42989183  0.55109910  1  0.128476  0.05599  0.000258  0.990545  0.001
H  H23  1  0.43188194  0.85041666  0.05229875  1  0.128417  0.055505  -0.000269  0.991037  -0.001
H  H24  1  0.57443748  0.36248331  0.28778444  1  0.110798  0.13786  0.000118  0.993098  0.0
H  H25  1  0.36557338  0.57574964  0.78731103  1  0.110463  0.137006  -0.000105  0.993821  0.0
H  H26  1  0.44405484  0.36396641  0.39828103  1  0.105116  0.118192  9.8e-05  0.984952  0.0
H  H27  1  0.36404234  0.44382651  0.89756393  1  0.104893  0.117431  -9.1e-05  0.985571  0.0
H  H28  1  0.51618310  0.21179798  0.39032567  1  0.105427  0.122471  6.5e-05  1.043406  0.0
H  H29  1  0.21308625  0.51750759  0.88821254  1  0.105845  0.123094  -6e-05  1.04241  0.0
H  H30  1  0.62358703  0.61586807  0.48154902  1  0.099999  0.114947  0.000165  0.998867  0.0
H  H31  1  0.61550175  0.62052767  0.98198359  1  0.100068  0.11479  -0.000159  0.999832  0.0
H  H32  1  0.74604593  0.62680379  0.36307942  1  0.105342  0.131141  0.000688  1.033875  0.001
H  H33  1  0.62864682  0.74531376  0.86450943  1  0.105236  0.13064  -0.00066  1.032632  0.0
H  H34  1  0.81692701  0.63368347  0.50522444  1  0.108445  0.123382  -0.000484  1.024606  0.0
H  H35  1  0.63474964  0.81401610  0.00713078  1  0.107998  0.122328  0.000552  1.026959  0.0
C  C36  1  0.59020874  0.85949388  0.59377381  1  0.213535  0.573831  0.002387  4.18419  0.004
C  C37  1  0.85796609  0.59026613  0.09345812  1  0.212163  0.572967  -0.002187  4.188973  -0.004
C  C38  1  0.66586002  0.90995206  0.33231439  1  0.22304  0.597708  0.002365  4.118354  0.0
C  C39  1  0.91018710  0.66815349  0.83292445  1  0.224344  0.600317  -0.002409  4.119078  0.0
C  C40  1  0.15677843  0.91964744  0.26300775  1  0.217362  0.578359  -0.00041  4.182546  -0.002
C  C41  1  0.92098479  0.15960493  0.76209987  1  0.216079  0.575508  0.000565  4.186503  0.002
C  C42  1  0.10513196  0.93742071  0.52028541  1  0.222011  0.603936  -0.001886  4.16866  -0.002
C  C43  1  0.93704996  0.10596947  0.01951809  1  0.222628  0.604867  0.00196  4.168188  0.002
C  C44  1  0.48885284  0.88957156  0.50570319  1  -0.003656  -0.039347  -0.000897  3.933005  -0.001
C  C45  1  0.88979879  0.48995358  0.00562366  1  -0.004228  -0.039133  0.00096  3.935393  0.001
C  C46  1  0.52304822  0.90888188  0.38890508  1  -0.000261  -0.033744  0.001444  3.924488  0.002
C  C47  1  0.90980654  0.52510458  0.88900864  1  0.000218  -0.035422  -0.001381  3.927931  -0.002
C  C48  1  0.41270257  0.92283797  0.31427572  1  -0.073123  -0.114107  0.001214  3.944363  0.002
C  C49  1  0.92424045  0.41552674  0.81396715  1  -0.073696  -0.114113  -0.001212  3.946018  -0.002
C  C50  1  0.27268510  0.92429630  0.35169121  1  -0.005084  -0.038761  0.00059  3.924991  0.001
C  C51  1  0.92554045  0.27517070  0.85092946  1  -0.004616  -0.038347  -0.000498  3.924831  0.0
C  C52  1  0.24171864  0.91390010  0.46945050  1  0.000419  -0.026891  0.000748  3.900237  0.0
C  C53  1  0.91438432  0.24318770  0.96858826  1  0.000221  -0.026233  -0.000755  3.896748  0.0
C  C54  1  0.34806817  0.89119480  0.54332293  1  -0.07228  -0.110469  0.000372  3.921109  0.0
C  C55  1  0.89135956  0.34893868  0.04276765  1  -0.07225  -0.110157  -0.000299  3.921163  0.0
C  C56  1  0.08757580  0.28580452  0.32865058  1  0.178787  0.309394  -0.001177  4.060442  -0.003
C  C57  1  0.28616245  0.08947478  0.83047982  1  0.178974  0.310209  0.001212  4.058901  0.003
C  C58  1  0.19838027  0.55722065  0.28797081  1  -0.136418  -0.273275  0.000399  3.880175  0.0
C  C59  1  0.55706625  0.19552061  0.78878055  1  -0.136761  -0.273055  -0.000403  3.877387  0.0
C  C60  1  0.25628061  0.36933765  0.16632493  1  -0.130957  -0.278795  0.000558  3.884424  0.001
C  C61  1  0.37037565  0.25676310  0.66726905  1  -0.131333  -0.277855  -0.000559  3.884168  -0.001
C  C62  1  0.75081244  0.35065443  0.50713997  1  0.182237  0.310171  0.002593  4.080928  0.002
C  C63  1  0.35221485  0.75055389  0.00723107  1  0.182794  0.312337  -0.002438  4.081477  -0.002
C  C64  1  0.54337494  0.33365439  0.37705014  1  -0.131352  -0.269963  0.000156  3.861256  0.0
C  C65  1  0.33499385  0.54392190  0.87622639  1  -0.131808  -0.269366  -0.000145  3.862448  0.0
C  C66  1  0.71758039  0.58383292  0.44973042  1  -0.135078  -0.278014  0.000408  3.875595  0.0
C  C67  1  0.58473071  0.71568424  0.95079028  1  -0.135089  -0.277244  -0.000362  3.87627  0.0
N  N68  1  0.17605707  0.39902159  0.26378212  1  -0.280672  0.028679  0.001018  3.735133  0.002
N  N69  1  0.39947262  0.17630612  0.76497797  1  -0.280432  0.026988  -0.001042  3.733629  -0.002
N  N70  1  0.67177071  0.41887931  0.44931913  1  -0.273387  0.051186  0.005125  3.709501  0.008
N  N71  1  0.42000396  0.67118664  0.94945319  1  -0.273551  0.049894  -0.004879  3.713846  -0.008
O  O72  1  0.73637902  0.90073998  0.56917753  1  -0.329142  -0.631683  -0.019779  2.586202  -0.032
O  O73  1  0.90083561  0.73684728  0.06990636  1  -0.327639  -0.630566  0.019493  2.589301  0.031
O  O74  1  0.53648183  0.79470085  0.68395843  1  -0.291498  -0.507428  0.002586  2.1275  0.005
O  O75  1  0.79013193  0.53533019  0.18232538  1  -0.291763  -0.507928  -0.002697  2.127363  -0.005
O  O76  1  0.79622350  0.01013960  0.35157392  1  -0.289697  -0.545965  0.041568  2.385151  0.063
O  O77  1  0.00987203  0.79869041  0.85258683  1  -0.290555  -0.547221  -0.041546  2.389003  -0.063
O  O78  1  0.64869349  0.80907823  0.25445622  1  -0.307585  -0.53804  0.049095  2.27392  0.076
O  O79  1  0.80893493  0.65101978  0.75528367  1  -0.308432  -0.538559  -0.049216  2.277169  -0.076
O  O80  1  0.20317425  0.96553925  0.16320981  1  -0.311602  -0.586561  -0.032694  2.383071  -0.049
O  O81  1  0.96697560  0.20569962  0.66230190  1  -0.311096  -0.585349  0.032145  2.37472  0.049
O  O82  1  0.01714093  0.86539420  0.29293598  1  -0.303007  -0.533799  0.041123  2.424679  0.061
O  O83  1  0.86618873  0.01999837  0.79224629  1  -0.302444  -0.53288  -0.041089  2.429607  -0.061
O  O84  1  0.07453391  0.05029826  0.48616683  1  -0.298915  -0.570488  0.022686  2.417774  0.037
O  O85  1  0.05015423  0.07534886  0.98625982  1  -0.298435  -0.570495  -0.022685  2.417059  -0.037
O  O86  1  0.03776798  0.84617185  0.60051150  1  -0.318261  -0.564261  -0.040775  2.368395  -0.062
O  O87  1  0.84505760  0.03845757  0.09933690  1  -0.318623  -0.565807  0.040914  2.36962  0.062
O  O88  1  0.01787980  0.30501924  0.41504078  1  -0.297654  -0.460541  0.034257  2.373554  0.055
O  O89  1  0.30525379  0.01926137  0.91674148  1  -0.297698  -0.460028  -0.034575  2.375241  -0.056
O  O90  1  0.71580460  0.20831790  0.51278400  1  -0.307269  -0.504304  0.025843  2.466529  0.038
O  O91  1  0.21006825  0.71689764  0.01190849  1  -0.307377  -0.505197  -0.025743  2.464173  -0.038
