# generated using pymatgen
data_CdH23C32S2(N4O3)2
_symmetry_space_group_name_H-M   'P 1'
_cell_length_a   10.77726702
_cell_length_b   12.53659578
_cell_length_c   15.76598720
_cell_angle_alpha   111.79903477
_cell_angle_beta   98.29288469
_cell_angle_gamma   106.02844261
_symmetry_Int_Tables_number   1
_chemical_formula_structural   CdH23C32S2(N4O3)2
_chemical_formula_sum   'Cd2 H46 C64 S4 N16 O12'
_cell_volume   1826.81246597
_cell_formula_units_Z   2
loop_
 _symmetry_equiv_pos_site_id
 _symmetry_equiv_pos_as_xyz
  1  'x, y, z'
loop_
 _atom_site_type_symbol
 _atom_site_label
 _atom_site_symmetry_multiplicity
 _atom_site_fract_x
 _atom_site_fract_y
 _atom_site_fract_z
 _atom_site_occupancy
 _atom_site_hle17_bader_spin_density
 _atom_site_hle17_ddec_charge
 _atom_site_hle17_ddec_spin_density
 _atom_site_hle17_ddec_sum_bond_order
 _atom_site_hle17_magmom
 _atom_site_hse06_10hf_bader_spin_density
 _atom_site_hse06_10hf_ddec_charge
 _atom_site_hse06_10hf_ddec_spin_density
 _atom_site_hse06_10hf_ddec_sum_bond_order
 _atom_site_hse06_10hf_magmom
 _atom_site_hse06_bader_spin_density
 _atom_site_hse06_ddec_charge
 _atom_site_hse06_ddec_spin_density
 _atom_site_hse06_ddec_sum_bond_order
 _atom_site_hse06_magmom
 _atom_site_pbe_bader_spin_density
 _atom_site_pbe_cm5_charge
 _atom_site_pbe_ddec_charge
 _atom_site_pbe_ddec_spin_density
 _atom_site_pbe_ddec_sum_bond_order
 _atom_site_pbe_magmom
Cd  Cd0  1  0.69033172  0.53496942  0.71583515  1  0  1.038794  0  1.782449  0  0  0.818305  0  2.239531  0  0  0.871308  0  2.197652  0  0  0.802613  0.780908  0  2.268083  0
Cd  Cd1  1  0.30966701  0.46502951  0.28416414  1  0  1.038827  0  1.78239  0  0  0.818335  0  2.239454  0  0  0.871338  0  2.197577  0  0  0.802609  0.780937  0  2.268005  0
H  H2  1  0.55240927  0.65165713  0.59499379  1  0  0.096348  0  0.966336  0  0  0.103298  0  1.031383  0  0  0.106279  0  1.028489  0  0  0.117236  0.101069  0  1.033494  0
H  H3  1  0.44759092  0.34834549  0.40500927  1  0  0.096367  0  0.966326  0  0  0.103324  0  1.031371  0  0  0.106305  0  1.028477  0  0  0.117262  0.101094  0  1.033483  0
H  H4  1  0.61298320  0.79341542  0.51660858  1  0  0.107263  0  0.959122  0  0  0.11494  0  1.023538  0  0  0.117494  0  1.024406  0  0  0.106801  0.113329  0  1.022664  0
H  H5  1  0.38701576  0.20658167  0.48339019  1  0  0.107244  0  0.959169  0  0  0.114936  0  1.02356  0  0  0.117489  0  1.024428  0  0  0.106796  0.113324  0  1.022686  0
H  H6  1  0.02877582  0.84132859  0.61744973  1  0  0.11311  0  0.984429  0  0  0.112332  0  1.061197  0  0  0.115982  0  1.059995  0  0  0.107142  0.109943  0  1.061719  0
H  H7  1  0.97122222  0.15866850  0.38255086  1  0  0.113173  0  0.98438  0  0  0.112393  0  1.061144  0  0  0.116045  0  1.059942  0  0  0.107141  0.110003  0  1.061667  0
H  H8  1  0.95250181  0.69640017  0.68806883  1  0  0.089704  0  0.968047  0  0  0.094793  0  1.036931  0  0  0.09798  0  1.033953  0  0  0.113776  0.092415  0  1.039203  0
H  H9  1  0.04749637  0.30359968  0.31193322  1  0  0.089746  0  0.967999  0  0  0.094828  0  1.036898  0  0  0.098014  0  1.033922  0  0  0.113784  0.092449  0  1.039171  0
H  H10  1  0.78630979  0.92621450  0.47424537  1  0  0.080748  0  0.925639  0  0  0.085536  0  0.998317  0  0  0.0897  0  0.993691  0  0  0.117371  0.082415  0  1.00178  0
H  H11  1  0.21369210  0.07377800  0.52575548  1  0  0.08072  0  0.925658  0  0  0.085514  0  0.998319  0  0  0.089679  0  0.993693  0  0  0.117375  0.082391  0  1.001785  0
H  H12  1  0.61597525  0.24420260  0.63035746  1  0  0.099211  0  0.970623  0  0  0.105419  0  1.035261  0  0  0.108566  0  1.031985  0  0  0.115579  0.103044  0  1.03774  0
H  H13  1  0.38402384  0.75579725  0.36964214  1  0  0.099207  0  0.970662  0  0  0.105455  0  1.03525  0  0  0.108575  0  1.032005  0  0  0.115589  0.103079  0  1.037733  0
H  H14  1  0.61212599  0.06092660  0.49050547  1  0  0.107381  0  0.940799  0  0  0.120544  0  0.994841  0  0  0.123549  0  0.994486  0  0  0.109426  0.11834  0  0.995324  0
H  H15  1  0.38787441  0.93907418  0.50949516  1  0  0.107396  0  0.940778  0  0  0.12056  0  0.994822  0  0  0.123566  0  0.994466  0  0  0.109431  0.118356  0  0.995304  0
H  H16  1  0.76649343  0.30590140  0.36567388  1  0  0.133443  0  0.936347  0  0  0.139929  0  0.998708  0  0  0.144194  0  0.996184  0  0  0.117387  0.136799  0  1.000697  0
H  H17  1  0.23350566  0.69409846  0.63432508  1  0  0.133414  0  0.93635  0  0  0.139892  0  0.998717  0  0  0.144157  0  0.996191  0  0  0.117352  0.136762  0  1.000706  0
H  H18  1  0.75969665  0.47782389  0.50849993  1  0  0.074835  0  0.963855  0  0  0.079852  0  1.033529  0  0  0.082151  0  1.031982  0  0  0.111653  0.078144  0  1.034756  0
H  H19  1  0.24030562  0.52217689  0.49150024  1  0  0.074846  0  0.963856  0  0  0.079861  0  1.033533  0  0  0.082159  0  1.031987  0  0  0.111662  0.078152  0  1.034763  0
H  H20  1  0.62522096  0.97033860  0.32181332  1  0  0.102426  0  0.963306  0  0  0.10868  0  1.031354  0  0  0.112851  0  1.026498  0  0  0.119119  0.105631  0  1.034965  0
H  H21  1  0.37477909  0.02966125  0.67818764  1  0  0.102334  0  0.963327  0  0  0.108591  0  1.031389  0  0  0.112764  0  1.02653  0  0  0.119074  0.105544  0  1.034997  0
H  H22  1  0.79935850  0.09035045  0.13320440  1  0  0.093397  0  0.943304  0  0  0.098023  0  1.014229  0  0  0.102261  0  1.009291  0  0  0.119404  0.094904  0  1.017877  0
H  H23  1  0.20064444  0.90964481  0.86679483  1  0  0.093327  0  0.943368  0  0  0.097989  0  1.014264  0  0  0.10221  0  1.009341  0  0  0.119407  0.094876  0  1.017904  0
H  H24  1  0.59760295  0.75122169  0.05750559  1  0  0.127947  0  0.950972  0  0  0.131929  0  1.018377  0  0  0.136018  0  1.016191  0  0  0.113125  0.129013  0  1.01998  0
H  H25  1  0.40239565  0.24877449  0.94249351  1  0  0.127891  0  0.950981  0  0  0.131863  0  1.018393  0  0  0.13596  0  1.016209  0  0  0.113081  0.128947  0  1.019996  0
H  H26  1  0.56318843  0.58788854  0.89485753  1  0  0.084372  0  0.956551  0  0  0.089975  0  1.023532  0  0  0.092299  0  1.022128  0  0  0.115162  0.088262  0  1.024577  0
H  H27  1  0.43680900  0.41210947  0.10514073  1  0  0.084175  0  0.956618  0  0  0.089823  0  1.02356  0  0  0.092147  0  1.022155  0  0  0.115097  0.088109  0  1.024608  0
H  H28  1  0.82679755  0.83453943  0.82802878  1  0  0.069672  0  0.942002  0  0  0.079224  0  1.003333  0  0  0.081077  0  1.002286  0  0  0.112123  0.077883  0  1.004092  0
H  H29  1  0.17320411  0.16545491  0.17197133  1  0  0.069776  0  0.941938  0  0  0.079307  0  1.003282  0  0  0.081158  0  1.00223  0  0  0.112153  0.077923  0  1.004084  0
H  H30  1  0.86335163  0.01072953  0.98411902  1  0  0.126478  0  0.943891  0  0  0.136962  0  1.000552  0  0  0.14035  0  0.999693  0  0  0.113509  0.134527  0  1.001317  0
H  H31  1  0.13664907  0.98926481  0.01587972  1  0  0.126424  0  0.943952  0  0  0.136933  0  1.000596  0  0  0.140323  0  0.999735  0  0  0.113484  0.134499  0  1.001361  0
H  H32  1  0.12046676  0.45930253  0.60277778  1  0  0.102572  0  0.936102  0  0  0.11536  0  0.992365  0  0  0.118612  0  0.990121  0  0  0.108686  0.112946  0  0.99411  0
H  H33  1  0.87953422  0.54069733  0.39722326  1  0  0.102589  0  0.936125  0  0  0.115377  0  0.992386  0  0  0.118629  0  0.99014  0  0  0.108694  0.112963  0  0.994132  0
H  H34  1  0.91065155  0.32390869  0.61395554  1  0  0.086128  0  0.983994  0  0  0.094555  0  1.049209  0  0  0.096203  0  1.050799  0  0  0.096502  0.093335  0  1.048189  0
H  H35  1  0.08934719  0.67609024  0.38604376  1  0  0.086121  0  0.984038  0  0  0.09455  0  1.049252  0  0  0.096198  0  1.050842  0  0  0.096496  0.093329  0  1.048232  0
H  H36  1  0.91969164  0.18318500  0.68809513  1  0  0.091918  0  0.929011  0  0  0.106527  0  0.979755  0  0  0.109308  0  0.978818  0  0  0.106328  0.104401  0  0.980749  0
H  H37  1  0.08030674  0.81681302  0.31190449  1  0  0.091944  0  0.929003  0  0  0.106554  0  0.979746  0  0  0.109335  0  0.978809  0  0  0.106339  0.104427  0  0.980741  0
H  H38  1  0.14071038  0.17035552  0.75135005  1  0  0.110659  0  0.934083  0  0  0.117517  0  0.997791  0  0  0.121626  0  0.994942  0  0  0.108652  0.114481  0  1.000034  0
H  H39  1  0.85928670  0.82964157  0.24864854  1  0  0.110694  0  0.934105  0  0  0.117533  0  0.997817  0  0  0.121652  0  0.994957  0  0  0.108668  0.114498  0  1.000056  0
H  H40  1  0.92062440  0.29136345  0.89710209  1  0  0.108393  0  0.92292  0  0  0.119331  0  0.978354  0  0  0.123514  0  0.97534  0  0  0.111127  0.116301  0  0.98062  0
H  H41  1  0.07937437  0.70864284  0.10289812  1  0  0.108468  0  0.922964  0  0  0.119419  0  0.978374  0  0  0.123601  0  0.97536  0  0  0.111156  0.11639  0  0.980641  0
H  H42  1  0.14773804  0.32515697  0.98978829  1  0  0.088597  0  0.969628  0  0  0.09835  0  1.030826  0  0  0.100952  0  1.030914  0  0  0.097966  0.096445  0  1.03091  0
H  H43  1  0.85225886  0.67484932  0.01021175  1  0  0.088596  0  0.969561  0  0  0.098365  0  1.030743  0  0  0.100968  0  1.030832  0  0  0.097965  0.096463  0  1.030831  0
H  H44  1  0.34625061  0.50554705  0.01784003  1  0  0.104605  0  0.960552  0  0  0.114181  0  1.021056  0  0  0.117276  0  1.01928  0  0  0.105254  0.111929  0  1.022462  0
H  H45  1  0.65374819  0.49445924  0.98216272  1  0  0.104662  0  0.960535  0  0  0.114227  0  1.021052  0  0  0.117324  0  1.019273  0  0  0.105278  0.111972  0  1.022457  0
H  H46  1  0.32111175  0.65595106  0.95503404  1  0  0.104161  0  0.930761  0  0  0.117155  0  0.983998  0  0  0.120635  0  0.982109  0  0  0.110953  0.114687  0  0.985375  0
H  H47  1  0.67889338  0.34405708  0.04496859  1  0  0.10419  0  0.930765  0  0  0.117177  0  0.984  0  0  0.120657  0  0.982112  0  0  0.110964  0.114704  0  0.98538  0
C  C48  1  0.65631024  0.69627067  0.59772541  1  0  0.133816  0  3.679145  0  0  0.102411  0  3.928525  0  0  0.11011  0  3.945755  0  0  0.049059  0.097445  0  3.916668  0
C  C49  1  0.34368905  0.30373194  0.40228074  1  0  0.133773  0  3.679074  0  0  0.102351  0  3.92848  0  0  0.110053  0  3.945708  0  0  0.049006  0.097385  0  3.916624  0
C  C50  1  0.69114275  0.77565291  0.55532908  1  0  -0.143753  0  3.680473  0  0  -0.1613  0  3.923582  0  0  -0.169717  0  3.946442  0  0  -0.076945  -0.15573  0  3.907772  0
C  C51  1  0.30885458  0.22434234  0.44467153  1  0  -0.143744  0  3.680511  0  0  -0.161285  0  3.923613  0  0  -0.169699  0  3.946467  0  0  -0.076978  -0.155715  0  3.907802  0
C  C52  1  0.82663610  0.82990491  0.56145318  1  0  0.09106  0  3.796681  0  0  0.10834  0  4.022132  0  0  0.110788  0  4.045747  0  0  0.011117  0.107049  0  4.005907  0
C  C53  1  0.17336418  0.17009310  0.43854852  1  0  0.091078  0  3.796624  0  0  0.108328  0  4.022082  0  0  0.110774  0  4.045703  0  0  0.01115  0.107041  0  4.005847  0
C  C54  1  0.92248429  0.80145411  0.61073407  1  0  -0.130774  0  3.680833  0  0  -0.149315  0  3.925105  0  0  -0.15643  0  3.946746  0  0  -0.072814  -0.144875  0  3.910503  0
C  C55  1  0.07751575  0.19854574  0.38926688  1  0  -0.130865  0  3.680902  0  0  -0.149401  0  3.925168  0  0  -0.156517  0  3.946806  0  0  -0.072812  -0.144957  0  3.910562  0
C  C56  1  0.87987494  0.72106260  0.65052331  1  0  0.107048  0  3.704641  0  0  0.079255  0  3.954563  0  0  0.085039  0  3.973305  0  0  0.039127  0.075358  0  3.942213  0
C  C57  1  0.12012402  0.27893450  0.34947609  1  0  0.106979  0  3.704743  0  0  0.079194  0  3.954652  0  0  0.08498  0  3.973394  0  0  0.039091  0.075296  0  3.942304  0
C  C58  1  0.86526679  0.91141992  0.51608898  1  0  0.092496  0  3.646438  0  0  0.060169  0  3.907987  0  0  0.065746  0  3.920076  0  0  0.082104  0.056461  0  3.899682  0
C  C59  1  0.13473182  0.08857625  0.48391075  1  0  0.092629  0  3.646306  0  0  0.060334  0  3.907814  0  0  0.06591  0  3.919903  0  0  0.082184  0.056625  0  3.899509  0
C  C60  1  0.64836671  0.25348107  0.57023586  1  0  0.119452  0  3.711751  0  0  0.088027  0  3.966784  0  0  0.095232  0  3.984252  0  0  0.041631  0.083222  0  3.955016  0
C  C61  1  0.35163274  0.74651970  0.42976341  1  0  0.119404  0  3.71152  0  0  0.087946  0  3.966557  0  0  0.095173  0  3.984037  0  0  0.041567  0.08314  0  3.954793  0
C  C62  1  0.64707633  0.15252104  0.49260654  1  0  -0.16405  0  3.705928  0  0  -0.180099  0  3.949726  0  0  -0.188755  0  3.971581  0  0  -0.080444  -0.174551  0  3.9351  0
C  C63  1  0.35292349  0.84748066  0.50739494  1  0  -0.164051  0  3.705762  0  0  -0.180106  0  3.949577  0  0  -0.188762  0  3.971425  0  0  -0.080416  -0.174558  0  3.934951  0
C  C64  1  0.69133575  0.16938734  0.41737397  1  0  0.099144  0  3.795775  0  0  0.1135  0  4.029472  0  0  0.11716  0  4.05163  0  0  0.011571  0.111261  0  4.014068  0
C  C65  1  0.30866428  0.83061252  0.58262571  1  0  0.09915  0  3.795873  0  0  0.113504  0  4.029565  0  0  0.117166  0  4.051724  0  0  0.011557  0.111267  0  4.014156  0
C  C66  1  0.73530054  0.28934876  0.42383710  1  0  -0.137348  0  3.65278  0  0  -0.155041  0  3.893613  0  0  -0.162068  0  3.913288  0  0  -0.068525  -0.150291  0  3.880021  0
C  C67  1  0.26470057  0.71065386  0.57616351  1  0  -0.137308  0  3.652781  0  0  -0.154983  0  3.893598  0  0  -0.16201  0  3.913273  0  0  -0.068479  -0.150233  0  3.880005  0
C  C68  1  0.73157566  0.38476438  0.50328267  1  0  0.129811  0  3.716423  0  0  0.101451  0  3.968891  0  0  0.108292  0  3.986949  0  0  0.045744  0.09695  0  3.956643  0
C  C69  1  0.26842437  0.61523548  0.49671638  1  0  0.129814  0  3.716431  0  0  0.101447  0  3.968891  0  0  0.108289  0  3.986952  0  0  0.045755  0.096947  0  3.956643  0
C  C70  1  0.68545087  0.06366946  0.33373401  1  0  0.07689  0  3.624474  0  0  0.042414  0  3.883118  0  0  0.048389  0  3.893184  0  0  0.076751  0.038301  0  3.876304  0
C  C71  1  0.31454729  0.93633039  0.66626614  1  0  0.077017  0  3.624447  0  0  0.042542  0  3.883088  0  0  0.048514  0  3.893155  0  0  0.076789  0.038428  0  3.87627  0
C  C72  1  0.75761292  0.99557645  0.12536947  1  0  0.089693  0  3.634894  0  0  0.057481  0  3.890027  0  0  0.064156  0  3.901323  0  0  0.081603  0.05291  0  3.882493  0
C  C73  1  0.24238872  0.00441789  0.87462937  1  0  0.089837  0  3.634916  0  0  0.057596  0  3.890054  0  0  0.064284  0  3.901357  0  0  0.081693  0.053032  0  3.882531  0
C  C74  1  0.73432543  0.89420581  0.03348537  1  0  0.0955  0  3.79549  0  0  0.113142  0  4.023304  0  0  0.115431  0  4.04656  0  0  0.011279  0.111729  0  4.007595  0
C  C75  1  0.26567211  0.10578760  0.96651344  1  0  0.095344  0  3.7957  0  0  0.112985  0  4.023528  0  0  0.115274  0  4.046786  0  0  0.011158  0.111531  0  4.007878  0
C  C76  1  0.64818611  0.77338055  0.00775677  1  0  -0.143382  0  3.665799  0  0  -0.162305  0  3.909714  0  0  -0.169481  0  3.930766  0  0  -0.070525  -0.157661  0  3.895587  0
C  C77  1  0.35181199  0.22661194  0.99224055  1  0  -0.143285  0  3.665863  0  0  -0.162195  0  3.909765  0  0  -0.169383  0  3.93083  0  0  -0.070486  -0.157539  0  3.895649  0
C  C78  1  0.62971464  0.68275102  0.91804918  1  0  0.125437  0  3.700997  0  0  0.098758  0  3.951118  0  0  0.104112  0  3.970959  0  0  0.046262  0.095299  0  3.937635  0
C  C79  1  0.37028322  0.31724331  0.08194613  1  0  0.125672  0  3.700869  0  0  0.098972  0  3.950942  0  0  0.104326  0  3.970786  0  0  0.046404  0.095514  0  3.937457  0
C  C80  1  0.77599324  0.82034752  0.88009883  1  0  0.139666  0  3.729363  0  0  0.108225  0  3.985129  0  0  0.115492  0  4.003436  0  0  0.048408  0.103482  0  3.9725  0
C  C81  1  0.22400949  0.17964958  0.11990157  1  0  0.139641  0  3.729238  0  0  0.108225  0  3.984996  0  0  0.1155  0  4.003294  0  0  0.048412  0.103521  0  3.972373  0
C  C82  1  0.79761512  0.91770461  0.96708385  1  0  -0.153691  0  3.681001  0  0  -0.170125  0  3.918939  0  0  -0.177858  0  3.940261  0  0  -0.075495  -0.165115  0  3.904641  0
C  C83  1  0.20238277  0.08228972  0.03291463  1  0  -0.153607  0  3.680954  0  0  -0.170082  0  3.918899  0  0  -0.177814  0  3.94022  0  0  -0.075438  -0.165058  0  3.904601  0
C  C84  1  0.38277683  0.45842660  0.66942287  1  0  0.550648  0  3.925934  0  0  0.507567  0  4.212823  0  0  0.538685  0  4.211593  0  0  0.216328  0.486473  0  4.212919  0
C  C85  1  0.61722097  0.54157233  0.33057760  1  0  0.550725  0  3.925822  0  0  0.507629  0  4.212687  0  0  0.538746  0  4.211457  0  0  0.216322  0.486534  0  4.212785  0
C  C86  1  0.24580189  0.38866912  0.66928209  1  0  -0.066943  0  3.80678  0  0  -0.053023  0  4.037313  0  0  -0.059591  0  4.061072  0  0  -0.015927  -0.048747  0  4.021362  0
C  C87  1  0.75419743  0.61132889  0.33071762  1  0  -0.067048  0  3.806914  0  0  -0.053086  0  4.037423  0  0  -0.059652  0  4.06118  0  0  -0.015961  -0.048808  0  4.021472  0
C  C88  1  0.12375132  0.39523404  0.63367762  1  0  -0.041186  0  3.703774  0  0  -0.065869  0  3.956225  0  0  -0.064433  0  3.973212  0  0  -0.074366  -0.066711  0  3.944641  0
C  C89  1  0.87624591  0.60476581  0.36632308  1  0  -0.041218  0  3.703849  0  0  -0.065909  0  3.956291  0  0  -0.064473  0  3.973277  0  0  -0.074375  -0.066753  0  3.944708  0
C  C90  1  0.00705532  0.31943363  0.64048329  1  0  -0.056323  0  3.713713  0  0  -0.0754  0  3.976418  0  0  -0.076649  0  3.996052  0  0  -0.085988  -0.074463  0  3.962997  0
C  C91  1  0.99294402  0.68056438  0.35951769  1  0  -0.056337  0  3.713725  0  0  -0.075412  0  3.976434  0  0  -0.076663  0  3.996066  0  0  -0.086008  -0.074474  0  3.963011  0
C  C92  1  0.01252076  0.23982860  0.68278043  1  0  -0.04185  0  3.717581  0  0  -0.059562  0  3.976261  0  0  -0.060401  0  3.995826  0  0  -0.079043  -0.05892  0  3.963061  0
C  C93  1  0.98747856  0.76016942  0.31721991  1  0  -0.041804  0  3.717615  0  0  -0.059525  0  3.976291  0  0  -0.060363  0  3.995859  0  0  -0.079016  -0.05888  0  3.963088  0
C  C94  1  0.13486217  0.23255573  0.71887643  1  0  -0.048169  0  3.723714  0  0  -0.074829  0  3.978468  0  0  -0.07489  0  3.997291  0  0  -0.076342  -0.074817  0  3.965947  0
C  C95  1  0.86513772  0.76744136  0.28112179  1  0  -0.048232  0  3.72386  0  0  -0.07484  0  3.978623  0  0  -0.074911  0  3.997445  0  0  -0.076349  -0.074828  0  3.966104  0
C  C96  1  0.24911897  0.30796473  0.71051625  1  0  -0.140504  0  3.764931  0  0  -0.118819  0  4.007166  0  0  -0.124566  0  4.030493  0  0  -0.015108  -0.11501  0  3.991702  0
C  C97  1  0.75088367  0.69203697  0.28948613  1  0  -0.140507  0  3.764979  0  0  -0.118903  0  4.007288  0  0  -0.124652  0  4.030619  0  0  -0.015131  -0.115097  0  3.991828  0
C  C98  1  0.87093326  0.45165297  0.81717374  1  0  0.542284  0  3.932636  0  0  0.499106  0  4.220531  0  0  0.529105  0  4.221279  0  0  0.213973  0.478741  0  4.219409  0
C  C99  1  0.12906643  0.54835332  0.18282529  1  0  0.542294  0  3.932374  0  0  0.499155  0  4.220259  0  0  0.529157  0  4.221005  0  0  0.214024  0.47879  0  4.219139  0
C  C100  1  0.99526631  0.45330406  0.87385589  1  0  -0.068385  0  3.826369  0  0  -0.05128  0  4.053427  0  0  -0.058366  0  4.07945  0  0  -0.014631  -0.046644  0  4.035986  0
C  C101  1  0.00473599  0.54670407  0.12614520  1  0  -0.068187  0  3.825942  0  0  -0.051119  0  4.053098  0  0  -0.058217  0  4.079134  0  0  -0.01458  -0.046485  0  4.03566  0
C  C102  1  0.00851748  0.36922899  0.90894931  1  0  -0.056599  0  3.720968  0  0  -0.080985  0  3.973563  0  0  -0.081008  0  3.992232  0  0  -0.075319  -0.080769  0  3.960806  0
C  C103  1  0.99148410  0.63077730  0.09105053  1  0  -0.05689  0  3.720994  0  0  -0.081282  0  3.973624  0  0  -0.081301  0  3.992292  0  0  -0.075387  -0.081065  0  3.960867  0
C  C104  1  0.13604232  0.38907449  0.96053905  1  0  -0.061279  0  3.726302  0  0  -0.078535  0  3.984884  0  0  -0.080416  0  4.005095  0  0  -0.085382  -0.077285  0  3.97127  0
C  C105  1  0.86395774  0.61093272  0.03946156  1  0  -0.061088  0  3.726085  0  0  -0.078336  0  3.984648  0  0  -0.080217  0  4.004861  0  0  -0.085357  -0.077093  0  3.97104  0
C  C106  1  0.24791396  0.49042464  0.97633201  1  0  -0.032531  0  3.683415  0  0  -0.050801  0  3.941292  0  0  -0.050914  0  3.959855  0  0  -0.075468  -0.050669  0  3.928888  0
C  C107  1  0.75208669  0.50958165  0.02366902  1  0  -0.032738  0  3.683591  0  0  -0.05101  0  3.941466  0  0  -0.051126  0  3.960035  0  0  -0.07555  -0.050872  0  3.929056  0
C  C108  1  0.23476801  0.57591744  0.94174773  1  0  -0.045847  0  3.711942  0  0  -0.070202  0  3.959383  0  0  -0.070194  0  3.977285  0  0  -0.07447  -0.070147  0  3.947251  0
C  C109  1  0.76523278  0.42409161  0.05825412  1  0  -0.045801  0  3.712134  0  0  -0.070116  0  3.959557  0  0  -0.070106  0  3.977452  0  0  -0.074389  -0.070058  0  3.947427  0
C  C110  1  0.10710836  0.55496719  0.89123068  1  0  -0.130569  0  3.753725  0  0  -0.110292  0  3.994506  0  0  -0.115374  0  4.017283  0  0  -0.012048  -0.106858  0  3.979214  0
C  C111  1  0.89289396  0.44504094  0.10877169  1  0  -0.130541  0  3.753672  0  0  -0.110327  0  3.994554  0  0  -0.115402  0  4.017329  0  0  -0.012071  -0.106893  0  3.97926  0
S  S112  1  0.41858287  0.32064964  0.74550729  1  0  1.251899  0  5.3835  0  0  1.160316  0  5.898714  0  0  1.206988  0  5.88191  0  0  0.559626  1.127898  0  5.909502  0
S  S113  1  0.58141703  0.67934745  0.25449220  1  0  1.252124  0  5.383429  0  0  1.160526  0  5.89866  0  0  1.207199  0  5.881853  0  0  0.55972  1.12811  0  5.90945  0
S  S114  1  0.05138066  0.64599027  0.84220921  1  0  1.233768  0  5.41527  0  0  1.150517  0  5.925001  0  0  1.19642  0  5.90855  0  0  0.546222  1.118766  0  5.935351  0
S  S115  1  0.94862300  0.35401418  0.15778838  1  0  1.2338  0  5.415131  0  0  1.150589  0  5.924827  0  0  1.196484  0  5.908375  0  0  0.546289  1.118837  0  5.935181  0
N  N116  1  0.74891202  0.66915833  0.64445446  1  0  -0.334834  0  3.253344  0  0  -0.253866  0  3.520957  0  0  -0.273612  0  3.539244  0  0  -0.326587  -0.240461  0  3.508275  0
N  N117  1  0.25108970  0.33084337  0.35554847  1  0  -0.334805  0  3.253331  0  0  -0.253843  0  3.520953  0  0  -0.273589  0  3.539236  0  0  -0.326559  -0.240437  0  3.508268  0
N  N118  1  0.99089291  0.96353115  0.52411878  1  0  -0.195587  0  3.048608  0  0  -0.166659  0  3.338981  0  0  -0.175415  0  3.357669  0  0  -0.202216  -0.160577  0  3.326008  0
N  N119  1  0.00910381  0.03646502  0.47588014  1  0  -0.195695  0  3.048562  0  0  -0.166793  0  3.338944  0  0  -0.175545  0  3.357628  0  0  -0.202284  -0.16071  0  3.325971  0
N  N120  1  0.68890857  0.36806208  0.57523330  1  0  -0.332227  0  3.220555  0  0  -0.255409  0  3.486246  0  0  -0.274759  0  3.504933  0  0  -0.325644  -0.242161  0  3.473358  0
N  N121  1  0.31109241  0.63193778  0.42476711  1  0  -0.332225  0  3.220545  0  0  -0.255404  0  3.486248  0  0  -0.274752  0  3.504926  0  0  -0.325645  -0.242156  0  3.47336  0
N  N122  1  0.74961691  0.08183006  0.27409995  1  0  -0.182427  0  3.048047  0  0  -0.149663  0  3.333778  0  0  -0.158424  0  3.350581  0  0  -0.198358  -0.143386  0  3.32192  0
N  N123  1  0.25038146  0.91816795  0.72589840  1  0  -0.182523  0  3.048167  0  0  -0.149769  0  3.333909  0  0  -0.158528  0  3.35071  0  0  -0.198381  -0.143491  0  3.322052  0
N  N124  1  0.72765999  0.97386047  0.19546064  1  0  -0.194906  0  3.017245  0  0  -0.166992  0  3.303103  0  0  -0.176719  0  3.319765  0  0  -0.203887  -0.160099  0  3.291444  0
N  N125  1  0.27233673  0.02613570  0.80453765  1  0  -0.194903  0  3.017256  0  0  -0.166982  0  3.303116  0  0  -0.176709  0  3.319773  0  0  -0.203914  -0.160087  0  3.291453  0
N  N126  1  0.69325995  0.70502186  0.85535083  1  0  -0.327385  0  3.225079  0  0  -0.253476  0  3.490927  0  0  -0.272241  0  3.510141  0  0  -0.324453  -0.240548  0  3.477576  0
N  N127  1  0.30673957  0.29497432  0.14464645  1  0  -0.327478  0  3.225035  0  0  -0.25358  0  3.49091  0  0  -0.272347  0  3.51012  0  0  -0.324511  -0.24065  0  3.477542  0
N  N128  1  0.48025408  0.42857594  0.71114974  1  0  -0.723965  0  3.043124  0  0  -0.644906  0  3.350329  0  0  -0.676651  0  3.350366  0  0  -0.417007  -0.622784  0  3.349403  0
N  N129  1  0.51974430  0.57142207  0.28884988  1  0  -0.724073  0  3.043152  0  0  -0.644961  0  3.350308  0  0  -0.676706  0  3.350349  0  0  -0.417014  -0.622839  0  3.349385  0
N  N130  1  0.89429724  0.55178877  0.79710012  1  0  -0.737097  0  3.040461  0  0  -0.660611  0  3.347143  0  0  -0.692693  0  3.349042  0  0  -0.42515  -0.638333  0  3.344856  0
N  N131  1  0.10570421  0.44821477  0.20289953  1  0  -0.737141  0  3.040377  0  0  -0.660642  0  3.347027  0  0  -0.692732  0  3.348952  0  0  -0.425125  -0.638362  0  3.344744  0
O  O132  1  0.40700113  0.53414603  0.63508490  1  0  -0.552112  0  1.918652  0  0  -0.5093  0  2.13916  0  0  -0.530068  0  2.13221  0  0  -0.301616  -0.494689  0  2.143475  0
O  O133  1  0.59299726  0.46585198  0.36491473  1  0  -0.552048  0  1.918555  0  0  -0.509247  0  2.139071  0  0  -0.530013  0  2.13212  0  0  -0.301557  -0.494637  0  2.143391  0
O  O134  1  0.46584488  0.36571937  0.84772985  1  0  -0.593598  0  1.918395  0  0  -0.5472  0  2.157497  0  0  -0.568535  0  2.145513  0  0  -0.306992  -0.531907  0  2.165422  0
O  O135  1  0.53415515  0.63428049  0.15226984  1  0  -0.593608  0  1.918326  0  0  -0.547227  0  2.157447  0  0  -0.56856  0  2.145458  0  0  -0.307014  -0.531937  0  2.165373  0
O  O136  1  0.43479459  0.20724725  0.68652286  1  0  -0.611432  0  1.948672  0  0  -0.566202  0  2.196057  0  0  -0.587687  0  2.182388  0  0  -0.315797  -0.550739  0  2.204796  0
O  O137  1  0.56520661  0.79275076  0.31347767  1  0  -0.61161  0  1.94876  0  0  -0.566343  0  2.196122  0  0  -0.587826  0  2.182449  0  0  -0.315874  -0.55087  0  2.204836  0
O  O138  1  0.75804750  0.36996972  0.78944710  1  0  -0.540672  0  1.900698  0  0  -0.498856  0  2.119883  0  0  -0.519062  0  2.112594  0  0  -0.304957  -0.484827  0  2.124809  0
O  O139  1  0.24195336  0.63003473  0.21055149  1  0  -0.540662  0  1.90054  0  0  -0.498891  0  2.119758  0  0  -0.519094  0  2.112465  0  0  -0.305004  -0.484864  0  2.124685  0
O  O140  1  0.11245887  0.65535870  0.76750932  1  0  -0.609412  0  1.908007  0  0  -0.570302  0  2.150036  0  0  -0.591121  0  2.137591  0  0  -0.323919  -0.555518  0  2.158  0
O  O141  1  0.88754525  0.34464208  0.23248913  1  0  -0.609533  0  1.907794  0  0  -0.570441  0  2.149808  0  0  -0.591258  0  2.137373  0  0  -0.324038  -0.555655  0  2.157774  0
O  O142  1  0.06371549  0.76279738  0.91747110  1  0  -0.621906  0  1.889116  0  0  -0.582143  0  2.125975  0  0  -0.603208  0  2.114353  0  0  -0.332271  -0.56718  0  2.1333  0
O  O143  1  0.93628887  0.23720891  0.08252520  1  0  -0.62189  0  1.889052  0  0  -0.582117  0  2.125883  0  0  -0.603179  0  2.114268  0  0  -0.332281  -0.567153  0  2.133209  0
