# generated using pymatgen
data_Zn4H12C26S4O13
_symmetry_space_group_name_H-M   'P 1'
_cell_length_a   19.65685229
_cell_length_b   19.64523186
_cell_length_c   33.34738234
_cell_angle_alpha   79.31645771
_cell_angle_beta   79.28206489
_cell_angle_gamma   63.99577607
_symmetry_Int_Tables_number   1
_chemical_formula_structural   Zn4H12C26S4O13
_chemical_formula_sum   'Zn16 H48 C104 S16 O52'
_cell_volume   11293.02656392
_cell_formula_units_Z   4
loop_
 _symmetry_equiv_pos_site_id
 _symmetry_equiv_pos_as_xyz
  1  'x, y, z'
loop_
 _atom_site_type_symbol
 _atom_site_label
 _atom_site_symmetry_multiplicity
 _atom_site_fract_x
 _atom_site_fract_y
 _atom_site_fract_z
 _atom_site_occupancy
 _atom_site_pbe_bader_charge
 _atom_site_pbe_bader_spin_density
 _atom_site_pbe_cm5_charge
 _atom_site_pbe_ddec_charge
 _atom_site_pbe_ddec_spin_density
 _atom_site_pbe_ddec_sum_bond_order
 _atom_site_pbe_magmom
Zn  Zn0  1  0.05661930  0.39990918  0.47811729  1  1.31716  0  0.6718  0.970966  0  2.359279  0
Zn  Zn1  1  0.98384313  0.48347890  0.55948943  1  1.311795  0  0.669597  0.947857  0  2.407326  0
Zn  Zn2  1  0.05935690  0.56109213  0.48290654  1  1.317429  0  0.671213  0.96043  0  2.381082  0
Zn  Zn3  1  0.90086777  0.55470603  0.47866294  1  1.315793  0  0.670623  0.958941  0  2.383585  0
Zn  Zn4  1  0.69377934  0.34987628  0.27153431  1  1.318661  0  0.671387  0.969646  0  2.361323  0
Zn  Zn5  1  0.68955076  0.18949350  0.26696608  1  1.315133  0  0.671172  0.96626  0  2.37034  0
Zn  Zn6  1  0.76763472  0.26596780  0.18991030  1  1.316721  0  0.670278  0.958423  0  2.382336  0
Zn  Zn7  1  0.84779180  0.19504583  0.27190512  1  1.316636  0  0.669958  0.954536  0  2.390773  0
Zn  Zn8  1  0.26672585  0.76707348  0.68964704  1  1.311199  0  0.670323  0.961452  0  2.37684  0
Zn  Zn9  1  0.34862118  0.69549660  0.77131318  1  1.315113  0  0.670458  0.958472  0  2.385736  0
Zn  Zn10  1  0.19352225  0.84959848  0.77187597  1  1.317134  0  0.671532  0.970742  0  2.359275  0
Zn  Zn11  1  0.19075857  0.68906995  0.76687335  1  1.317713  0  0.670587  0.959251  0  2.379941  0
Zn  Zn12  1  0.56011635  0.06051831  0.98311410  1  1.317107  0  0.6706  0.96534  0  2.369843  0
Zn  Zn13  1  0.40126466  0.05527240  0.97835757  1  1.314046  0  0.670112  0.960358  0  2.377012  0
Zn  Zn14  1  0.55581217  0.90069541  0.97838321  1  1.316183  0  0.671084  0.968888  0  2.365062  0
Zn  Zn15  1  0.48288290  0.98328364  0.06031922  1  1.313996  0  0.670891  0.964874  0  2.371267  0
H  H16  1  0.79588426  0.50227274  0.39914138  1  0.0807  0  0.108688  0.114289  0  0.993858  0
H  H17  1  0.95406873  0.24762249  0.35086691  1  0.083062  0  0.108423  0.113636  0  0.994197  0
H  H18  1  0.74778085  0.45392929  0.35083641  1  0.086835  0  0.109968  0.115846  0  0.991551  0
H  H19  1  0.00220907  0.29605083  0.39911001  1  0.08786  0  0.109802  0.116184  0  0.991635  0
H  H20  1  0.15230476  0.65245551  0.54936793  1  0.087394  0  0.109437  0.115164  0  0.993489  0
H  H21  1  0.09768873  0.59751291  0.70067957  1  0.085741  0  0.108922  0.1147  0  0.993736  0
H  H22  1  0.20062557  0.70070745  0.59760592  1  0.093128  0  0.109575  0.115006  0  0.992689  0
H  H23  1  0.04934688  0.54923555  0.65244808  1  0.088607  0  0.107684  0.112059  0  0.996177  0
H  H24  1  0.46351480  0.23906449  0.34078793  1  0.126263  0  0.120185  0.145757  0  0.970319  0
H  H25  1  0.47875118  0.70289325  0.60133140  1  0.107686  0  0.120564  0.14621  0  0.969725  0
H  H26  1  0.20299104  0.97860825  0.60128526  1  0.103624  0  0.120088  0.145533  0  0.970329  0
H  H27  1  0.94943917  0.97062495  0.34788881  1  0.12979  0  0.11939  0.144676  0  0.971948  0
H  H28  1  0.70077441  0.20062245  0.09760168  1  0.090893  0  0.108885  0.114094  0  0.993848  0
H  H29  1  0.54927866  0.04929472  0.15239745  1  0.091409  0  0.109705  0.115197  0  0.992158  0
H  H30  1  0.65243193  0.15241171  0.04935079  1  0.087408  0  0.109412  0.115546  0  0.99278  0
H  H31  1  0.59757436  0.09756074  0.20064353  1  0.088019  0  0.109731  0.11588  0  0.992389  0
H  H32  1  0.54699467  0.77148487  0.14866965  1  0.105395  0  0.120268  0.145858  0  0.96991  0
H  H33  1  0.16269105  0.14155879  0.04002550  1  0.128126  0  0.119911  0.145535  0  0.971042  0
H  H34  1  0.24782493  0.95395625  0.85089897  1  0.087716  0  0.109872  0.115941  0  0.991656  0
H  H35  1  0.50226161  0.79602160  0.89911909  1  0.086222  0  0.109571  0.115652  0  0.992203  0
H  H36  1  0.29598657  0.00230466  0.89915263  1  0.084008  0  0.109109  0.114771  0  0.992557  0
H  H37  1  0.45414732  0.74769561  0.85082032  1  0.082935  0  0.108486  0.113923  0  0.994021  0
H  H38  1  0.30054822  0.27938329  0.90213784  1  0.131013  0  0.120095  0.145573  0  0.970964  0
H  H39  1  0.78637471  0.01093662  0.90921545  1  0.126627  0  0.120399  0.145923  0  0.970016  0
H  H40  1  0.23115207  0.57543780  0.39913303  1  0.096268  0  0.102158  0.148194  0  0.976979  0
H  H41  1  0.33050932  0.55136005  0.39700379  1  0.036549  0  0.090346  0.126857  0  1.000879  0
H  H42  1  0.27599725  0.53583032  0.44412242  1  0.090838  0  0.10152  0.146565  0  0.977455  0
H  H43  1  0.82115652  0.47700774  0.65323119  1  0.073745  0  0.100644  0.144647  0  0.982398  0
H  H44  1  0.75738971  0.53669689  0.69088704  1  0.029491  0  0.090139  0.1265  0  1.000636  0
H  H45  1  0.82402253  0.56429723  0.65586500  1  0.074083  0  0.102038  0.147503  0  0.976775  0
H  H46  1  0.06437632  0.32395586  0.65602106  1  0.07418  0  0.101564  0.14679  0  0.976682  0
H  H47  1  0.03642092  0.25741005  0.69092452  1  0.028747  0  0.090278  0.126696  0  1.000356  0
H  H48  1  0.97707342  0.32137085  0.65323332  1  0.073441  0  0.100165  0.14383  0  0.983708  0
H  H49  1  0.79829758  0.72183112  0.38978451  1  0.06778  0  0.102397  0.147993  0  0.975666  0
H  H50  1  0.73192753  0.81982719  0.38634883  1  0.046176  0  0.090693  0.127283  0  1.000081  0
H  H51  1  0.75884826  0.76667878  0.43483729  1  0.068089  0  0.102722  0.148854  0  0.976868  0
H  H52  1  0.77300233  0.42872442  0.09673391  1  0.078781  0  0.102473  0.148487  0  0.977044  0
H  H53  1  0.71340978  0.49255535  0.05911502  1  0.031022  0  0.089942  0.126448  0  1.00098  0
H  H54  1  0.68578055  0.42589054  0.09410647  1  0.073767  0  0.101784  0.147313  0  0.976657  0
H  H55  1  0.07198270  0.14846881  0.23988119  1  0.059277  0  0.10225  0.147564  0  0.977303  0
H  H56  1  0.15761195  0.06972142  0.22409204  1  0.001642  0  0.090508  0.126972  0  1.00061  0
H  H57  1  0.06905251  0.06123854  0.23717685  1  0.074244  0  0.10177  0.147293  0  0.977448  0
H  H58  1  0.49128497  0.48309167  0.81515214  1  0.066661  0  0.102364  0.148239  0  0.977562  0
H  H59  1  0.51795403  0.43028498  0.86374792  1  0.048683  0  0.090479  0.127158  0  1.00077  0
H  H60  1  0.45161333  0.52830611  0.86007966  1  0.067339  0  0.102353  0.147971  0  0.975688  0
H  H61  1  0.97376702  0.71424028  0.80584841  1  0.089702  0  0.101697  0.146655  0  0.977212  0
H  H62  1  0.91959369  0.69853444  0.85307330  1  0.035657  0  0.090165  0.126669  0  1.001186  0
H  H63  1  0.01894205  0.67467476  0.85073935  1  0.094416  0  0.102485  0.148733  0  0.976638  0
C  C64  1  0.06149974  0.31560719  0.56143901  1  1.553981  0  0.214884  0.612365  0  4.218032  0
C  C65  1  0.06931713  0.56937159  0.56946726  1  1.552019  0  0.227459  0.601701  0  4.167823  0
C  C66  1  0.18441061  0.43830458  0.43853949  1  1.52932  0  0.21635  0.615816  0  4.212208  0
C  C67  1  0.93870661  0.68440552  0.43856328  1  1.534889  0  0.215134  0.61504  0  4.213898  0
C  C68  1  0.93043011  0.43066339  0.43056385  1  1.555581  0  0.229163  0.6052  0  4.167017  0
C  C69  1  0.81563847  0.56162761  0.56139067  1  1.518129  0  0.214844  0.612206  0  4.217493  0
C  C70  1  0.56548760  0.31095232  0.31149797  1  1.566676  0  0.217164  0.610814  0  4.218314  0
C  C71  1  0.68062933  0.18055852  0.18055040  1  1.548968  0  0.228841  0.604336  0  4.166179  0
C  C72  1  0.68848036  0.43446912  0.18863366  1  1.51518  0  0.215213  0.613197  0  4.215651  0
C  C73  1  0.93424601  0.18868738  0.18845118  1  1.555318  0  0.2159  0.613376  0  4.21553  0
C  C74  1  0.81952297  0.31927239  0.31940108  1  1.554656  0  0.228164  0.602608  0  4.168815  0
C  C75  1  0.81202119  0.06552642  0.31146905  1  1.546927  0  0.217321  0.60944  0  4.21696  0
C  C76  1  0.43420177  0.68872869  0.68823803  1  1.566858  0  0.216445  0.608101  0  4.220142  0
C  C77  1  0.31956157  0.81934341  0.81938811  1  1.556968  0  0.228972  0.60445  0  4.165815  0
C  C78  1  0.18886193  0.93419911  0.68818439  1  1.561007  0  0.217245  0.60947  0  4.219762  0
C  C79  1  0.06553920  0.81169010  0.81145261  1  1.52987  0  0.216217  0.615626  0  4.210743  0
C  C80  1  0.18063605  0.68061747  0.68053977  1  1.551378  0  0.228374  0.602701  0  4.168159  0
C  C81  1  0.31127851  0.56565558  0.81143333  1  1.529726  0  0.214611  0.613758  0  4.213159  0
C  C82  1  0.43799950  0.18437643  0.93853165  1  1.546364  0  0.217422  0.609259  0  4.217342  0
C  C83  1  0.43058549  0.93061708  0.93059950  1  1.554037  0  0.229225  0.604239  0  4.16576  0
C  C84  1  0.68431757  0.93904499  0.93853781  1  1.570246  0  0.217146  0.610709  0  4.217172  0
C  C85  1  0.56123607  0.81585439  0.06176508  1  1.564008  0  0.217077  0.609666  0  4.220033  0
C  C86  1  0.56936901  0.06947333  0.06940810  1  1.54978  0  0.229272  0.604376  0  4.167526  0
C  C87  1  0.31532375  0.06178979  0.06123422  1  1.528454  0  0.216956  0.609863  0  4.21791  0
C  C88  1  0.90182966  0.40194212  0.40177504  1  -0.04668  0  -0.012276  -0.030096  0  3.965336  0
C  C89  1  0.84827344  0.34813201  0.34805507  1  -0.043918  0  -0.01208  -0.030062  0  3.964083  0
C  C90  1  0.83002593  0.44672195  0.38829030  1  0.032164  0  -0.080149  -0.092503  0  3.968481  0
C  C91  1  0.92004408  0.30331873  0.36157337  1  -0.044958  0  -0.079667  -0.090896  0  3.967883  0
C  C92  1  0.80339760  0.41995357  0.36156543  1  -0.040887  0  -0.078576  -0.089476  0  3.965341  0
C  C93  1  0.94667700  0.33009301  0.38828721  1  0.032285  0  -0.079495  -0.091802  0  3.966596  0
C  C94  1  0.09812352  0.59807561  0.59817065  1  0.031868  0  -0.012434  -0.029209  0  3.963662  0
C  C95  1  0.15182059  0.65186021  0.65185389  1  0.022378  0  -0.011769  -0.027726  0  3.963221  0
C  C96  1  0.14074822  0.64075364  0.58253624  1  -0.06395  0  -0.079535  -0.091839  0  3.969759  0
C  C97  1  0.10921004  0.60918446  0.66750932  1  -0.066979  0  -0.080345  -0.093199  0  3.972667  0
C  C98  1  0.16746839  0.66749935  0.60922936  1  -0.020523  0  -0.078937  -0.089915  0  3.96802  0
C  C99  1  0.08250409  0.58244161  0.64081646  1  -0.034598  0  -0.080116  -0.09118  0  3.972363  0
C  C100  1  0.30366385  0.45540919  0.40128047  1  0.041184  0  -0.003489  0.144673  0  3.96935  0
C  C101  1  0.44606448  0.29599905  0.34884810  1  0.037861  0  -0.089072  -0.13391  0  3.967473  0
C  C102  1  0.25898883  0.41450721  0.41372087  1  -0.145721  0  -0.029299  -0.196484  0  3.93805  0
C  C103  1  0.49067238  0.33626573  0.33642785  1  -0.169341  0  -0.025027  -0.118152  0  3.98603  0
C  C104  1  0.37785273  0.33874550  0.37248765  1  -0.137862  0  -0.023777  -0.004656  0  4.097102  0
C  C105  1  0.37157977  0.41107705  0.37766990  1  -0.146124  0  -0.023437  -0.080911  0  4.045993  0
C  C106  1  0.72717174  0.57545914  0.62955464  1  0.060357  0  -0.004189  0.143918  0  3.971284  0
C  C107  1  0.52392741  0.67380717  0.62106800  1  -0.001844  0  -0.088512  -0.133193  0  3.96634  0
C  C108  1  0.74160856  0.58596630  0.58679479  1  -0.140251  0  -0.028697  -0.194141  0  3.936591  0
C  C109  1  0.50920159  0.66359424  0.66347169  1  -0.084677  0  -0.025267  -0.117185  0  3.984648  0
C  C110  1  0.60305704  0.64194189  0.60835421  1  -0.165214  0  -0.023191  -0.003913  0  4.096821  0
C  C111  1  0.64746033  0.60790965  0.64136525  1  -0.181429  0  -0.023585  -0.08041  0  4.045892  0
C  C112  1  0.07542114  0.22717429  0.62956941  1  0.060262  0  -0.004789  0.142818  0  3.971593  0
C  C113  1  0.17390229  0.02383556  0.62103518  1  0.003191  0  -0.088727  -0.133646  0  3.968085  0
C  C114  1  0.08589718  0.24155285  0.58680231  1  -0.141087  0  -0.028474  -0.194159  0  3.937044  0
C  C115  1  0.16369469  0.00920055  0.66344708  1  -0.086046  0  -0.025442  -0.117844  0  3.985804  0
C  C116  1  0.14198511  0.10298224  0.60833098  1  -0.166429  0  -0.023289  -0.003962  0  4.09787  0
C  C117  1  0.10793368  0.14744104  0.64135972  1  -0.181242  0  -0.023553  -0.081064  0  4.047607  0
C  C118  1  0.84346378  0.79986156  0.39746766  1  0.047099  0  -0.002878  0.145948  0  3.970135  0
C  C119  1  0.90531961  0.94979253  0.35253421  1  0.087139  0  -0.089152  -0.134476  0  3.968293  0
C  C120  1  0.91286786  0.75885016  0.41359410  1  -0.088599  0  -0.029314  -0.197126  0  3.939406  0
C  C121  1  0.83657032  0.99075350  0.33644304  1  -0.205477  0  -0.025549  -0.11875  0  3.986427  0
C  C122  1  0.90853407  0.88019130  0.37479113  1  -0.196111  0  -0.023608  -0.003564  0  4.097411  0
C  C123  1  0.84200549  0.86924162  0.37530364  1  -0.16801  0  -0.023411  -0.080613  0  4.044729  0
C  C124  1  0.65180526  0.15187537  0.15184367  1  0.028447  0  -0.012159  -0.02926  0  3.964806  0
C  C125  1  0.59813548  0.09814261  0.09814292  1  0.035443  0  -0.012062  -0.029574  0  3.964323  0
C  C126  1  0.66750771  0.16752171  0.10921907  1  -0.027308  0  -0.079573  -0.091116  0  3.970461  0
C  C127  1  0.58246492  0.08247721  0.14077753  1  -0.032974  0  -0.078894  -0.089829  0  3.967876  0
C  C128  1  0.64079493  0.14079833  0.08251616  1  -0.065651  0  -0.079729  -0.09212  0  3.970477  0
C  C129  1  0.60917427  0.10920928  0.16747718  1  -0.066327  0  -0.079503  -0.092025  0  3.970034  0
C  C130  1  0.67454611  0.52284436  0.12047247  1  0.060828  0  -0.003704  0.144525  0  3.970595  0
C  C131  1  0.57610786  0.72625152  0.12892363  1  0.000404  0  -0.088143  -0.132953  0  3.966464  0
C  C132  1  0.66398055  0.50852389  0.16323907  1  -0.142229  0  -0.028462  -0.194327  0  3.935542  0
C  C133  1  0.58633205  0.74086202  0.08650628  1  -0.084524  0  -0.025898  -0.119061  0  3.985574  0
C  C134  1  0.60798953  0.64712672  0.14166799  1  -0.164489  0  -0.023622  -0.004068  0  4.097794  0
C  C135  1  0.64206202  0.60259942  0.10867554  1  -0.178458  0  -0.023541  -0.080965  0  4.046407  0
C  C136  1  0.08074937  0.12431195  0.17831484  1  0.028068  0  -0.003159  0.144932  0  3.970149  0
C  C137  1  0.16971617  0.12524972  0.07247916  1  0.025683  0  -0.08878  -0.134152  0  3.969096  0
C  C138  1  0.00938188  0.16342626  0.16414214  1  -0.079476  0  -0.028954  -0.194423  0  3.934599  0
C  C139  1  0.24068836  0.08651728  0.08634512  1  -0.121133  0  -0.024823  -0.11789  0  3.985617  0
C  C140  1  0.11105239  0.13933403  0.10566038  1  -0.226667  0  -0.023527  -0.003175  0  4.096892  0
C  C141  1  0.13833440  0.11102127  0.14437406  1  -0.182044  0  -0.0238  -0.08112  0  4.04531  0
C  C142  1  0.34828176  0.84813255  0.84810333  1  -0.046054  0  -0.011909  -0.02985  0  3.963681  0
C  C143  1  0.40189721  0.90190595  0.90183856  1  -0.04285  0  -0.011702  -0.029036  0  3.962466  0
C  C144  1  0.30343376  0.91994602  0.86163225  1  -0.038296  0  -0.079265  -0.091021  0  3.965173  0
C  C145  1  0.44671160  0.83006138  0.88832921  1  0.052958  0  -0.079261  -0.091572  0  3.966303  0
C  C146  1  0.33009288  0.94670312  0.88835232  1  0.028003  0  -0.078866  -0.09044  0  3.965306  0
C  C147  1  0.42006217  0.80331010  0.86160357  1  -0.067866  0  -0.079899  -0.091405  0  3.967752  0
C  C148  1  0.40652551  0.45013053  0.85252003  1  0.047397  0  -0.002757  0.146598  0  3.970013  0
C  C149  1  0.34467237  0.30020138  0.89749138  1  0.087665  0  -0.088956  -0.134266  0  3.966923  0
C  C150  1  0.33710482  0.49117628  0.83640039  1  -0.090342  0  -0.029375  -0.197098  0  3.938289  0
C  C151  1  0.41341713  0.25921431  0.91358945  1  -0.200497  0  -0.025043  -0.117524  0  3.9844  0
C  C152  1  0.34153109  0.36974533  0.87518926  1  -0.175914  0  -0.023288  -0.002894  0  4.096728  0
C  C153  1  0.40803404  0.38071818  0.87466832  1  -0.168799  0  -0.023667  -0.081334  0  4.045287  0
C  C154  1  0.94620694  0.79463243  0.84869758  1  0.088526  0  -0.0037  0.144228  0  3.969824  0
C  C155  1  0.80375103  0.95402570  0.90114912  1  0.036385  0  -0.088889  -0.13394  0  3.965608  0
C  C156  1  0.99090412  0.83551938  0.83627470  1  -0.144859  0  -0.029423  -0.196398  0  3.936576  0
C  C157  1  0.75913677  0.91375482  0.91359570  1  -0.171538  0  -0.025154  -0.117867  0  3.983996  0
C  C158  1  0.87197535  0.91124808  0.87751698  1  -0.133409  0  -0.023545  -0.003917  0  4.095996  0
C  C159  1  0.87827113  0.83891378  0.87232476  1  -0.193002  0  -0.023128  -0.080184  0  4.045921  0
C  C160  1  0.28463239  0.53373402  0.41078912  1  -0.079209  0  -0.231689  -0.395231  0  3.962437  0
C  C161  1  0.78531885  0.53631698  0.65915047  1  -0.033051  0  -0.232018  -0.394741  0  3.964832  0
C  C162  1  0.03628021  0.28536128  0.65920340  1  -0.03415  0  -0.232015  -0.394087  0  3.96498  0
C  C163  1  0.77947402  0.77606653  0.40225909  1  -0.06213  0  -0.231974  -0.396209  0  3.961887  0
C  C164  1  0.71374059  0.46462565  0.09084931  1  -0.036456  0  -0.23155  -0.395775  0  3.962527  0
C  C165  1  0.09604397  0.09944337  0.22219327  1  0.000803  0  -0.231739  -0.395121  0  3.963772  0
C  C166  1  0.47049928  0.47394207  0.84773035  1  -0.063716  0  -0.232324  -0.396574  0  3.963493  0
C  C167  1  0.96533584  0.71629545  0.83917763  1  -0.076135  0  -0.23209  -0.395798  0  3.962681  0
S  S168  1  0.29923145  0.32446876  0.39694537  1  0.250118  0  0.072718  0.113223  0  2.756559  0
S  S169  1  0.45012822  0.42600512  0.35329146  1  0.247121  0  0.078244  0.118251  0  2.764343  0
S  S170  1  0.65976277  0.63417488  0.56192165  1  0.260012  0  0.07258  0.112044  0  2.757625  0
S  S171  1  0.59112929  0.61541332  0.68806973  1  0.246814  0  0.076553  0.115053  0  2.765328  0
S  S172  1  0.13421045  0.15965297  0.56190943  1  0.261686  0  0.074158  0.114567  0  2.756129  0
S  S173  1  0.11542907  0.09117969  0.68806030  1  0.250738  0  0.078282  0.118083  0  2.763788  0
S  S174  1  0.97431457  0.80417580  0.40189378  1  0.258558  0  0.07033  0.109653  0  2.759432  0
S  S175  1  0.77563516  0.94513614  0.34824014  1  0.261509  0  0.078761  0.119052  0  2.764515  0
S  S176  1  0.61570371  0.59048479  0.18810525  1  0.257224  0  0.072377  0.112218  0  2.755987  0
S  S177  1  0.63462666  0.65879441  0.06194714  1  0.249378  0  0.077733  0.117439  0  2.763646  0
S  S178  1  0.01303234  0.18311912  0.11077841  1  0.292171  0  0.071286  0.109897  0  2.757162  0
S  S179  1  0.23656141  0.06698817  0.13959987  1  0.253961  0  0.078164  0.118081  0  2.76284  0
S  S180  1  0.27571753  0.44576477  0.84809274  1  0.240258  0  0.070317  0.109431  0  2.757707  0
S  S181  1  0.47439522  0.30480305  0.90175242  1  0.25528  0  0.078032  0.117742  0  2.763847  0
S  S182  1  0.95063975  0.92552009  0.85309769  1  0.250343  0  0.072574  0.11285  0  2.756098  0
S  S183  1  0.79974756  0.82397665  0.89674977  1  0.24473  0  0.077683  0.117147  0  2.764544  0
O  O184  1  0.00044398  0.49947852  0.49946980  1  -1.233645  0  -0.57142  -1.025159  0  2.535453  0
O  O185  1  0.07813762  0.31459440  0.52245510  1  -1.182583  0  -0.321725  -0.549205  0  2.331371  0
O  O186  1  0.03065402  0.53116373  0.58577956  1  -1.162175  0  -0.316557  -0.547382  0  2.344001  0
O  O187  1  0.15584093  0.50465676  0.45038215  1  -1.177622  0  -0.312664  -0.537982  0  2.347235  0
O  O188  1  0.02567458  0.37488319  0.58035952  1  -1.176469  0  -0.313016  -0.537382  0  2.352163  0
O  O189  1  0.15423221  0.39043386  0.44624028  1  -1.157444  0  -0.32366  -0.552227  0  2.332833  0
O  O190  1  0.08560720  0.58534937  0.53105402  1  -1.175621  0  -0.313546  -0.545153  0  2.339916  0
O  O191  1  0.00560263  0.65778780  0.44972995  1  -1.170394  0  -0.324299  -0.55266  0  2.333783  0
O  O192  1  0.88676491  0.49656160  0.44154923  1  -1.170879  0  -0.315588  -0.547257  0  2.344205  0
O  O193  1  0.89263569  0.65239249  0.44714704  1  -1.171616  0  -0.311293  -0.53673  0  2.34751  0
O  O194  1  0.99601286  0.38703427  0.44179034  1  -1.170999  0  -0.313856  -0.545846  0  2.339285  0
O  O195  1  0.87494042  0.52568041  0.58019212  1  -1.174026  0  -0.312061  -0.536556  0  2.350452  0
O  O196  1  0.81455375  0.57848859  0.52240314  1  -1.150015  0  -0.32285  -0.550224  0  2.333599  0
O  O197  1  0.74925025  0.25036715  0.25016013  1  -1.230353  0  -0.571031  -1.026834  0  2.529164  0
O  O198  1  0.59631942  0.35816124  0.30349327  1  -1.183115  0  -0.320509  -0.549086  0  2.336057  0
O  O199  1  0.66460790  0.16407766  0.21896604  1  -1.173459  0  -0.314584  -0.546709  0  2.340758  0
O  O200  1  0.72423351  0.37512694  0.16981171  1  -1.174239  0  -0.311644  -0.53636  0  2.347828  0
O  O201  1  0.59285600  0.24441407  0.30012157  1  -1.169518  0  -0.317909  -0.540787  0  2.312639  0
O  O202  1  0.67187109  0.43562772  0.22765006  1  -1.147646  0  -0.322597  -0.550543  0  2.33225  0
O  O203  1  0.71893153  0.21911240  0.16432045  1  -1.161738  0  -0.315188  -0.546867  0  2.341754  0
O  O204  1  0.87623854  0.22445547  0.16842526  1  -1.174861  0  -0.323997  -0.55155  0  2.335254  0
O  O205  1  0.86333086  0.25348247  0.30828011  1  -1.172012  0  -0.315811  -0.546815  0  2.34402  0
O  O206  1  0.93277044  0.17292060  0.22749210  1  -1.193682  0  -0.312214  -0.537221  0  2.347002  0
O  O207  1  0.75372875  0.36260106  0.30837999  1  -1.168582  0  -0.313091  -0.544646  0  2.340117  0
O  O208  1  0.74538661  0.09300423  0.30009267  1  -1.175238  0  -0.320859  -0.549073  0  2.334741  0
O  O209  1  0.85916960  0.09624752  0.30336127  1  -1.15763  0  -0.318336  -0.54008  0  2.313588  0
O  O210  1  0.24969437  0.75070567  0.74984703  1  -1.229749  0  -0.570683  -1.02671  0  2.52846  0
O  O211  1  0.37587967  0.72440764  0.66875673  1  -1.170912  0  -0.316914  -0.539093  0  2.313811  0
O  O212  1  0.36318245  0.75341923  0.80839383  1  -1.170488  0  -0.315982  -0.547558  0  2.34284  0
O  O213  1  0.17263460  0.93433781  0.72718753  1  -1.176135  0  -0.32049  -0.548483  0  2.335216  0
O  O214  1  0.43440056  0.67233538  0.72725008  1  -1.178782  0  -0.321167  -0.548761  0  2.337467  0
O  O215  1  0.22447487  0.87590023  0.66858633  1  -1.166443  0  -0.3182  -0.540517  0  2.315303  0
O  O216  1  0.25392875  0.86288922  0.80819369  1  -1.172834  0  -0.313444  -0.545654  0  2.339065  0
O  O217  1  0.09569144  0.85960709  0.80372147  1  -1.157588  0  -0.323502  -0.552245  0  2.330875  0
O  O218  1  0.16427881  0.66460711  0.71896437  1  -1.17599  0  -0.314372  -0.545838  0  2.340567  0
O  O219  1  0.09427111  0.74531510  0.79963539  1  -1.176809  0  -0.312118  -0.537686  0  2.345734  0
O  O220  1  0.21926962  0.71879469  0.66422677  1  -1.161214  0  -0.314863  -0.546418  0  2.341882  0
O  O221  1  0.35741788  0.59764268  0.80283568  1  -1.163792  0  -0.311477  -0.536944  0  2.345807  0
O  O222  1  0.24437917  0.59242959  0.80026832  1  -1.172798  0  -0.323844  -0.551844  0  2.333053  0
O  O223  1  0.50009311  0.99988588  0.00001654  1  -1.229522  0  -0.570644  -1.02841  0  2.524923  0
O  O224  1  0.50467286  0.15693228  0.94987714  1  -1.174139  0  -0.320751  -0.548955  0  2.335056  0
O  O225  1  0.38690470  0.99642504  0.94168203  1  -1.169764  0  -0.315114  -0.546809  0  2.341576  0
O  O226  1  0.65356137  0.89175344  0.94661012  1  -1.183965  0  -0.320593  -0.549082  0  2.334562  0
O  O227  1  0.39091449  0.15362019  0.94661059  1  -1.157275  0  -0.317526  -0.539072  0  2.312179  0
O  O228  1  0.65683991  0.00561046  0.94986987  1  -1.172973  0  -0.317262  -0.540235  0  2.312819  0
O  O229  1  0.49629321  0.88707194  0.94171710  1  -1.169549  0  -0.314071  -0.545671  0  2.338769  0
O  O230  1  0.57758551  0.81561247  0.02275089  1  -1.178371  0  -0.320872  -0.54915  0  2.336097  0
O  O231  1  0.53091159  0.03108107  0.08563919  1  -1.161322  0  -0.314723  -0.546345  0  2.341304  0
O  O232  1  0.52554875  0.87424590  0.08125952  1  -1.169568  0  -0.317409  -0.539475  0  2.313218  0
O  O233  1  0.58558499  0.08576422  0.03099432  1  -1.174568  0  -0.31472  -0.5467  0  2.340669  0
O  O234  1  0.31520230  0.07803124  0.02232434  1  -1.142892  0  -0.317353  -0.539747  0  2.312815  0
O  O235  1  0.37375882  0.02609066  0.08080986  1  -1.168994  0  -0.320853  -0.549161  0  2.336384  0
