# generated using pymatgen
data_CdH24C24(BrN6)2
_symmetry_space_group_name_H-M   'P 1'
_cell_length_a   7.76013870
_cell_length_b   8.94601954
_cell_length_c   11.37905833
_cell_angle_alpha   105.34653033
_cell_angle_beta   90.81860818
_cell_angle_gamma   112.69450739
_symmetry_Int_Tables_number   1
_chemical_formula_structural   CdH24C24(BrN6)2
_chemical_formula_sum   'Cd1 H24 C24 Br2 N12'
_cell_volume   696.77070609
_cell_formula_units_Z   1
loop_
 _symmetry_equiv_pos_site_id
 _symmetry_equiv_pos_as_xyz
  1  'x, y, z'
loop_
 _atom_site_type_symbol
 _atom_site_label
 _atom_site_symmetry_multiplicity
 _atom_site_fract_x
 _atom_site_fract_y
 _atom_site_fract_z
 _atom_site_occupancy
 _atom_site_hle17_bader_spin_density
 _atom_site_hle17_ddec_charge
 _atom_site_hle17_ddec_spin_density
 _atom_site_hle17_ddec_sum_bond_order
 _atom_site_hle17_magmom
 _atom_site_hse06_10hf_bader_spin_density
 _atom_site_hse06_10hf_ddec_charge
 _atom_site_hse06_10hf_ddec_spin_density
 _atom_site_hse06_10hf_ddec_sum_bond_order
 _atom_site_hse06_10hf_magmom
 _atom_site_hse06_bader_spin_density
 _atom_site_hse06_ddec_charge
 _atom_site_hse06_ddec_spin_density
 _atom_site_hse06_ddec_sum_bond_order
 _atom_site_hse06_magmom
 _atom_site_pbe_bader_spin_density
 _atom_site_pbe_cm5_charge
 _atom_site_pbe_ddec_charge
 _atom_site_pbe_ddec_spin_density
 _atom_site_pbe_ddec_sum_bond_order
 _atom_site_pbe_magmom
Cd  Cd0  1  0.49999913  0.99999843  0.00000030  1  0  0.939754  0  1.954499  0  0  0.757235  0  2.40834  0  0  0.805264  0  2.37027  0  0  0.659113  0.72393  0  2.433854  0
H  H1  1  0.29667361  0.49050143  0.62929282  1  0  0.097207  0  0.987614  0  0  0.104633  0  1.056543  0  0  0.107235  0  1.055913  0  0  0.100214  0.102842  0  1.057004  0
H  H2  1  0.70332647  0.50950004  0.37070713  1  0  0.097232  0  0.98762  0  0  0.104662  0  1.056538  0  0  0.107263  0  1.055908  0  0  0.100222  0.102871  0  1.057  0
H  H3  1  0.87679845  0.10578912  0.33891476  1  0  0.084416  0  0.965074  0  0  0.093636  0  1.033429  0  0  0.09612  0  1.032268  0  0  0.094113  0.091645  0  1.034686  0
H  H4  1  0.12320590  0.89421618  0.66108427  1  0  0.0844  0  0.965005  0  0  0.093617  0  1.033371  0  0  0.096102  0  1.03221  0  0  0.0941  0.091626  0  1.034628  0
H  H5  1  0.69693637  0.97817771  0.49405141  1  0  0.089814  0  0.955503  0  0  0.098296  0  1.01714  0  0  0.101291  0  1.015975  0  0  0.098568  0.096123  0  1.01804  0
H  H6  1  0.30306557  0.02182505  0.50594618  1  0  0.089909  0  0.955398  0  0  0.098372  0  1.017052  0  0  0.101368  0  1.015884  0  0  0.098617  0.096199  0  1.017953  0
H  H7  1  0.82021503  0.10796595  0.71627214  1  0  0.087517  0  0.974698  0  0  0.096423  0  1.041979  0  0  0.098373  0  1.042401  0  0  0.094041  0.09471  0  1.042378  0
H  H8  1  0.17978466  0.89203173  0.28372525  1  0  0.087631  0  0.974663  0  0  0.096523  0  1.041947  0  0  0.098476  0  1.042366  0  0  0.094075  0.094811  0  1.042346  0
H  H9  1  0.21359384  0.52147750  0.84713177  1  0  0.100111  0  0.949233  0  0  0.110201  0  1.019543  0  0  0.112168  0  1.017567  0  0  0.103234  0.108766  0  1.020882  0
H  H10  1  0.78640657  0.47851892  0.15286799  1  0  0.100115  0  0.94919  0  0  0.110158  0  1.01953  0  0  0.112127  0  1.017552  0  0  0.103222  0.108723  0  1.02087  0
H  H11  1  0.04427983  0.34236170  0.88150966  1  0  0.085791  0  0.961665  0  0  0.096576  0  1.034794  0  0  0.098135  0  1.033088  0  0  0.099064  0.095126  0  1.036498  0
H  H12  1  0.95571874  0.65763345  0.11848806  1  0  0.085779  0  0.961718  0  0  0.096549  0  1.034826  0  0  0.098106  0  1.03312  0  0  0.099057  0.095097  0  1.03653  0
H  H13  1  0.11502321  0.38347118  0.30790391  1  0  0.094902  0  0.933558  0  0  0.107938  0  0.998671  0  0  0.109078  0  0.998062  0  0  0.1101  0.106966  0  0.999279  0
H  H14  1  0.88497855  0.61653410  0.69209597  1  0  0.094911  0  0.933519  0  0  0.10798  0  0.998616  0  0  0.109118  0  0.998007  0  0  0.11013  0.107007  0  0.999222  0
H  H15  1  0.31008251  0.51449227  0.42641850  1  0  0.10035  0  0.926313  0  0  0.108151  0  0.997247  0  0  0.110427  0  0.994762  0  0  0.11583  0.106575  0  0.998852  0
H  H16  1  0.68992184  0.48551302  0.57358141  1  0  0.100349  0  0.92632  0  0  0.108127  0  0.997315  0  0  0.110402  0  0.994831  0  0  0.115798  0.106553  0  0.998918  0
H  H17  1  0.71726503  0.35860995  0.87486827  1  0  0.092652  0  0.931999  0  0  0.102257  0  0.994632  0  0  0.104482  0  0.992077  0  0  0.128898  0.10055  0  0.996574  0
H  H18  1  0.28273465  0.64138771  0.12513527  1  0  0.092635  0  0.931991  0  0  0.102256  0  0.994599  0  0  0.104462  0  0.992066  0  0  0.128901  0.100548  0  0.996543  0
H  H19  1  0.14475857  0.10890620  0.90698443  1  0  0.098651  0  0.970557  0  0  0.101344  0  1.048783  0  0  0.104623  0  1.044472  0  0  0.120743  0.098857  0  1.052009  0
H  H20  1  0.85524168  0.89109274  0.09301586  1  0  0.098682  0  0.970525  0  0  0.101362  0  1.048756  0  0  0.104642  0  1.044444  0  0  0.120755  0.098874  0  1.051983  0
H  H21  1  0.61783803  0.13464849  0.32383290  1  0  0.084603  0  0.961359  0  0  0.093544  0  1.02653  0  0  0.095212  0  1.02497  0  0  0.128013  0.092311  0  1.027642  0
H  H22  1  0.38215576  0.86535041  0.67616820  1  0  0.084648  0  0.961283  0  0  0.093577  0  1.026473  0  0  0.095246  0  1.024912  0  0  0.128033  0.092342  0  1.027586  0
H  H23  1  0.20303842  0.20899239  0.13296121  1  0  0.098739  0  0.987918  0  0  0.103102  0  1.064872  0  0  0.106181  0  1.060474  0  0  0.118864  0.100818  0  1.067951  0
H  H24  1  0.79695795  0.79100654  0.86703816  1  0  0.098761  0  0.98788  0  0  0.103124  0  1.064828  0  0  0.106206  0  1.060428  0  0  0.118873  0.100841  0  1.067906  0
C  C25  1  0.06713729  0.30745626  0.68728249  1  0  0.07381  0  3.765234  0  0  0.097085  0  4.002752  0  0  0.095394  0  4.028378  0  0  -0.015499  0.098243  0  3.985117  0
C  C26  1  0.93286481  0.69254396  0.31271721  1  0  0.073881  0  3.765254  0  0  0.097148  0  4.002726  0  0  0.095458  0  4.028349  0  0  -0.015425  0.098304  0  3.985095  0
C  C27  1  0.16436190  0.37911428  0.59990668  1  0  -0.147176  0  3.701357  0  0  -0.177123  0  3.944458  0  0  -0.179793  0  3.965313  0  0  -0.090402  -0.175294  0  3.930232  0
C  C28  1  0.83563650  0.62088339  0.40009157  1  0  -0.147323  0  3.701391  0  0  -0.177318  0  3.944437  0  0  -0.179989  0  3.965291  0  0  -0.090489  -0.175488  0  3.930214  0
C  C29  1  0.09583689  0.30849825  0.47508398  1  0  0.080925  0  3.763631  0  0  0.10242  0  4.003322  0  0  0.101468  0  4.028176  0  0  -0.011076  0.103164  0  3.986089  0
C  C30  1  0.90416488  0.69150703  0.52491502  1  0  0.080916  0  3.76387  0  0  0.102581  0  4.003348  0  0  0.101632  0  4.028198  0  0  -0.011042  0.103326  0  3.986113  0
C  C31  1  0.92712420  0.16340133  0.43708042  1  0  -0.119904  0  3.746759  0  0  -0.141184  0  3.993353  0  0  -0.144069  0  4.015853  0  0  -0.092955  -0.138825  0  3.977765  0
C  C32  1  0.07287628  0.83660394  0.56291681  1  0  -0.119888  0  3.74688  0  0  -0.141202  0  3.993414  0  0  -0.14409  0  4.015912  0  0  -0.092944  -0.138842  0  3.977823  0
C  C33  1  0.82710299  0.09232207  0.52345351  1  0  -0.058816  0  3.785121  0  0  -0.069289  0  4.032375  0  0  -0.071296  0  4.054781  0  0  -0.093335  -0.067842  0  4.016821  0
C  C34  1  0.17289766  0.90768069  0.47654319  1  0  -0.05893  0  3.785131  0  0  -0.06939  0  4.0324  0  0  -0.071396  0  4.054806  0  0  -0.093392  -0.067945  0  4.016849  0
C  C35  1  0.89697598  0.16426057  0.64846521  1  0  -0.120814  0  3.742825  0  0  -0.142056  0  3.987111  0  0  -0.145207  0  4.010809  0  0  -0.094599  -0.139489  0  3.970864  0
C  C36  1  0.10302315  0.83573585  0.35153102  1  0  -0.120905  0  3.742946  0  0  -0.142154  0  3.987235  0  0  -0.145308  0  4.01093  0  0  -0.094648  -0.139586  0  3.97099  0
C  C37  1  0.15086678  0.38251181  0.82080369  1  0  -0.072329  0  3.656245  0  0  -0.150049  0  3.897118  0  0  -0.146339  0  3.90671  0  0  -0.054155  -0.152072  0  3.890295  0
C  C38  1  0.84913751  0.61748462  0.17919787  1  0  -0.072212  0  3.656114  0  0  -0.149867  0  3.896937  0  0  -0.146154  0  3.906528  0  0  -0.054102  -0.151887  0  3.890112  0
C  C39  1  0.20741171  0.38420531  0.38237781  1  0  -0.061378  0  3.637203  0  0  -0.137826  0  3.878959  0  0  -0.133782  0  3.888109  0  0  -0.043473  -0.139962  0  3.872266  0
C  C40  1  0.79259208  0.61579872  0.61762007  1  0  -0.061306  0  3.637068  0  0  -0.137855  0  3.878922  0  0  -0.133818  0  3.888086  0  0  -0.043451  -0.13999  0  3.872227  0
C  C41  1  0.56652897  0.32421608  0.87086824  1  0  0.193062  0  3.72069  0  0  0.141737  0  4.011008  0  0  0.153209  0  4.023593  0  0  0.136287  0.134378  0  4.002068  0
C  C42  1  0.43347200  0.67578160  0.12913267  1  0  0.193178  0  3.720664  0  0  0.141851  0  4.010972  0  0  0.15334  0  4.023558  0  0  0.136351  0.134491  0  4.002032  0
C  C43  1  0.27781111  0.19459401  0.88833194  1  0  0.155145  0  3.66742  0  0  0.081761  0  3.927327  0  0  0.094979  0  3.940023  0  0  0.14969  0.073471  0  3.918497  0
C  C44  1  0.72218857  0.80540365  0.11167159  1  0  0.155101  0  3.667574  0  0  0.081728  0  3.927484  0  0  0.094949  0  3.940181  0  0  0.149687  0.073438  0  3.918655  0
C  C45  1  0.50789562  0.17360277  0.30289629  1  0  0.191898  0  3.731464  0  0  0.14039  0  4.02059  0  0  0.152282  0  4.032305  0  0  0.142098  0.132797  0  4.01221  0
C  C46  1  0.49210260  0.82639742  0.69710424  1  0  0.191859  0  3.73134  0  0  0.140366  0  4.02046  0  0  0.152256  0  4.032176  0  0  0.142056  0.132774  0  4.012078  0
C  C47  1  0.30134471  0.21022922  0.20256582  1  0  0.173052  0  3.657137  0  0  0.091581  0  3.931171  0  0  0.106409  0  3.942096  0  0  0.156997  0.082256  0  3.923589  0
C  C48  1  0.69865352  0.78977098  0.79743384  1  0  0.173013  0  3.657077  0  0  0.091558  0  3.931116  0  0  0.106385  0  3.942042  0  0  0.157014  0.082237  0  3.923531  0
Br  Br49  1  0.11683993  0.78852956  0.93504596  1  0  -0.616341  0  0.812826  0  0  -0.562626  0  1.080628  0  0  -0.578775  0  1.059485  0  0  -0.322442  -0.550707  0  1.095776  0
Br  Br50  1  0.88315846  0.21146811  0.06495493  1  0  -0.616346  0  0.812809  0  0  -0.562625  0  1.080625  0  0  -0.578779  0  1.059484  0  0  -0.322442  -0.550708  0  1.095773  0
N  N51  1  0.29872205  0.32876123  0.84905013  1  0  0.056309  0  3.553636  0  0  0.178474  0  3.737614  0  0  0.168273  0  3.761039  0  0  -0.129293  0.184283  0  3.723048  0
N  N52  1  0.70127893  0.67123645  0.15094991  1  0  0.056185  0  3.553781  0  0  0.17836  0  3.737684  0  0  0.168143  0  3.761134  0  0  -0.129323  0.184169  0  3.723118  0
N  N53  1  0.48259842  0.41326620  0.83645515  1  0  -0.267749  0  2.828939  0  0  -0.269736  0  3.095151  0  0  -0.277348  0  3.109104  0  0  -0.223494  -0.264371  0  3.08558  0
N  N54  1  0.51740183  0.58673274  0.16354514  1  0  -0.267762  0  2.828943  0  0  -0.269767  0  3.095179  0  0  -0.277377  0  3.109123  0  0  -0.223517  -0.264402  0  3.085608  0
N  N55  1  0.44573907  0.18792371  0.90336703  1  0  -0.406234  0  3.197952  0  0  -0.334161  0  3.482908  0  0  -0.356182  0  3.498968  0  0  -0.349994  -0.319324  0  3.471408  0
N  N56  1  0.55426174  0.81207649  0.09663616  1  0  -0.406263  0  3.197931  0  0  -0.334194  0  3.482888  0  0  -0.356215  0  3.49894  0  0  -0.350046  -0.319357  0  3.471388  0
N  N57  1  0.31163553  0.28516211  0.32293832  1  0  0.049908  0  3.546411  0  0  0.169482  0  3.734957  0  0  0.158149  0  3.759644  0  0  -0.129469  0.175373  0  3.720953  0
N  N58  1  0.68836584  0.71483938  0.67706163  1  0  0.049975  0  3.546277  0  0  0.169518  0  3.73489  0  0  0.158187  0  3.759573  0  0  -0.129439  0.175396  0  3.72091  0
N  N59  1  0.44313610  0.26320171  0.38913462  1  0  -0.27271  0  2.852168  0  0  -0.269023  0  3.119381  0  0  -0.276031  0  3.130711  0  0  -0.220815  -0.264076  0  3.111732  0
N  N60  1  0.55686584  0.73680103  0.61086736  1  0  -0.272794  0  2.85216  0  0  -0.269088  0  3.119385  0  0  -0.276096  0  3.130714  0  0  -0.22085  -0.264138  0  3.111734  0
N  N61  1  0.42477775  0.13800701  0.18668638  1  0  -0.415294  0  3.229762  0  0  -0.344569  0  3.523689  0  0  -0.367282  0  3.53913  0  0  -0.355305  -0.329248  0  3.512699  0
N  N62  1  0.57521935  0.86199065  0.81331361  1  0  -0.4153  0  3.229694  0  0  -0.34458  0  3.523618  0  0  -0.367292  0  3.539061  0  0  -0.355337  -0.329259  0  3.512627  0
