# generated using pymatgen
data_AlH8C12NO7
_symmetry_space_group_name_H-M   'P 1'
_cell_length_a   6.84346789
_cell_length_b   11.21959184
_cell_length_c   15.33360470
_cell_angle_alpha   82.15383856
_cell_angle_beta   75.37564329
_cell_angle_gamma   71.06932903
_symmetry_Int_Tables_number   1
_chemical_formula_structural   AlH8C12NO7
_chemical_formula_sum   'Al2 H16 C24 N2 O14'
_cell_volume   1075.64933087
_cell_formula_units_Z   2
loop_
 _symmetry_equiv_pos_site_id
 _symmetry_equiv_pos_as_xyz
  1  'x, y, z'
loop_
 _atom_site_type_symbol
 _atom_site_label
 _atom_site_symmetry_multiplicity
 _atom_site_fract_x
 _atom_site_fract_y
 _atom_site_fract_z
 _atom_site_occupancy
 _atom_site_pbe_bader_charge
 _atom_site_pbe_bader_spin_density
 _atom_site_pbe_cm5_charge
 _atom_site_pbe_ddec_charge
 _atom_site_pbe_ddec_spin_density
 _atom_site_pbe_ddec_sum_bond_order
 _atom_site_pbe_magmom
Al  Al0  1  0.50586864  0.48826196  0.50066709  1  2.506565  0  0.405866  1.64082  0  2.543407  0
Al  Al1  1  0.00592863  0.48885598  0.50046393  1  2.508115  0  0.400406  1.649267  0  2.553823  0
H  H2  1  0.23529097  0.62058775  0.42026425  1  0.630531  0  0.336555  0.41577  0  0.890316  0
H  H3  1  0.78253544  0.35269740  0.57665655  1  0.607573  0  0.334563  0.41275  0  0.892778  0
H  H4  1  0.77765179  0.10037786  0.46987775  1  0.219885  0  0.120174  0.127  0  1.086049  0
H  H5  1  0.23427608  0.87692905  0.52993300  1  0.189369  0  0.119915  0.125521  0  1.086705  0
H  H6  1  0.70269207  0.56683549  0.94772982  1  0.036092  0  0.09794  0.099102  0  1.020316  0
H  H7  1  0.23506324  0.55749553  0.04842609  1  0.05407  0  0.097327  0.098537  0  1.018535  0
H  H8  1  0.66149622  0.40172660  0.24304148  1  0.082047  0  0.109399  0.112139  0  0.99633  0
H  H9  1  0.73189451  0.39431584  0.07600138  1  0.067435  0  0.101677  0.104136  0  1.001108  0
H  H10  1  0.43050067  0.40775527  0.76426026  1  0.094738  0  0.108084  0.111112  0  1.00212  0
H  H11  1  0.37022499  0.39333748  0.93180279  1  0.047977  0  0.101366  0.103415  0  1.001121  0
H  H12  1  0.56172847  0.64097366  0.82632746  1  0.020973  0  0.087006  0.119685  0  1.006197  0
H  H13  1  0.72817664  0.68422692  0.72564790  1  0.047587  0  0.095223  0.139153  0  0.989618  0
H  H14  1  0.66953893  0.54163130  0.73345723  1  0.075997  0  0.099536  0.148194  0  1.000617  0
H  H15  1  0.30618985  0.62440850  0.16709488  1  0.028323  0  0.088695  0.123255  0  1.003309  0
H  H16  1  0.10061811  0.66142978  0.26587494  1  0.077092  0  0.094548  0.135661  0  0.990668  0
H  H17  1  0.30284006  0.51680680  0.26403652  1  0.064378  0  0.099099  0.145241  0  1.009346  0
C  C18  1  0.85513124  0.48425818  0.33973118  1  1.525304  0  0.269371  0.65761  0  4.070799  0
C  C19  1  0.62716126  0.71350916  0.50543629  1  1.644895  0  0.277177  0.64939  0  4.08359  0
C  C20  1  0.15588621  0.49299596  0.66122720  1  1.523003  0  0.270335  0.65691  0  4.067123  0
C  C21  1  0.38473341  0.26369967  0.49484774  1  1.631457  0  0.277681  0.649191  0  4.08624  0
C  C22  1  0.56458163  0.85470453  0.50545431  1  0.037855  0  0.007876  -0.054577  0  3.917094  0
C  C23  1  0.44721568  0.12255427  0.49450058  1  0.060901  0  0.009074  -0.047454  0  3.910707  0
C  C24  1  0.71386761  0.92013472  0.48985412  1  0.169658  0  0.094231  0.065925  0  3.936759  0
C  C25  1  0.29797367  0.05713583  0.51002084  1  0.116635  0  0.094128  0.064032  0  3.936889  0
C  C26  1  0.65948814  0.05075854  0.48345090  1  0.028086  0  -0.067603  -0.128038  0  3.921022  0
C  C27  1  0.35235349  0.92653298  0.51641516  1  0.094708  0  -0.066696  -0.122431  0  3.921557  0
C  C28  1  0.10250791  0.49345729  0.76150952  1  0.032085  0  -0.02023  -0.122751  0  3.921649  0
C  C29  1  0.90968318  0.48135239  0.23956423  1  0.021263  0  -0.018739  -0.115558  0  3.925295  0
C  C30  1  0.89236409  0.53989007  0.81293677  1  -0.04668  0  0.007273  0.181982  0  3.921268  0
C  C31  1  0.86269255  0.52942503  0.90710066  1  -0.054871  0  -0.095272  -0.208033  0  3.9391  0
C  C32  1  0.07550664  0.52563804  0.18516854  1  0.017892  0  0.005308  0.177062  0  3.9335  0
C  C33  1  0.11201228  0.52028660  0.09159886  1  -0.091556  0  -0.093742  -0.20482  0  3.937337  0
C  C34  1  0.78771910  0.43532486  0.19934200  1  -0.023336  0  -0.079738  -0.075485  0  4.00398  0
C  C35  1  0.82627942  0.43190238  0.10617233  1  0.001918  0  -0.095135  -0.150269  0  4.002331  0
C  C36  1  0.27108251  0.44238850  0.80557507  1  -0.017002  0  -0.080688  -0.074067  0  4.009794  0
C  C37  1  0.23736917  0.43492205  0.89898054  1  0.009909  0  -0.094942  -0.149354  0  4.007295  0
C  C38  1  0.03053906  0.47826574  0.95135866  1  -0.051976  0  -0.001606  0.087768  0  4.019325  0
C  C39  1  0.99003266  0.47513965  0.05076499  1  -0.034779  0  -0.003086  0.086175  0  4.01703  0
C  C40  1  0.70232460  0.60475713  0.77271851  1  -0.036828  0  -0.239138  -0.412742  0  3.952441  0
C  C41  1  0.20384067  0.58477111  0.22227274  1  -0.083085  0  -0.238954  -0.413031  0  3.954775  0
N  N42  1  0.93801974  0.85088099  0.48713061  1  0.389632  0  0.06083  0.517357  0  4.220694  0
N  N43  1  0.07395347  0.12658251  0.51262563  1  0.409552  0  0.061218  0.517223  0  4.220731  0
O  O44  1  0.66034286  0.50087354  0.37894248  1  -1.267586  0  -0.240673  -0.607731  0  2.341242  0
O  O45  1  0.82528595  0.65802681  0.49193281  1  -1.247967  0  -0.224198  -0.591708  0  2.422197  0
O  O46  1  0.00581599  0.50734587  0.62172404  1  -1.257161  0  -0.233006  -0.591753  0  2.379763  0
O  O47  1  0.53088030  0.31378138  0.48459232  1  -1.227537  0  -0.219912  -0.557423  0  2.338455  0
O  O48  1  0.35117472  0.47387395  0.62160672  1  -1.27264  0  -0.241346  -0.610387  0  2.353468  0
O  O49  1  0.18673812  0.31947422  0.50847273  1  -1.253577  0  -0.223616  -0.588569  0  2.41681  0
O  O50  1  0.00527650  0.47118123  0.37888399  1  -1.262333  0  -0.233702  -0.593552  0  2.371289  0
O  O51  1  0.48160988  0.66295479  0.51583284  1  -1.23788  0  -0.217891  -0.553286  0  2.328305  0
O  O52  1  0.25019568  0.54435070  0.45984355  1  -1.436139  0  -0.452694  -0.991023  0  2.161628  0
O  O53  1  0.76181919  0.43287421  0.54138565  1  -1.414577  0  -0.452465  -0.986796  0  2.155151  0
O  O54  1  0.98326312  0.81878268  0.56179707  1  -0.438965  0  -0.089275  -0.276021  0  1.951792  0
O  O55  1  0.06469095  0.83644279  0.41297559  1  -0.443107  0  -0.107614  -0.310366  0  1.904844  0
O  O56  1  0.94716414  0.14162274  0.58675909  1  -0.445208  0  -0.111125  -0.310842  0  1.892843  0
O  O57  1  0.02897196  0.15850638  0.43792610  1  -0.428707  0  -0.088799  -0.273315  0  1.947711  0
