# generated using pymatgen
data_Zn4H16C38O13
_symmetry_space_group_name_H-M   'P 1'
_cell_length_a   24.26834388
_cell_length_b   24.26828339
_cell_length_c   24.26834778
_cell_angle_alpha   109.06673005
_cell_angle_beta   109.06688093
_cell_angle_gamma   110.28315672
_symmetry_Int_Tables_number   1
_chemical_formula_structural   Zn4H16C38O13
_chemical_formula_sum   'Zn8 H32 C76 O26'
_cell_volume   11000.99004417
_cell_formula_units_Z   2
loop_
 _symmetry_equiv_pos_site_id
 _symmetry_equiv_pos_as_xyz
  1  'x, y, z'
loop_
 _atom_site_type_symbol
 _atom_site_label
 _atom_site_symmetry_multiplicity
 _atom_site_fract_x
 _atom_site_fract_y
 _atom_site_fract_z
 _atom_site_occupancy
 _atom_site_pbe_bader_charge
 _atom_site_pbe_bader_spin_density
 _atom_site_pbe_cm5_charge
 _atom_site_pbe_ddec_charge
 _atom_site_pbe_ddec_spin_density
 _atom_site_pbe_ddec_sum_bond_order
 _atom_site_pbe_magmom
Zn  Zn0  1  0.70981768  0.26729992  0.55748241  1  1.315013  0  0.673548  0.966007  0  2.373205  0
Zn  Zn1  1  0.29018235  0.73270086  0.44251798  1  1.315016  0  0.673562  0.96608  0  2.373203  0
Zn  Zn2  1  0.26729987  0.70981829  0.55748273  1  1.315026  0  0.673577  0.96611  0  2.373203  0
Zn  Zn3  1  0.73270016  0.29018249  0.44251767  1  1.315014  0  0.673568  0.966064  0  2.373196  0
Zn  Zn4  1  0.70981800  0.15233620  0.44251767  1  1.314291  0  0.67358  0.966069  0  2.373204  0
Zn  Zn5  1  0.29018272  0.84766489  0.55748291  1  1.314304  0  0.67355  0.966078  0  2.373189  0
Zn  Zn6  1  0.15233568  0.70981823  0.44251761  1  1.314307  0  0.673544  0.966065  0  2.373187  0
Zn  Zn7  1  0.84766435  0.29018296  0.55748279  1  1.314297  0  0.673589  0.966088  0  2.373198  0
H  H8  1  0.21049138  0.63349601  0.23561185  1  0.123502  0  0.110356  0.116709  0  0.98864  0
H  H9  1  0.39787875  0.63349333  0.42300163  1  0.11494  0  0.11037  0.116692  0  0.988601  0
H  H10  1  0.02512213  0.60211772  0.23561238  1  0.081672  0  0.110364  0.116702  0  0.988649  0
H  H11  1  0.97487903  0.39788449  0.76438863  1  0.081974  0  0.110341  0.116662  0  0.988692  0
H  H12  1  0.78950957  0.02512303  0.42300421  1  0.079685  0  0.110372  0.116702  0  0.988672  0
H  H13  1  0.21049066  0.97487888  0.57699942  1  0.079903  0  0.110385  0.116717  0  0.988645  0
H  H14  1  0.36650286  0.78950925  0.76438867  1  0.123459  0  0.110359  0.116721  0  0.988683  0
H  H15  1  0.63349665  0.21049111  0.23561222  1  0.1235  0  0.110371  0.116731  0  0.988644  0
H  H16  1  0.78950924  0.36650574  0.76438710  1  0.123481  0  0.110389  0.116736  0  0.988589  0
H  H17  1  0.63349246  0.39788089  0.42300181  1  0.114946  0  0.110371  0.116688  0  0.988697  0
H  H18  1  0.36650808  0.60212114  0.57699808  1  0.114792  0  0.11037  0.116692  0  0.988668  0
H  H19  1  0.39788494  0.97487918  0.76438850  1  0.081968  0  0.110349  0.116673  0  0.988709  0
H  H20  1  0.60211509  0.02512078  0.23561189  1  0.081955  0  0.110396  0.116786  0  0.988601  0
H  H21  1  0.97487778  0.21049204  0.57699917  1  0.079913  0  0.110371  0.116692  0  0.988626  0
H  H22  1  0.02512348  0.78950991  0.42300346  1  0.079676  0  0.110381  0.116728  0  0.988643  0
H  H23  1  0.60212110  0.36650799  0.57699808  1  0.114806  0  0.110383  0.116742  0  0.988633  0
H  H24  1  0.14817963  0.57079958  0.11014611  1  0.057403  0  0.108071  0.11139  0  0.986438  0
H  H25  1  0.85181960  0.42919993  0.88985248  1  0.057403  0  0.108065  0.111409  0  0.986523  0
H  H26  1  0.57079503  0.46064834  0.42261594  1  0.061695  0  0.108024  0.111326  0  0.986535  0
H  H27  1  0.42920526  0.53935245  0.57738421  1  0.061723  0  0.108004  0.111258  0  0.986551  0
H  H28  1  0.46065422  0.03803353  0.88985391  1  0.058448  0  0.108055  0.111366  0  0.986511  0
H  H29  1  0.53934650  0.96196673  0.11014667  1  0.05845  0  0.108045  0.111365  0  0.986546  0
H  H30  1  0.03803148  0.14818066  0.57738434  1  0.06276  0  0.108013  0.111279  0  0.98665  0
H  H31  1  0.96196839  0.85182026  0.42261793  1  0.062793  0  0.108079  0.111413  0  0.98652  0
H  H32  1  0.53935093  0.42920306  0.57738250  1  0.061885  0  0.108072  0.111406  0  0.98649  0
H  H33  1  0.46064692  0.57079584  0.42261571  1  0.061639  0  0.108025  0.111316  0  0.986563  0
H  H34  1  0.96196771  0.53934797  0.11014768  1  0.05849  0  0.108058  0.111383  0  0.986574  0
H  H35  1  0.03803250  0.46065104  0.88985340  1  0.058497  0  0.108067  0.111401  0  0.986504  0
H  H36  1  0.85182106  0.96196861  0.42261695  1  0.062751  0  0.108024  0.111283  0  0.98659  0
H  H37  1  0.14817915  0.03803287  0.57738412  1  0.062734  0  0.108043  0.111389  0  0.986537  0
H  H38  1  0.42919963  0.85182026  0.88985371  1  0.057393  0  0.108068  0.111404  0  0.986452  0
H  H39  1  0.57080040  0.14817970  0.11014668  1  0.057401  0  0.10806  0.111382  0  0.986486  0
C  C40  1  0.05084562  0.55084557  0.10169070  1  0.04223  0  0.006524  0.148562  0  4.110508  0
C  C41  1  0.44915425  0.55084590  0.49999955  1  0.026146  0  0.006622  0.148571  0  4.110734  0
C  C42  1  0.98362299  0.43993801  0.86220065  1  -0.012353  0  -0.080694  -0.127395  0  3.946074  0
C  C43  1  0.87857709  0.01637777  0.45631442  1  -0.0236  0  -0.080697  -0.127261  0  3.946124  0
C  C44  1  0.12142296  0.98362386  0.54368852  1  -0.023684  0  -0.08072  -0.127372  0  3.946109  0
C  C45  1  0.42226189  0.87857748  0.86220111  1  -0.025685  0  -0.080682  -0.127323  0  3.94599  0
C  C46  1  0.57773883  0.12142319  0.13779947  1  -0.025692  0  -0.08069  -0.127326  0  3.946036  0
C  C47  1  0.15609894  0.61256480  0.20747880  1  -0.039767  0  -0.07815  -0.083551  0  3.982203  0
C  C48  1  0.84390143  0.38743654  0.79252041  1  -0.039789  0  -0.078085  -0.083413  0  3.982258  0
C  C49  1  0.61256245  0.40508335  0.45646426  1  -0.031229  0  -0.07813  -0.083506  0  3.982287  0
C  C50  1  0.38743758  0.59491825  0.54353613  1  -0.031104  0  -0.078071  -0.083383  0  3.98231  0
C  C51  1  0.40508614  0.94861981  0.79252119  1  -0.010289  0  -0.078112  -0.083447  0  3.982323  0
C  C52  1  0.59491433  0.05138044  0.20747963  1  -0.010234  0  -0.078181  -0.083619  0  3.982195  0
C  C53  1  0.94861794  0.15609959  0.54353673  1  0.006695  0  -0.078064  -0.083338  0  3.982128  0
C  C54  1  0.05138212  0.84390245  0.45646621  1  0.006992  0  -0.078114  -0.083472  0  3.982231  0
C  C55  1  0.59491741  0.38743742  0.54353505  1  -0.031079  0  -0.078119  -0.083526  0  3.98221  0
C  C56  1  0.40508131  0.61256290  0.45646403  1  -0.031215  0  -0.078076  -0.083376  0  3.98224  0
C  C57  1  0.05138191  0.59491587  0.20748019  1  -0.010008  0  -0.078115  -0.083457  0  3.982352  0
C  C58  1  0.94861925  0.40508510  0.79252082  1  -0.010126  0  -0.078148  -0.083489  0  3.982284  0
C  C59  1  0.84390206  0.05138231  0.45646567  1  0.006989  0  -0.078091  -0.083449  0  3.982306  0
C  C60  1  0.15609843  0.94861920  0.54353771  1  0.006713  0  -0.078121  -0.083491  0  3.982164  0
C  C61  1  0.38743528  0.84390117  0.79252116  1  -0.039841  0  -0.078164  -0.083571  0  3.982295  0
C  C62  1  0.94915466  0.44915440  0.89830944  1  0.042154  0  0.006564  0.148623  0  4.110548  0
C  C63  1  0.61256501  0.15609880  0.20747898  1  -0.039778  0  -0.078172  -0.083595  0  3.982303  0
C  C64  1  0.94915555  0.05084727  0.50000167  1  -0.008306  0  0.006574  0.148558  0  4.110742  0
C  C65  1  0.12149016  0.62149033  0.24298038  1  0.040127  0  -0.01848  -0.043127  0  3.976324  0
C  C66  1  0.87851012  0.37851087  0.75701976  1  0.040156  0  -0.0185  -0.043146  0  3.976339  0
C  C67  1  0.62149051  0.37850984  0.49999932  1  0.068558  0  -0.018494  -0.043134  0  3.976341  0
C  C68  1  0.05084520  0.94915507  0.50000146  1  -0.008236  0  0.006534  0.148456  0  4.110802  0
C  C69  1  0.37850985  0.62149108  0.49999988  1  0.068481  0  -0.018476  -0.043208  0  3.976444  0
C  C70  1  0.37851024  0.87851053  0.75702058  1  0.040286  0  -0.01849  -0.043162  0  3.976376  0
C  C71  1  0.62148997  0.12149012  0.24298050  1  0.040131  0  -0.018465  -0.043106  0  3.976338  0
C  C72  1  0.87851020  0.12149173  0.50000206  1  0.061699  0  -0.01848  -0.043196  0  3.976329  0
C  C73  1  0.12149091  0.87851036  0.50000244  1  0.061767  0  -0.0185  -0.0432  0  3.976271  0
C  C74  1  0.44915529  0.94915490  0.89830975  1  0.042224  0  0.006515  0.148459  0  4.11075  0
C  C75  1  0.55084543  0.05084536  0.10169083  1  0.042224  0  0.006577  0.14863  0  4.110695  0
C  C76  1  0.01533711  0.51533718  0.03067536  1  -0.343259  0  -0.040561  -0.104854  0  4.116525  0
C  C77  1  0.98466153  0.48466135  0.96932466  1  -0.026498  0  -0.040428  -0.104644  0  4.116509  0
C  C78  1  0.51533718  0.48466243  0.50000013  1  -0.257915  0  -0.04055  -0.104843  0  4.116608  0
C  C79  1  0.48466234  0.51533876  0.50000076  1  -0.050945  0  -0.040533  -0.104703  0  4.116608  0
C  C80  1  0.48466285  0.98466257  0.96932516  1  -0.343225  0  -0.040502  -0.104721  0  4.116617  0
C  C81  1  0.51533805  0.01533798  0.03067611  1  -0.0266  0  -0.04048  -0.10476  0  4.116631  0
C  C82  1  0.98466222  0.01533827  0.49999994  1  -0.050405  0  -0.040596  -0.104903  0  4.116712  0
C  C83  1  0.01533668  0.98466233  0.49999983  1  -0.259463  0  -0.040377  -0.104501  0  4.116566  0
C  C84  1  0.55084473  0.44915442  0.49999928  1  0.02614  0  0.00657  0.14853  0  4.110718  0
C  C85  1  0.56839943  0.06839920  0.49999982  1  0.194993  0  -0.007635  -0.141552  0  3.852619  0
C  C86  1  0.43160725  0.93160785  0.50000013  1  0.195431  0  -0.007102  -0.140755  0  3.85198  0
C  C87  1  0.06839331  0.56839328  0.49999895  1  0.195327  0  -0.007183  -0.14086  0  3.85216  0
C  C88  1  0.93160162  0.43160168  0.50000038  1  0.195023  0  -0.007635  -0.141508  0  3.852602  0
C  C89  1  0.52431816  0.02431822  0.49999943  1  -0.217609  0  -0.005256  0.033354  0  4.233596  0
C  C90  1  0.47568670  0.97568670  0.49999971  1  -0.328803  0  -0.005531  0.032585  0  4.233906  0
C  C91  1  0.02431290  0.52431206  0.49999943  1  -0.328721  0  -0.005498  0.032674  0  4.233978  0
C  C92  1  0.97568202  0.47568167  0.49999990  1  -0.217675  0  -0.005294  0.033209  0  4.233792  0
C  C93  1  0.87959270  0.37959349  0.50000055  1  1.673283  0  0.23664  0.671159  0  4.247622  0
C  C94  1  0.12040569  0.62040586  0.49999972  1  1.673395  0  0.236538  0.670951  0  4.247416  0
C  C95  1  0.37959479  0.87959431  0.50000030  1  1.67336  0  0.236484  0.670877  0  4.24723  0
C  C96  1  0.62040758  0.12040779  0.50000040  1  1.673275  0  0.236491  0.670878  0  4.247759  0
C  C97  1  0.65889734  0.34110349  0.49999946  1  1.515447  0  0.227077  0.603491  0  4.169643  0
C  C98  1  0.34110294  0.65889771  0.50000068  1  1.515465  0  0.227116  0.603584  0  4.169458  0
C  C99  1  0.34110334  0.84110288  0.68220704  1  1.529716  0  0.227087  0.603636  0  4.169424  0
C  C100  1  0.65889669  0.15889667  0.31779335  1  1.52971  0  0.227081  0.603569  0  4.169492  0
C  C101  1  0.84110319  0.15889821  0.50000124  1  1.555692  0  0.227123  0.603604  0  4.1695  0
C  C102  1  0.15889825  0.84110443  0.50000208  1  1.555691  0  0.227097  0.603612  0  4.169489  0
C  C103  1  0.15889732  0.65889676  0.31779367  1  1.529738  0  0.227106  0.603564  0  4.16949  0
C  C104  1  0.84110348  0.34110405  0.68220598  1  1.529752  0  0.227099  0.603532  0  4.169507  0
C  C105  1  0.12142154  0.57773822  0.13779894  1  -0.025681  0  -0.080675  -0.1273  0  3.945964  0
C  C106  1  0.87857649  0.42226180  0.86219996  1  -0.025679  0  -0.080766  -0.12751  0  3.946209  0
C  C107  1  0.57773536  0.43993630  0.45631280  1  -0.039896  0  -0.0807  -0.127282  0  3.946063  0
C  C108  1  0.42226423  0.56006461  0.54368716  1  -0.039842  0  -0.080674  -0.127247  0  3.946105  0
C  C109  1  0.43993971  0.98362433  0.86220100  1  -0.012161  0  -0.0807  -0.12732  0  3.946045  0
C  C110  1  0.56006057  0.01637563  0.13779915  1  -0.012162  0  -0.080671  -0.127322  0  3.946007  0
C  C111  1  0.98362328  0.12142426  0.54368869  1  -0.023597  0  -0.080779  -0.127414  0  3.946115  0
C  C112  1  0.01637721  0.87857725  0.45631469  1  -0.023641  0  -0.080722  -0.127384  0  3.946119  0
C  C113  1  0.56006405  0.42226422  0.54368673  1  -0.04001  0  -0.080719  -0.127356  0  3.946054  0
C  C114  1  0.43993518  0.57773611  0.45631185  1  -0.039774  0  -0.080745  -0.127381  0  3.946076  0
C  C115  1  0.01637583  0.56006205  0.13780006  1  -0.012173  0  -0.080737  -0.127424  0  3.946161  0
O  O116  1  0.74999970  0.25000035  0.50000004  1  -1.227274  0  -0.571631  -1.032001  0  2.528785  0
O  O117  1  0.18121697  0.64052168  0.54069548  1  -1.146278  0  -0.303674  -0.530461  0  2.272379  0
O  O118  1  0.35947895  0.90017378  0.54069615  1  -1.144057  0  -0.303679  -0.530465  0  2.272377  0
O  O119  1  0.64052290  0.09982707  0.45930505  1  -1.144081  0  -0.30361  -0.530308  0  2.272362  0
O  O120  1  0.90017369  0.35947901  0.54069650  1  -1.144087  0  -0.303636  -0.530418  0  2.272384  0
O  O121  1  0.09982626  0.64052246  0.45930483  1  -1.144085  0  -0.303659  -0.530436  0  2.272375  0
O  O122  1  0.35947869  0.81878271  0.45930452  1  -1.146294  0  -0.303653  -0.530427  0  2.272394  0
O  O123  1  0.64052203  0.18121796  0.54069606  1  -1.146352  0  -0.303565  -0.530287  0  2.272307  0
O  O124  1  0.81878263  0.35947881  0.45930448  1  -1.146333  0  -0.303647  -0.530442  0  2.272322  0
O  O125  1  0.24999989  0.75000014  0.49999992  1  -1.227269  0  -0.571637  -1.032052  0  2.528869  0
O  O126  1  0.68207674  0.33512844  0.45937148  1  -1.163315  0  -0.316381  -0.548835  0  2.340695  0
O  O127  1  0.31792372  0.66487263  0.54062935  1  -1.163304  0  -0.316368  -0.548876  0  2.340646  0
O  O128  1  0.33512825  0.87575657  0.65305304  1  -1.165282  0  -0.31634  -0.548861  0  2.340516  0
O  O129  1  0.66487221  0.12424327  0.34694779  1  -1.165317  0  -0.316386  -0.548883  0  2.340577  0
O  O130  1  0.87575675  0.22270574  0.54063015  1  -1.182885  0  -0.316392  -0.548899  0  2.340676  0
O  O131  1  0.12424425  0.77729620  0.45937274  1  -1.182825  0  -0.316334  -0.548834  0  2.340548  0
O  O132  1  0.22270519  0.68207609  0.34694791  1  -1.156082  0  -0.316413  -0.548902  0  2.340583  0
O  O133  1  0.77729536  0.31792471  0.65305199  1  -1.156055  0  -0.316353  -0.548843  0  2.340552  0
O  O134  1  0.12424415  0.66487183  0.34694790  1  -1.165285  0  -0.316334  -0.548839  0  2.340559  0
O  O135  1  0.87575683  0.33512885  0.65305243  1  -1.165333  0  -0.316397  -0.548863  0  2.340621  0
O  O136  1  0.77729496  0.12424396  0.45937147  1  -1.182855  0  -0.316368  -0.548866  0  2.340519  0
O  O137  1  0.22270543  0.87575739  0.54063029  1  -1.182895  0  -0.316378  -0.548902  0  2.34062  0
O  O138  1  0.31792467  0.77729550  0.65305251  1  -1.156071  0  -0.316389  -0.548925  0  2.340523  0
O  O139  1  0.68207536  0.22270446  0.34694788  1  -1.156049  0  -0.316358  -0.548871  0  2.340539  0
O  O140  1  0.66487217  0.31792413  0.54062787  1  -1.163229  0  -0.316331  -0.548823  0  2.340609  0
O  O141  1  0.33512811  0.68207748  0.45937227  1  -1.163269  0  -0.316385  -0.548875  0  2.340528  0
