# generated using pymatgen
data_TlH8C8NO2
_symmetry_space_group_name_H-M   'P 1'
_cell_length_a   7.89794585
_cell_length_b   10.21247485
_cell_length_c   11.44882991
_cell_angle_alpha   100.80436454
_cell_angle_beta   110.05254799
_cell_angle_gamma   90.07061757
_symmetry_Int_Tables_number   1
_chemical_formula_structural   TlH8C8NO2
_chemical_formula_sum   'Tl4 H32 C32 N4 O8'
_cell_volume   849.92748384
_cell_formula_units_Z   4
loop_
 _symmetry_equiv_pos_site_id
 _symmetry_equiv_pos_as_xyz
  1  'x, y, z'
loop_
 _atom_site_type_symbol
 _atom_site_label
 _atom_site_symmetry_multiplicity
 _atom_site_fract_x
 _atom_site_fract_y
 _atom_site_fract_z
 _atom_site_occupancy
 _atom_site_hle17_bader_spin_density
 _atom_site_hle17_ddec_charge
 _atom_site_hle17_ddec_spin_density
 _atom_site_hle17_ddec_sum_bond_order
 _atom_site_hle17_magmom
 _atom_site_hse06_10hf_bader_spin_density
 _atom_site_hse06_10hf_ddec_charge
 _atom_site_hse06_10hf_ddec_spin_density
 _atom_site_hse06_10hf_ddec_sum_bond_order
 _atom_site_hse06_10hf_magmom
 _atom_site_hse06_bader_spin_density
 _atom_site_hse06_ddec_charge
 _atom_site_hse06_ddec_spin_density
 _atom_site_hse06_ddec_sum_bond_order
 _atom_site_hse06_magmom
 _atom_site_pbe_bader_spin_density
 _atom_site_pbe_cm5_charge
 _atom_site_pbe_ddec_charge
 _atom_site_pbe_ddec_spin_density
 _atom_site_pbe_ddec_sum_bond_order
 _atom_site_pbe_magmom
Tl  Tl0  1  0.24530640  0.94050644  0.96935094  1  0  0.736415  0  0.858829  0  0  0.623391  0  1.147416  0  0  0.650598  0  1.130679  0  0  0.398258  0.601704  0  1.160779  0
Tl  Tl1  1  0.72453889  0.44073559  0.97014521  1  0  0.737153  0  0.857741  0  0  0.624708  0  1.145311  0  0  0.651865  0  1.128583  0  0  0.399218  0.603148  0  1.158641  0
Tl  Tl2  1  0.75470237  0.05949560  0.03065166  1  0  0.736437  0  0.858813  0  0  0.623413  0  1.147393  0  0  0.650586  0  1.130711  0  0  0.39826  0.601725  0  1.160757  0
Tl  Tl3  1  0.27546438  0.55926542  0.02985420  1  0  0.737136  0  0.857771  0  0  0.624702  0  1.145345  0  0  0.651844  0  1.12864  0  0  0.399216  0.603144  0  1.158675  0
H  H4  1  0.40599961  0.24890368  0.53740918  1  0  0.101975  0  0.967002  0  0  0.125029  0  1.028713  0  0  0.126175  0  1.028587  0  0  0.090303  0.124109  0  1.028924  0
H  H5  1  0.13045618  0.74892466  0.53681158  1  0  0.102317  0  0.966495  0  0  0.125335  0  1.028188  0  0  0.12649  0  1.028067  0  0  0.090446  0.124413  0  1.028399  0
H  H6  1  0.59398645  0.75110032  0.46259106  1  0  0.101941  0  0.966998  0  0  0.124991  0  1.028711  0  0  0.126137  0  1.028585  0  0  0.090306  0.124073  0  1.028925  0
H  H7  1  0.86953026  0.25106928  0.46318103  1  0  0.10227  0  0.966545  0  0  0.12524  0  1.028305  0  0  0.126385  0  1.02819  0  0  0.090423  0.12433  0  1.028502  0
H  H8  1  0.64143263  0.24144351  0.60505267  1  0  0.110537  0  0.960385  0  0  0.128889  0  1.026727  0  0  0.130566  0  1.026004  0  0  0.090622  0.127603  0  1.027327  0
H  H9  1  0.96283181  0.74125858  0.60493220  1  0  0.109037  0  0.962014  0  0  0.12829  0  1.027373  0  0  0.129965  0  1.026668  0  0  0.090417  0.127018  0  1.027956  0
H  H10  1  0.35856313  0.75856351  0.39495031  1  0  0.110487  0  0.96041  0  0  0.128854  0  1.026729  0  0  0.130527  0  1.026014  0  0  0.090633  0.127575  0  1.027324  0
H  H11  1  0.03715880  0.25873642  0.39506593  1  0  0.109071  0  0.962034  0  0  0.128303  0  1.027409  0  0  0.129979  0  1.026703  0  0  0.090398  0.12703  0  1.027995  0
H  H12  1  0.55089732  0.31197271  0.46734544  1  0  0.104724  0  0.977867  0  0  0.12371  0  1.046726  0  0  0.12394  0  1.048718  0  0  0.086372  0.123506  0  1.045465  0
H  H13  1  0.91593368  0.81191449  0.46720460  1  0  0.104955  0  0.977175  0  0  0.123645  0  1.046616  0  0  0.123886  0  1.048582  0  0  0.086217  0.123433  0  1.045336  0
H  H14  1  0.44909773  0.68804131  0.53265849  1  0  0.104644  0  0.977916  0  0  0.12367  0  1.046755  0  0  0.1239  0  1.048747  0  0  0.086341  0.123468  0  1.045495  0
H  H15  1  0.08405288  0.18808048  0.53279082  1  0  0.104852  0  0.977156  0  0  0.123566  0  1.046578  0  0  0.123804  0  1.048554  0  0  0.086177  0.123354  0  1.045299  0
H  H16  1  0.97292343  0.53108721  0.71300294  1  0  0.322551  0  0.935333  0  0  0.309484  0  0.991515  0  0  0.317417  0  0.984814  0  0  0.294916  0.303813  0  0.996325  0
H  H17  1  0.73925744  0.03085996  0.71294235  1  0  0.321745  0  0.935222  0  0  0.308899  0  0.991194  0  0  0.316826  0  0.984517  0  0  0.294813  0.303228  0  0.995994  0
H  H18  1  0.02707291  0.46891176  0.28699279  1  0  0.322753  0  0.935352  0  0  0.309624  0  0.991601  0  0  0.317559  0  0.984897  0  0  0.294983  0.303951  0  0.996414  0
H  H19  1  0.26074196  0.96914303  0.28705560  1  0  0.321701  0  0.935285  0  0  0.308865  0  0.991236  0  0  0.31679  0  0.984564  0  0  0.294809  0.303194  0  0.996036  0
H  H20  1  0.85530747  0.38084422  0.62216044  1  0  0.298945  0  0.923219  0  0  0.291028  0  0.978383  0  0  0.296127  0  0.975548  0  0  0.297745  0.287412  0  0.980408  0
H  H21  1  0.76615044  0.88055676  0.62208644  1  0  0.298644  0  0.923347  0  0  0.290876  0  0.978481  0  0  0.295955  0  0.9757  0  0  0.297585  0.287272  0  0.980483  0
H  H22  1  0.14468137  0.61916079  0.37784061  1  0  0.298959  0  0.923168  0  0  0.29102  0  0.978371  0  0  0.296118  0  0.975538  0  0  0.297711  0.287404  0  0.980396  0
H  H23  1  0.23383781  0.11944218  0.37790739  1  0  0.298601  0  0.923331  0  0  0.290828  0  0.978481  0  0  0.295905  0  0.975705  0  0  0.297577  0.287223  0  0.980482  0
H  H24  1  0.57164068  0.78758832  0.85554341  1  0  0.066616  0  0.999737  0  0  0.076601  0  1.071033  0  0  0.079104  0  1.06958  0  0  0.091397  0.075007  0  1.071758  0
H  H25  1  0.28297392  0.28747249  0.85536593  1  0  0.067301  0  0.998745  0  0  0.076828  0  1.070357  0  0  0.079367  0  1.0689  0  0  0.091391  0.07516  0  1.07116  0
H  H26  1  0.42836567  0.21241760  0.14444964  1  0  0.066623  0  0.999652  0  0  0.076633  0  1.070939  0  0  0.079135  0  1.069484  0  0  0.091388  0.07504  0  1.071661  0
H  H27  1  0.71703377  0.71251757  0.14463540  1  0  0.067239  0  0.998734  0  0  0.076788  0  1.070322  0  0  0.079301  0  1.068885  0  0  0.091393  0.075111  0  1.071152  0
H  H28  1  0.27838651  0.64761729  0.75932935  1  0  0.102069  0  0.99168  0  0  0.1126  0  1.052046  0  0  0.116006  0  1.051014  0  0  0.095774  0.110185  0  1.052808  0
H  H29  1  0.48029486  0.14731508  0.75948230  1  0  0.10208  0  0.992133  0  0  0.112494  0  1.052556  0  0  0.115873  0  1.051594  0  0  0.095397  0.110081  0  1.05331  0
H  H30  1  0.72161815  0.35239785  0.24068573  1  0  0.101939  0  0.99186  0  0  0.112547  0  1.052127  0  0  0.115937  0  1.051115  0  0  0.095777  0.11014  0  1.052864  0
H  H31  1  0.51970571  0.85267095  0.24051585  1  0  0.102058  0  0.992112  0  0  0.11248  0  1.052541  0  0  0.115865  0  1.051564  0  0  0.095379  0.11007  0  1.053292  0
H  H32  1  0.26827824  0.42182052  0.62598831  1  0  0.095372  0  0.944067  0  0  0.111438  0  0.997075  0  0  0.114307  0  0.995385  0  0  0.09956  0.109269  0  0.998358  0
H  H33  1  0.35715713  0.92161086  0.62589347  1  0  0.095613  0  0.943954  0  0  0.111587  0  0.99699  0  0  0.114573  0  0.995183  0  0  0.099541  0.109401  0  0.998296  0
H  H34  1  0.73172869  0.57818879  0.37404035  1  0  0.095475  0  0.943916  0  0  0.111547  0  0.996909  0  0  0.114404  0  0.995259  0  0  0.099613  0.109378  0  0.998194  0
H  H35  1  0.64284088  0.07837710  0.37409915  1  0  0.095649  0  0.943962  0  0  0.111685  0  0.996907  0  0  0.114671  0  0.995103  0  0  0.099564  0.109499  0  0.998213  0
C  C36  1  0.53568574  0.30358521  0.55783143  1  0  -0.322671  0  3.723176  0  0  -0.40534  0  3.960818  0  0  -0.406314  0  3.970413  0  0  -0.243288  -0.404328  0  3.954303  0
C  C37  1  0.02142016  0.80350289  0.55755384  1  0  -0.322212  0  3.722665  0  0  -0.405331  0  3.960276  0  0  -0.406339  0  3.969883  0  0  -0.243026  -0.404289  0  3.953708  0
C  C38  1  0.46430302  0.69641882  0.44217119  1  0  -0.322568  0  3.723071  0  0  -0.405311  0  3.960794  0  0  -0.406283  0  3.970388  0  0  -0.243291  -0.4043  0  3.954258  0
C  C39  1  0.97856907  0.19649206  0.44243958  1  0  -0.32203  0  3.722668  0  0  -0.405119  0  3.960292  0  0  -0.406121  0  3.969896  0  0  -0.2429  -0.404087  0  3.953718  0
C  C40  1  0.70950445  0.52088323  0.68952787  1  0  0.258269  0  3.795466  0  0  0.243578  0  4.039399  0  0  0.255769  0  4.059828  0  0  0.108341  0.235521  0  4.025385  0
C  C41  1  0.97930587  0.02070365  0.68938585  1  0  0.257418  0  3.79127  0  0  0.241945  0  4.036492  0  0  0.254135  0  4.056927  0  0  0.107705  0.233889  0  4.022457  0
C  C42  1  0.29049476  0.47911686  0.31047919  1  0  0.258166  0  3.795621  0  0  0.243478  0  4.03949  0  0  0.255693  0  4.059888  0  0  0.108323  0.235407  0  4.025494  0
C  C43  1  0.02069458  0.97929630  0.31060924  1  0  0.257305  0  3.791124  0  0  0.24181  0  4.03635  0  0  0.254001  0  4.056784  0  0  0.107658  0.233754  0  4.022315  0
C  C44  1  0.54462060  0.43832330  0.63986401  1  0  0.017908  0  3.738089  0  0  0.050542  0  3.967584  0  0  0.045381  0  3.992816  0  0  -0.021602  0.053605  0  3.950374  0
C  C45  1  0.09457253  0.93820153  0.63962570  1  0  0.018478  0  3.736229  0  0  0.051387  0  3.966172  0  0  0.046214  0  3.991494  0  0  -0.021354  0.054484  0  3.948894  0
C  C46  1  0.45537078  0.56167975  0.36013993  1  0  0.018005  0  3.737889  0  0  0.050664  0  3.967368  0  0  0.045498  0  3.992592  0  0  -0.021623  0.053728  0  3.950166  0
C  C47  1  0.90542742  0.06179248  0.36037270  1  0  0.018512  0  3.736133  0  0  0.051427  0  3.966064  0  0  0.046259  0  3.991377  0  0  -0.021369  0.054525  0  3.94879  0
C  C48  1  0.56184140  0.69004183  0.79447186  1  0  -0.087244  0  3.867878  0  0  -0.109266  0  4.114647  0  0  -0.106708  0  4.136886  0  0  -0.098699  -0.110472  0  4.098701  0
C  C49  1  0.23181395  0.18993558  0.79430681  1  0  -0.085932  0  3.864938  0  0  -0.107356  0  4.110957  0  0  -0.104811  0  4.133101  0  0  -0.098178  -0.108518  0  4.09509  0
C  C50  1  0.43816457  0.30995830  0.20553852  1  0  -0.087248  0  3.867876  0  0  -0.109316  0  4.11466  0  0  -0.106755  0  4.136898  0  0  -0.098728  -0.110523  0  4.098715  0
C  C51  1  0.76819517  0.81005547  0.20569413  1  0  -0.085836  0  3.865039  0  0  -0.107284  0  4.111043  0  0  -0.104712  0  4.133201  0  0  -0.098135  -0.10845  0  4.095171  0
C  C52  1  0.71907603  0.64700198  0.77177627  1  0  -0.219915  0  3.747614  0  0  -0.194921  0  3.981969  0  0  -0.20823  0  4.00474  0  0  -0.041685  -0.186109  0  3.96681  0
C  C53  1  0.05185105  0.14688442  0.77160843  1  0  -0.219536  0  3.744302  0  0  -0.194236  0  3.978958  0  0  -0.207556  0  4.001714  0  0  -0.041103  -0.185425  0  3.963783  0
C  C54  1  0.28092337  0.35300100  0.22822168  1  0  -0.219927  0  3.747711  0  0  -0.194907  0  3.981991  0  0  -0.208231  0  4.004772  0  0  -0.041639  -0.186093  0  3.966835  0
C  C55  1  0.94815712  0.85311156  0.22838696  1  0  -0.219514  0  3.744134  0  0  -0.194154  0  3.978678  0  0  -0.207476  0  4.001432  0  0  -0.041046  -0.185341  0  3.963504  0
C  C56  1  0.89153260  0.73348031  0.83730171  1  0  0.665248  0  3.901458  0  0  0.612997  0  4.192007  0  0  0.649087  0  4.183636  0  0  0.200598  0.588129  0  4.196944  0
C  C57  1  0.94476498  0.23353303  0.83695630  1  0  0.665628  0  3.902949  0  0  0.613064  0  4.194122  0  0  0.649183  0  4.18572  0  0  0.200131  0.588176  0  4.199066  0
C  C58  1  0.10846796  0.26652067  0.16269532  1  0  0.66526  0  3.901436  0  0  0.613013  0  4.19195  0  0  0.649101  0  4.18359  0  0  0.200599  0.588146  0  4.196885  0
C  C59  1  0.05525174  0.76646797  0.16304276  1  0  0.665504  0  3.902893  0  0  0.612955  0  4.194031  0  0  0.649075  0  4.185627  0  0  0.200037  0.588067  0  4.198973  0
C  C60  1  0.39947784  0.61183649  0.74239139  1  0  -0.16822  0  3.886681  0  0  -0.179346  0  4.142288  0  0  -0.187022  0  4.167161  0  0  -0.124149  -0.173831  0  4.124537  0
C  C61  1  0.34219016  0.11160724  0.74235773  1  0  -0.169773  0  3.88999  0  0  -0.180855  0  4.145564  0  0  -0.188558  0  4.170459  0  0  -0.124069  -0.175288  0  4.127789  0
C  C62  1  0.60052490  0.38817263  0.25762054  1  0  -0.168112  0  3.886798  0  0  -0.179301  0  4.142435  0  0  -0.186964  0  4.167287  0  0  -0.124168  -0.173783  0  4.124684  0
C  C63  1  0.65781417  0.88837578  0.25763820  1  0  -0.169637  0  3.889885  0  0  -0.180734  0  4.145473  0  0  -0.188437  0  4.170369  0  0  -0.124032  -0.17517  0  4.127698  0
C  C64  1  0.39395075  0.48546130  0.66665030  1  0  -0.103385  0  3.783401  0  0  -0.125496  0  4.028735  0  0  -0.123315  0  4.048403  0  0  -0.093241  -0.126256  0  4.014634  0
C  C65  1  0.27207729  0.98527549  0.66654146  1  0  -0.103694  0  3.784029  0  0  -0.125714  0  4.029081  0  0  -0.123646  0  4.048721  0  0  -0.093119  -0.126476  0  4.01497  0
C  C66  1  0.60604546  0.51455071  0.33335270  1  0  -0.103561  0  3.783281  0  0  -0.125681  0  4.028638  0  0  -0.123508  0  4.048295  0  0  -0.093293  -0.126444  0  4.01454  0
C  C67  1  0.72792098  0.01471546  0.33344995  1  0  -0.103937  0  3.783972  0  0  -0.126007  0  4.029035  0  0  -0.123939  0  4.048676  0  0  -0.093194  -0.126768  0  4.014923  0
N  N68  1  0.85308265  0.47984359  0.65492237  1  0  -0.634096  0  3.128785  0  0  -0.601337  0  3.353404  0  0  -0.622073  0  3.35543  0  0  -0.593276  -0.586749  0  3.3517  0
N  N69  1  0.80127927  0.97953351  0.65494795  1  0  -0.632152  0  3.126844  0  0  -0.599216  0  3.350958  0  0  -0.619955  0  3.353087  0  0  -0.592235  -0.584605  0  3.349194  0
N  N70  1  0.14690741  0.52016039  0.34507530  1  0  -0.634216  0  3.128906  0  0  -0.601401  0  3.353553  0  0  -0.622147  0  3.35557  0  0  -0.593277  -0.586808  0  3.351855  0
N  N71  1  0.19871715  0.02046645  0.34504708  1  0  -0.632024  0  3.126927  0  0  -0.59909  0  3.351053  0  0  -0.619832  0  3.353189  0  0  -0.592226  -0.584482  0  3.349289  0
O  O72  1  0.04013582  0.68780815  0.82957545  1  0  -0.686011  0  1.977543  0  0  -0.609506  0  2.205909  0  0  -0.637393  0  2.197736  0  0  -0.320638  -0.589527  0  2.211128  0
O  O73  1  0.78857919  0.18778705  0.82955262  1  0  -0.686385  0  1.978335  0  0  -0.609605  0  2.206151  0  0  -0.637478  0  2.197972  0  0  -0.320443  -0.589618  0  2.211391  0
O  O74  1  0.95986459  0.31219088  0.17042560  1  0  -0.686052  0  1.97755  0  0  -0.609529  0  2.205893  0  0  -0.637411  0  2.197716  0  0  -0.320635  -0.589552  0  2.211111  0
O  O75  1  0.21143215  0.81221395  0.17044605  1  0  -0.686269  0  1.978428  0  0  -0.60952  0  2.206271  0  0  -0.637391  0  2.198088  0  0  -0.320393  -0.589536  0  2.211515  0
O  O76  1  0.88584018  0.85019934  0.89846065  1  0  -0.659808  0  1.977883  0  0  -0.585466  0  2.220334  0  0  -0.614749  0  2.213246  0  0  -0.318568  -0.564048  0  2.224485  0
O  O77  1  0.01135651  0.35047708  0.89757992  1  0  -0.659956  0  1.979643  0  0  -0.585345  0  2.221809  0  0  -0.614628  0  2.21471  0  0  -0.318069  -0.564014  0  2.226142  0
O  O78  1  0.11416861  0.14980273  0.10154459  1  0  -0.659738  0  1.97784  0  0  -0.585413  0  2.220314  0  0  -0.614671  0  2.213177  0  0  -0.318558  -0.563998  0  2.224464  0
O  O79  1  0.98865622  0.64952487  0.10241398  1  0  -0.65993  0  1.979476  0  0  -0.585351  0  2.221667  0  0  -0.614633  0  2.214565  0  0  -0.318057  -0.564017  0  2.225996  0
