# generated using pymatgen
data_CdH8C12(NO2)2
_symmetry_space_group_name_H-M   'P 1'
_cell_length_a   7.82172529
_cell_length_b   12.31978572
_cell_length_c   12.77010000
_cell_angle_alpha   104.83815867
_cell_angle_beta   90.00000000
_cell_angle_gamma   90.00000000
_symmetry_Int_Tables_number   1
_chemical_formula_structural   CdH8C12(NO2)2
_chemical_formula_sum   'Cd4 H32 C48 N8 O16'
_cell_volume   1189.51695385
_cell_formula_units_Z   4
loop_
 _symmetry_equiv_pos_site_id
 _symmetry_equiv_pos_as_xyz
  1  'x, y, z'
loop_
 _atom_site_type_symbol
 _atom_site_label
 _atom_site_symmetry_multiplicity
 _atom_site_fract_x
 _atom_site_fract_y
 _atom_site_fract_z
 _atom_site_occupancy
 _atom_site_hle17_bader_spin_density
 _atom_site_hle17_ddec_charge
 _atom_site_hle17_ddec_spin_density
 _atom_site_hle17_ddec_sum_bond_order
 _atom_site_hle17_magmom
 _atom_site_hse06_10hf_bader_spin_density
 _atom_site_hse06_10hf_ddec_charge
 _atom_site_hse06_10hf_ddec_spin_density
 _atom_site_hse06_10hf_ddec_sum_bond_order
 _atom_site_hse06_10hf_magmom
 _atom_site_hse06_bader_spin_density
 _atom_site_hse06_ddec_charge
 _atom_site_hse06_ddec_spin_density
 _atom_site_hse06_ddec_sum_bond_order
 _atom_site_hse06_magmom
 _atom_site_pbe_bader_charge
 _atom_site_pbe_bader_spin_density
 _atom_site_pbe_cm5_charge
 _atom_site_pbe_ddec_charge
 _atom_site_pbe_ddec_spin_density
 _atom_site_pbe_ddec_sum_bond_order
 _atom_site_pbe_magmom
Cd  Cd0  1  0.87738827  0.16012316  0.38506931  1  0  1.078315  0  1.637432  0  0  0.88236  0  2.06675  0  0  0.94358  0  2.016773  0  1.225431  0  0.773256  0.839137  0  2.10061  0
Cd  Cd1  1  0.37738988  0.33987523  0.11493143  1  0  1.078293  0  1.637459  0  0  0.882323  0  2.066787  0  0  0.943546  0  2.016805  0  1.225431  0  0.773242  0.839099  0  2.100649  0
Cd  Cd2  1  0.12260466  0.83987530  0.61493023  1  0  1.078325  0  1.637422  0  0  0.882363  0  2.066752  0  0  0.943586  0  2.016771  0  1.225413  0  0.773246  0.839142  0  2.100612  0
Cd  Cd3  1  0.62261200  0.66012490  0.88507088  1  0  1.078328  0  1.637415  0  0  0.882365  0  2.066741  0  0  0.943588  0  2.016758  0  1.2254  0  0.773256  0.839142  0  2.100601  0
H  H4  1  0.47884448  0.12059577  0.37963962  1  0  0.093337  0  0.935388  0  0  0.099981  0  1.003822  0  0  0.103098  0  1.000444  0  0.124309  0  0.121004  0.097667  0  1.006327  0
H  H5  1  0.97885054  0.37940346  0.12035976  1  0  0.093366  0  0.935275  0  0  0.1  0  1.003725  0  0  0.103119  0  1.000342  0  0.124328  0  0.121007  0.097687  0  1.00623  0
H  H6  1  0.52114717  0.87940688  0.62036096  1  0  0.093344  0  0.935281  0  0  0.099992  0  1.003705  0  0  0.103109  0  1.000329  0  0.124328  0  0.121021  0.097679  0  1.00621  0
H  H7  1  0.02115646  0.62059080  0.87963796  1  0  0.093332  0  0.935311  0  0  0.09999  0  1.003725  0  0  0.103108  0  1.000347  0  0.12436  0  0.120995  0.097675  0  1.006229  0
H  H8  1  0.27875691  0.16059843  0.70109264  1  0  0.107495  0  0.944242  0  0  0.116577  0  1.007676  0  0  0.119841  0  1.004618  0  0.136953  0  0.111659  0.114142  0  1.009907  0
H  H9  1  0.77875913  0.33940164  0.79890852  1  0  0.107494  0  0.944246  0  0  0.116562  0  1.007712  0  0  0.119828  0  1.004653  0  0.136977  0  0.111655  0.114138  0  1.00993  0
H  H10  1  0.72123474  0.83940170  0.29890732  1  0  0.107449  0  0.944274  0  0  0.11655  0  1.007705  0  0  0.119812  0  1.004646  0  0.137017  0  0.11167  0.114113  0  1.009938  0
H  H11  1  0.22124147  0.66059597  0.20109160  1  0  0.107493  0  0.944301  0  0  0.116568  0  1.007743  0  0  0.119832  0  1.004685  0  0.136956  0  0.11166  0.114143  0  1.009962  0
H  H12  1  0.58130397  0.17397323  0.76973243  1  0  0.115286  0  0.966717  0  0  0.1213  0  1.032304  0  0  0.125257  0  1.030712  0  0.087593  0  0.107278  0.118421  0  1.033703  0
H  H13  1  0.08130559  0.32602767  0.73026658  1  0  0.115289  0  0.966695  0  0  0.121303  0  1.03229  0  0  0.12526  0  1.030697  0  0.087584  0  0.10727  0.118423  0  1.03369  0
H  H14  1  0.41868896  0.82602438  0.23026611  1  0  0.115343  0  0.966709  0  0  0.121367  0  1.032276  0  0  0.125324  0  1.030684  0  0.087482  0  0.107294  0.118487  0  1.033676  0
H  H15  1  0.91869629  0.67397498  0.26973322  1  0  0.115282  0  0.966697  0  0  0.121307  0  1.032278  0  0  0.125265  0  1.030684  0  0.0875  0  0.107268  0.118424  0  1.033678  0
H  H16  1  0.82099534  0.15801718  0.63370054  1  0  0.091016  0  0.956881  0  0  0.100043  0  1.020173  0  0  0.102915  0  1.017301  0  0.156998  0  0.11687  0.097909  0  1.022247  0
H  H17  1  0.32099823  0.34198205  0.86629805  1  0  0.091001  0  0.956898  0  0  0.100029  0  1.020188  0  0  0.102901  0  1.017316  0  0.156943  0  0.116865  0.097895  0  1.022261  0
H  H18  1  0.17899759  0.84198211  0.36629764  1  0  0.090952  0  0.956987  0  0  0.100029  0  1.020223  0  0  0.102901  0  1.017349  0  0.156885  0  0.116878  0.097897  0  1.022299  0
H  H19  1  0.67900620  0.65801976  0.13370153  1  0  0.090991  0  0.956948  0  0  0.100039  0  1.020208  0  0  0.10291  0  1.017339  0  0.157  0  0.116884  0.097909  0  1.022284  0
H  H20  1  0.65408459  0.86884593  0.08879742  1  0  0.088403  0  0.943329  0  0  0.095743  0  1.012008  0  0  0.09846  0  1.009033  0  0.120278  0  0.117396  0.093753  0  1.014121  0
H  H21  1  0.15408877  0.63115763  0.41120530  1  0  0.088406  0  0.943344  0  0  0.095744  0  1.012036  0  0  0.09846  0  1.00906  0  0.120298  0  0.117407  0.093753  0  1.014148  0
H  H22  1  0.34590834  0.13115757  0.91120258  1  0  0.088445  0  0.943228  0  0  0.095783  0  1.011924  0  0  0.098503  0  1.008942  0  0.120248  0  0.117406  0.093792  0  1.014038  0
H  H23  1  0.84591439  0.36884418  0.58879742  1  0  0.088448  0  0.943304  0  0  0.095783  0  1.011993  0  0  0.098503  0  1.009011  0  0.120245  0  0.117411  0.093792  0  1.014106  0
H  H24  1  0.86181498  0.15086626  0.99187699  1  0  0.096041  0  0.963168  0  0  0.10541  0  1.027463  0  0  0.107754  0  1.026156  0  0.109802  0  0.105685  0.103666  0  1.028441  0
H  H25  1  0.36181404  0.34913381  0.50812181  1  0  0.096037  0  0.963154  0  0  0.105411  0  1.027443  0  0  0.107757  0  1.026133  0  0.109845  0  0.105689  0.103668  0  1.028417  0
H  H26  1  0.13818946  0.84913387  0.00811983  1  0  0.09606  0  0.963121  0  0  0.105452  0  1.027388  0  0  0.107806  0  1.026067  0  0.10982  0  0.105692  0.103703  0  1.02838  0
H  H27  1  0.63819424  0.65086800  0.49187856  1  0  0.096033  0  0.963144  0  0  0.105479  0  1.027345  0  0  0.10783  0  1.026036  0  0.109798  0  0.105729  0.103736  0  1.028318  0
H  H28  1  0.81307637  0.04207085  0.79597985  1  0  0.112612  0  0.942799  0  0  0.125065  0  0.997045  0  0  0.127935  0  0.996971  0  0.100587  0  0.111407  0.122997  0  0.997307  0
H  H29  1  0.31307415  0.45792670  0.70401990  1  0  0.112632  0  0.942745  0  0  0.125089  0  0.996989  0  0  0.127958  0  0.996917  0  0.100578  0  0.111415  0.12302  0  0.99725  0
H  H30  1  0.18693446  0.95792592  0.20401771  1  0  0.112623  0  0.942851  0  0  0.12509  0  0.997077  0  0  0.127953  0  0.997014  0  0.100604  0  0.111406  0.123018  0  0.997344  0
H  H31  1  0.68693284  0.54207260  0.29598141  1  0  0.112641  0  0.942822  0  0  0.125099  0  0.997057  0  0  0.127964  0  0.996992  0  0.100609  0  0.111426  0.123032  0  0.997317  0
H  H32  1  0.69798284  0.84777355  0.76028686  1  0  0.093159  0  0.971788  0  0  0.098734  0  1.040058  0  0  0.101886  0  1.036397  0  0.149362  0  0.116309  0.096384  0  1.042783  0
H  H33  1  0.19797934  0.65222413  0.73971440  1  0  0.09316  0  0.971813  0  0  0.098711  0  1.040109  0  0  0.101864  0  1.036448  0  0.149356  0  0.116294  0.096362  0  1.042833  0
H  H34  1  0.30202544  0.15222406  0.23971169  1  0  0.093181  0  0.971842  0  0  0.098659  0  1.040199  0  0  0.101812  0  1.03654  0  0.149397  0  0.11632  0.096315  0  1.042915  0
H  H35  1  0.80202126  0.34777349  0.26028806  1  0  0.093178  0  0.971787  0  0  0.098727  0  1.040076  0  0  0.101878  0  1.036416  0  0.149384  0  0.116303  0.096378  0  1.042799  0
C  C36  1  0.49688015  0.13208460  0.46634896  1  0  0.126586  0  3.672874  0  0  0.082378  0  3.92793  0  0  0.092215  0  3.94501  0  0.475833  0  0.054105  0.076067  0  3.916328  0
C  C37  1  0.99688492  0.36791295  0.03364922  1  0  0.126582  0  3.672847  0  0  0.082365  0  3.927894  0  0  0.092205  0  3.944971  0  0.475816  0  0.054067  0.076055  0  3.916291  0
C  C38  1  0.50311279  0.86791553  0.53364865  1  0  0.126689  0  3.672769  0  0  0.082504  0  3.927853  0  0  0.09234  0  3.944935  0  0.475825  0  0.054084  0.076192  0  3.916252  0
C  C39  1  0.00312079  0.63208383  0.96635068  1  0  0.126496  0  3.672807  0  0  0.082318  0  3.927929  0  0  0.09215  0  3.945016  0  0.475738  0  0.054051  0.076008  0  3.916323  0
C  C40  1  0.35643031  0.14119707  0.53557391  1  0  -0.109196  0  3.745128  0  0  -0.080303  0  3.977928  0  0  -0.093174  0  4.000621  0  -0.013617  0  -0.011228  -0.072325  0  3.962971  0
C  C41  1  0.85643253  0.35880216  0.96442704  1  0  -0.109164  0  3.745102  0  0  -0.080225  0  3.977839  0  0  -0.093098  0  4.000536  0  -0.013616  0  -0.011174  -0.072248  0  3.962885  0
C  C42  1  0.64356390  0.85880558  0.46442823  1  0  -0.109243  0  3.74507  0  0  -0.080421  0  3.977996  0  0  -0.093294  0  4.000691  0  -0.013594  0  -0.011198  -0.072442  0  3.963039  0
C  C43  1  0.14357063  0.64119377  0.03557266  1  0  -0.108845  0  3.744837  0  0  -0.0801  0  3.977822  0  0  -0.092972  0  4.000521  0  -0.013621  0  -0.011111  -0.072124  0  3.962867  0
C  C44  1  0.38661291  0.15568616  0.64627098  1  0  0.010607  0  3.659882  0  0  -0.019739  0  3.904137  0  0  -0.013042  0  3.919905  0  -0.042263  0  -0.05394  -0.023704  0  3.893374  0
C  C45  1  0.88661385  0.34431475  0.85372960  1  0  0.010546  0  3.659679  0  0  -0.01982  0  3.903964  0  0  -0.013124  0  3.919731  0  -0.042225  0  -0.054  -0.023794  0  3.893198  0
C  C46  1  0.61338130  0.84431649  0.35372960  1  0  0.010675  0  3.659692  0  0  -0.019693  0  3.904025  0  0  -0.012992  0  3.919788  0  -0.042243  0  -0.05399  -0.023657  0  3.893262  0
C  C47  1  0.11338931  0.65568371  0.14626994  1  0  0.010502  0  3.659882  0  0  -0.019801  0  3.904207  0  0  -0.013104  0  3.919973  0  -0.042264  0  -0.053991  -0.023775  0  3.893439  0
C  C48  1  0.55417697  0.16100988  0.68371205  1  0  -0.120367  0  3.712735  0  0  -0.12969  0  3.966817  0  0  -0.138169  0  3.986725  0  0.028364  0  -0.080601  -0.124427  0  3.953611  0
C  C49  1  0.05418114  0.33899018  0.81628832  1  0  -0.120318  0  3.712517  0  0  -0.129643  0  3.966615  0  0  -0.138122  0  3.986522  0  0.028374  0  -0.080564  -0.124381  0  3.95341  0
C  C50  1  0.44581596  0.83898773  0.31628729  1  0  -0.120464  0  3.712649  0  0  -0.129801  0  3.966774  0  0  -0.13828  0  3.98668  0  0.028262  0  -0.080615  -0.124535  0  3.953565  0
C  C51  1  0.94582457  0.66101247  0.18371304  1  0  -0.120316  0  3.712624  0  0  -0.129661  0  3.966714  0  0  -0.138141  0  3.986622  0  0.028462  0  -0.080572  -0.124395  0  3.953508  0
C  C52  1  0.68704279  0.15322247  0.60956000  1  0  0.131113  0  3.696341  0  0  0.093749  0  3.953779  0  0  0.102713  0  3.971289  0  0.393708  0  0.047713  0.088035  0  3.941731  0
C  C53  1  0.18704441  0.34677844  0.89044058  1  0  0.131146  0  3.696531  0  0  0.093774  0  3.95398  0  0  0.102737  0  3.97149  0  0.393739  0  0.047744  0.088061  0  3.941928  0
C  C54  1  0.31295142  0.84677682  0.39043740  1  0  0.131251  0  3.696487  0  0  0.093856  0  3.953929  0  0  0.102822  0  3.971435  0  0.393896  0  0.04774  0.088139  0  3.941883  0
C  C55  1  0.81295747  0.65322253  0.10956193  1  0  0.13117  0  3.696264  0  0  0.0938  0  3.953704  0  0  0.102765  0  3.971211  0  0.393699  0  0.047729  0.088078  0  3.941662  0
C  C56  1  0.17838520  0.14365320  0.49312232  1  0  0.631204  0  3.953809  0  0  0.582383  0  4.242301  0  0  0.617371  0  4.236954  0  1.594633  0  0.194964  0.558764  0  4.245019  0
C  C57  1  0.67838869  0.35634603  0.00687862  1  0  0.631158  0  3.954082  0  0  0.582324  0  4.242576  0  0  0.617312  0  4.237233  0  1.594621  0  0.194944  0.558705  0  4.24529  0
C  C58  1  0.82160901  0.85634861  0.50687648  1  0  0.631135  0  3.953966  0  0  0.582317  0  4.242495  0  0  0.617305  0  4.237154  0  1.594535  0  0.194938  0.558698  0  4.245212  0
C  C59  1  0.32161830  0.64365075  0.99312364  1  0  0.630924  0  3.954027  0  0  0.58215  0  4.242525  0  0  0.617136  0  4.237186  0  1.594381  0  0.194878  0.558533  0  4.245235  0
C  C60  1  0.69123369  0.90994608  0.02620040  1  0  0.125758  0  3.682652  0  0  0.081538  0  3.933447  0  0  0.091231  0  3.952225  0  0.454959  0  0.051569  0.075403  0  3.920596  0
C  C61  1  0.19123402  0.59005664  0.47380133  1  0  0.125749  0  3.682815  0  0  0.081521  0  3.933609  0  0  0.091215  0  3.952384  0  0.454927  0  0.051555  0.075387  0  3.920757  0
C  C62  1  0.30876436  0.09005489  0.97379663  1  0  0.125723  0  3.682485  0  0  0.081476  0  3.933309  0  0  0.091169  0  3.952084  0  0.454906  0  0.051511  0.075344  0  3.920457  0
C  C63  1  0.80876913  0.40994517  0.52620217  1  0  0.125841  0  3.682587  0  0  0.081599  0  3.933359  0  0  0.091294  0  3.952131  0  0.454909  0  0.051584  0.075474  0  3.920516  0
C  C64  1  0.76044092  0.01787058  0.05411869  1  0  -0.108867  0  3.749536  0  0  -0.078495  0  3.980067  0  0  -0.092159  0  4.003858  0  -0.010861  0  -0.013734  -0.069987  0  3.964328  0
C  C65  1  0.26043998  0.48213117  0.44588366  1  0  -0.108864  0  3.749448  0  0  -0.078496  0  3.979994  0  0  -0.092159  0  4.003783  0  -0.010572  0  -0.013739  -0.069989  0  3.964254  0
C  C66  1  0.23955712  0.98213207  0.94588188  1  0  -0.108834  0  3.749542  0  0  -0.078429  0  3.98004  0  0  -0.092092  0  4.003836  0  -0.010911  0  -0.013702  -0.06992  0  3.964298  0
C  C67  1  0.73956573  0.51786981  0.55411964  1  0  -0.109105  0  3.749738  0  0  -0.078666  0  3.980206  0  0  -0.092329  0  4.003997  0  -0.010932  0  -0.013831  -0.070189  0  3.964506  0
C  C68  1  0.80464089  0.06752396  0.97078692  1  0  0.001156  0  3.683177  0  0  -0.031291  0  3.931515  0  0  -0.025001  0  3.94938  0  0.018302  0  -0.058016  -0.034967  0  3.919279  0
C  C69  1  0.30463867  0.43247611  0.52921267  1  0  0.001243  0  3.683083  0  0  -0.031206  0  3.93142  0  0  -0.024916  0  3.949283  0  0.018275  0  -0.057991  -0.034881  0  3.919182  0
C  C70  1  0.19536099  0.93247618  0.02921147  1  0  0.001206  0  3.683236  0  0  -0.031264  0  3.931555  0  0  -0.024976  0  3.949422  0  0.018282  0  -0.057976  -0.03494  0  3.919312  0
C  C71  1  0.69536577  0.56752402  0.47078885  1  0  0.00124  0  3.683062  0  0  -0.031277  0  3.931357  0  0  -0.024991  0  3.949219  0  0.018392  0  -0.058034  -0.034943  0  3.919129  0
C  C72  1  0.77842800  0.00819215  0.86383004  1  0  -0.110296  0  3.705634  0  0  -0.120805  0  3.958876  0  0  -0.129563  0  3.979716  0  -0.045812  0  -0.07909  -0.115365  0  3.944936  0
C  C73  1  0.27842451  0.49180707  0.63617012  1  0  -0.110336  0  3.705501  0  0  -0.120847  0  3.958735  0  0  -0.129603  0  3.979574  0  -0.046137  0  -0.07907  -0.115407  0  3.944792  0
C  C74  1  0.22158283  0.99180462  0.13616752  1  0  -0.110399  0  3.70577  0  0  -0.120921  0  3.958986  0  0  -0.129678  0  3.979834  0  -0.045732  0  -0.079118  -0.115479  0  3.945049  0
C  C75  1  0.72158249  0.50819222  0.36383041  1  0  -0.11037  0  3.705604  0  0  -0.120899  0  3.958858  0  0  -0.129655  0  3.979703  0  -0.045707  0  -0.079122  -0.115462  0  3.944917  0
C  C76  1  0.71313550  0.89956314  0.84268438  1  0  0.152841  0  3.664664  0  0  0.116778  0  3.91755  0  0  0.126999  0  3.933316  0  0.473937  0  0.053973  0.110261  0  3.906682  0
C  C77  1  0.21313201  0.60043622  0.65731573  1  0  0.152836  0  3.664679  0  0  0.116798  0  3.917556  0  0  0.127019  0  3.933321  0  0.474265  0  0.05397  0.110281  0  3.906687  0
C  C78  1  0.28687405  0.10043532  0.15731359  1  0  0.152853  0  3.664771  0  0  0.116871  0  3.917681  0  0  0.127094  0  3.933447  0  0.473922  0  0.053956  0.110353  0  3.906813  0
C  C79  1  0.78687115  0.39956307  0.34268636  1  0  0.152794  0  3.664761  0  0  0.116768  0  3.917636  0  0  0.126989  0  3.933407  0  0.473867  0  0.053967  0.110251  0  3.906768  0
C  C80  1  0.79753248  0.07577321  0.16998474  1  0  0.626468  0  3.965129  0  0  0.57912  0  4.249104  0  0  0.614084  0  4.244955  0  1.568111  0  0.188611  0.555563  0  4.25092  0
C  C81  1  0.29753027  0.42422686  0.33001563  1  0  0.626415  0  3.965104  0  0  0.579064  0  4.249091  0  0  0.614027  0  4.24494  0  1.56793  0  0.188571  0.555507  0  4.250907  0
C  C82  1  0.20245917  0.92422860  0.83001406  1  0  0.626491  0  3.965193  0  0  0.57914  0  4.24917  0  0  0.614102  0  4.245023  0  1.568308  0  0.188678  0.555583  0  4.250986  0
C  C83  1  0.70247162  0.57577579  0.66998573  1  0  0.626485  0  3.965193  0  0  0.579116  0  4.249161  0  0  0.614079  0  4.245014  0  1.568201  0  0.188651  0.555568  0  4.250977  0
N  N84  1  0.65877409  0.13932789  0.50279521  1  0  -0.349192  0  3.281503  0  0  -0.267488  0  3.553043  0  0  -0.290311  0  3.573131  0  -1.225309  0  -0.332871  -0.252041  0  3.53895  0
N  N85  1  0.15877827  0.36067134  0.99720338  1  0  -0.349203  0  3.281746  0  0  -0.267497  0  3.553287  0  0  -0.290318  0  3.573375  0  -1.225398  0  -0.332856  -0.252049  0  3.539193  0
N  N86  1  0.34121884  0.86067225  0.49720396  1  0  -0.349326  0  3.281695  0  0  -0.267642  0  3.553274  0  0  -0.290465  0  3.57336  0  -1.225363  0  -0.332894  -0.252194  0  3.539184  0
N  N87  1  0.84122617  0.63932795  0.00279480  1  0  -0.349267  0  3.2815  0  0  -0.267568  0  3.553046  0  0  -0.290389  0  3.573134  0  -1.225208  0  -0.332904  -0.25212  0  3.538954  0
N  N88  1  0.67029074  0.85143550  0.92257951  1  0  -0.348906  0  3.279572  0  0  -0.265135  0  3.549585  0  0  -0.288591  0  3.568773  0  -1.222801  0  -0.333141  -0.249292  0  3.536061  0
N  N89  1  0.17029235  0.64856386  0.57742060  1  0  -0.3489  0  3.279755  0  0  -0.265132  0  3.54976  0  0  -0.288588  0  3.568946  0  -1.222839  0  -0.333146  -0.249291  0  3.536237  0
N  N90  1  0.32971114  0.14856547  0.07741908  1  0  -0.348897  0  3.279445  0  0  -0.26512  0  3.549443  0  0  -0.288576  0  3.568628  0  -1.222808  0  -0.333115  -0.249278  0  3.535921  0
N  N91  1  0.82971081  0.35143460  0.42258050  1  0  -0.348889  0  3.27955  0  0  -0.265131  0  3.549567  0  0  -0.288587  0  3.56875  0  -1.222833  0  -0.333128  -0.249289  0  3.536041  0
O  O92  1  0.06328016  0.19239382  0.55799144  1  0  -0.634329  0  1.944619  0  0  -0.578367  0  2.17581  0  0  -0.605998  0  2.167739  0  -1.181488  0  -0.322748  -0.558912  0  2.180527  0
O  O93  1  0.56328493  0.30760709  0.94201148  1  0  -0.634254  0  1.944865  0  0  -0.578269  0  2.17602  0  0  -0.605901  0  2.167951  0  -1.181362  0  -0.322695  -0.558815  0  2.180736  0
O  O94  1  0.93671022  0.80761219  0.44200683  1  0  -0.634182  0  1.944753  0  0  -0.578182  0  2.175881  0  0  -0.605813  0  2.16781  0  -1.181326  0  -0.322673  -0.558728  0  2.180597  0
O  O95  1  0.43672078  0.69238633  0.05799386  1  0  -0.634189  0  1.944855  0  0  -0.578197  0  2.175968  0  0  -0.605825  0  2.1679  0  -1.181258  0  -0.322708  -0.558747  0  2.180686  0
O  O96  1  0.15252006  0.09985340  0.39185397  1  0  -0.630829  0  1.971254  0  0  -0.563584  0  2.216278  0  0  -0.593948  0  2.206407  0  -1.151814  0  -0.325701  -0.542363  0  2.222239  0
O  O97  1  0.65252100  0.40014667  0.10815031  1  0  -0.630898  0  1.971253  0  0  -0.563654  0  2.216288  0  0  -0.59402  0  2.206418  0  -1.151864  0  -0.325752  -0.542431  0  2.222245  0
O  O98  1  0.84747543  0.90014673  0.60814912  1  0  -0.6309  0  1.971256  0  0  -0.563648  0  2.216277  0  0  -0.594013  0  2.206408  0  -1.151813  0  -0.325742  -0.542426  0  2.222238  0
O  O99  1  0.34748344  0.59985683  0.89184969  1  0  -0.630845  0  1.971257  0  0  -0.563601  0  2.21626  0  0  -0.593967  0  2.206391  0  -1.151838  0  -0.325679  -0.542378  0  2.222216  0
O  O100  1  0.87768488  0.16829767  0.19091816  1  0  -0.624931  0  1.93069  0  0  -0.567056  0  2.159498  0  0  -0.595378  0  2.151834  0  -1.170375  0  -0.325062  -0.547218  0  2.163969  0
O  O101  1  0.37767115  0.33169903  0.30908295  1  0  -0.624929  0  1.93073  0  0  -0.56704  0  2.159529  0  0  -0.595362  0  2.151864  0  -1.170404  0  -0.32507  -0.547204  0  2.164001  0
O  O102  1  0.12232212  0.83169910  0.80908097  1  0  -0.624955  0  1.930734  0  0  -0.567094  0  2.159564  0  0  -0.595417  0  2.1519  0  -1.170423  0  -0.325117  -0.547254  0  2.164035  0
O  O103  1  0.62232434  0.66830110  0.69091857  1  0  -0.624916  0  1.930688  0  0  -0.567061  0  2.159526  0  0  -0.595383  0  2.151863  0  -1.170417  0  -0.325109  -0.547224  0  2.163993  0
O  O104  1  0.75098009  0.02705442  0.24290694  1  0  -0.644491  0  1.94675  0  0  -0.579211  0  2.18406  0  0  -0.610007  0  2.175515  0  -1.154824  0  -0.335665  -0.557568  0  2.188943  0
O  O105  1  0.25098810  0.47294984  0.25709290  1  0  -0.644489  0  1.94672  0  0  -0.579187  0  2.183992  0  0  -0.609993  0  2.175465  0  -1.154866  0  -0.335636  -0.557546  0  2.188878  0
O  O106  1  0.24899622  0.97295243  0.75709076  1  0  -0.644525  0  1.94673  0  0  -0.579234  0  2.184015  0  0  -0.610037  0  2.175484  0  -1.154908  0  -0.335688  -0.557593  0  2.188902  0
O  O107  1  0.74901761  0.52705449  0.74290887  1  0  -0.644448  0  1.946718  0  0  -0.57915  0  2.183996  0  0  -0.609954  0  2.175469  0  -1.154833  0  -0.33562  -0.55751  0  2.188877  0
