# generated using pymatgen
data_ScH6(C2O)6
_symmetry_space_group_name_H-M   'P 1'
_cell_length_a   8.85370620
_cell_length_b   11.35934755
_cell_length_c   17.84612609
_cell_angle_alpha   84.45464935
_cell_angle_beta   75.63090858
_cell_angle_gamma   67.06402269
_symmetry_Int_Tables_number   1
_chemical_formula_structural   ScH6(C2O)6
_chemical_formula_sum   'Sc4 H24 C48 O24'
_cell_volume   1601.22072888
_cell_formula_units_Z   4
loop_
 _symmetry_equiv_pos_site_id
 _symmetry_equiv_pos_as_xyz
  1  'x, y, z'
loop_
 _atom_site_type_symbol
 _atom_site_label
 _atom_site_symmetry_multiplicity
 _atom_site_fract_x
 _atom_site_fract_y
 _atom_site_fract_z
 _atom_site_occupancy
 _atom_site_hle17_bader_spin_density
 _atom_site_hle17_ddec_charge
 _atom_site_hle17_ddec_spin_density
 _atom_site_hle17_ddec_sum_bond_order
 _atom_site_hle17_magmom
 _atom_site_hse06_10hf_bader_spin_density
 _atom_site_hse06_10hf_ddec_charge
 _atom_site_hse06_10hf_ddec_spin_density
 _atom_site_hse06_10hf_ddec_sum_bond_order
 _atom_site_hse06_10hf_magmom
 _atom_site_hse06_bader_spin_density
 _atom_site_hse06_ddec_charge
 _atom_site_hse06_ddec_spin_density
 _atom_site_hse06_ddec_sum_bond_order
 _atom_site_hse06_magmom
 _atom_site_pbe_bader_spin_density
 _atom_site_pbe_cm5_charge
 _atom_site_pbe_ddec_charge
 _atom_site_pbe_ddec_spin_density
 _atom_site_pbe_ddec_sum_bond_order
 _atom_site_pbe_magmom
Sc  Sc0  1  0.86379854  0.24996123  0.77234757  1  0  2.042235  0  1.681066  0  0  1.932175  0  2.136141  0  0  2.051271  0  2.011663  0  0  1.265326  1.847386  0  2.219286  0
Sc  Sc1  1  0.38612118  0.24994999  0.72762476  1  0  2.040287  0  1.682895  0  0  1.930804  0  2.136977  0  0  2.049657  0  2.012973  0  0  1.264844  1.845668  0  2.220859  0
Sc  Sc2  1  0.13620149  0.75003845  0.22765186  1  0  2.04214  0  1.681287  0  0  1.93206  0  2.136393  0  0  2.05116  0  2.011895  0  0  1.265274  1.847296  0  2.219483  0
Sc  Sc3  1  0.61388027  0.75004778  0.27237537  1  0  2.040277  0  1.682851  0  0  1.93082  0  2.136876  0  0  2.049673  0  2.012875  0  0  1.264869  1.845666  0  2.220786  0
H  H4  1  0.75549281  0.05116875  0.98322057  1  0  0.112483  0  0.92834  0  0  0.122979  0  0.982847  0  0  0.126965  0  0.980226  0  0  0.113962  0.120101  0  0.984781  0
H  H5  1  0.28993240  0.44884514  0.51668960  1  0  0.11202  0  0.930286  0  0  0.122789  0  0.984269  0  0  0.126741  0  0.981694  0  0  0.113967  0.119963  0  0.986155  0
H  H6  1  0.69338910  0.05108778  0.51671744  1  0  0.112754  0  0.928448  0  0  0.123338  0  0.982714  0  0  0.127294  0  0.980117  0  0  0.114128  0.120499  0  0.984637  0
H  H7  1  0.76122210  0.44884599  0.98333023  1  0  0.112565  0  0.92933  0  0  0.12295  0  0.983713  0  0  0.127025  0  0.980997  0  0  0.113823  0.120052  0  0.985683  0
H  H8  1  0.24450594  0.94882901  0.01678109  1  0  0.112453  0  0.92836  0  0  0.122947  0  0.982876  0  0  0.126933  0  0.980254  0  0  0.113943  0.12007  0  0.98481  0
H  H9  1  0.71006919  0.55115645  0.48331081  1  0  0.112026  0  0.930269  0  0  0.122794  0  0.984256  0  0  0.126746  0  0.981681  0  0  0.113983  0.119968  0  0.986142  0
H  H10  1  0.30660932  0.94891381  0.48328381  1  0  0.112724  0  0.928532  0  0  0.123303  0  0.982795  0  0  0.12726  0  0.980196  0  0  0.114099  0.120464  0  0.984718  0
H  H11  1  0.23877802  0.55115465  0.01666864  1  0  0.112547  0  0.929386  0  0  0.122977  0  0.983721  0  0  0.127054  0  0.981003  0  0  0.11383  0.120078  0  0.985695  0
H  H12  1  0.33074311  0.07020034  0.90002720  1  0  0.106766  0  0.943851  0  0  0.115851  0  1.002798  0  0  0.118991  0  1.001429  0  0  0.111202  0.113537  0  1.003929  0
H  H13  1  0.80100252  0.42981094  0.60006017  1  0  0.10771  0  0.943668  0  0  0.116289  0  1.002997  0  0  0.119516  0  1.001531  0  0  0.111379  0.113927  0  1.004192  0
H  H14  1  0.09892077  0.07023331  0.60004610  1  0  0.107241  0  0.943806  0  0  0.116136  0  1.002823  0  0  0.119343  0  1.00136  0  0  0.111513  0.113782  0  1.004006  0
H  H15  1  0.26919707  0.42980457  0.89992005  1  0  0.106603  0  0.94459  0  0  0.115723  0  1.003447  0  0  0.118868  0  1.002085  0  0  0.111339  0.113405  0  1.004587  0
H  H16  1  0.66925412  0.92979934  0.09997503  1  0  0.10677  0  0.943797  0  0  0.115848  0  1.00276  0  0  0.118988  0  1.001389  0  0  0.111186  0.113535  0  1.00389  0
H  H17  1  0.19899756  0.57019161  0.39994011  1  0  0.107796  0  0.943678  0  0  0.116388  0  1.002963  0  0  0.119617  0  1.001496  0  0  0.111426  0.114003  0  1.004187  0
H  H18  1  0.90107914  0.92976828  0.39995600  1  0  0.107244  0  0.943875  0  0  0.116178  0  1.002837  0  0  0.119386  0  1.001372  0  0  0.111526  0.11382  0  1.004022  0
H  H19  1  0.73080565  0.57019607  0.10007854  1  0  0.106635  0  0.944565  0  0  0.115749  0  1.003426  0  0  0.118895  0  1.002064  0  0  0.11135  0.113431  0  1.004567  0
H  H20  1  0.07120080  0.86999876  0.75214285  1  0  0.109575  0  0.931813  0  0  0.119588  0  0.987085  0  0  0.123357  0  0.984924  0  0  0.112168  0.116701  0  0.988897  0
H  H21  1  0.19338419  0.62989704  0.74784344  1  0  0.109216  0  0.931379  0  0  0.119377  0  0.986594  0  0  0.12307  0  0.984517  0  0  0.11215  0.11634  0  0.988646  0
H  H22  1  0.55865980  0.86994146  0.74787278  1  0  0.109843  0  0.930506  0  0  0.119596  0  0.986157  0  0  0.123294  0  0.98408  0  0  0.112333  0.116564  0  0.9882  0
H  H23  1  0.67650954  0.62985947  0.75219482  1  0  0.109746  0  0.931673  0  0  0.119948  0  0.986908  0  0  0.123617  0  0.984857  0  0  0.112339  0.117117  0  0.988656  0
H  H24  1  0.92879756  0.13000092  0.24785826  1  0  0.109632  0  0.931777  0  0  0.119614  0  0.987075  0  0  0.123383  0  0.984915  0  0  0.112177  0.116729  0  0.988888  0
H  H25  1  0.80661463  0.37010264  0.25215838  1  0  0.109213  0  0.931377  0  0  0.119379  0  0.986591  0  0  0.123073  0  0.984513  0  0  0.112152  0.116344  0  0.988641  0
H  H26  1  0.44133811  0.13005726  0.25212692  1  0  0.109885  0  0.930406  0  0  0.119636  0  0.986061  0  0  0.123334  0  0.983984  0  0  0.112374  0.116603  0  0.988104  0
H  H27  1  0.32348621  0.37014021  0.24780656  1  0  0.109732  0  0.931707  0  0  0.119947  0  0.98693  0  0  0.123613  0  0.984881  0  0  0.112354  0.117117  0  0.988678  0
C  C28  1  0.59924041  0.13905440  0.86537694  1  0  0.732046  0  3.834634  0  0  0.691516  0  4.117977  0  0  0.731616  0  4.105876  0  0  0.25459  0.66384  0  4.125613  0
C  C29  1  0.10372266  0.36095666  0.63459766  1  0  0.732463  0  3.832406  0  0  0.69226  0  4.114896  0  0  0.732347  0  4.102755  0  0  0.255375  0.66457  0  4.122684  0
C  C30  1  0.76157855  0.13902084  0.63461922  1  0  0.731144  0  3.836493  0  0  0.690224  0  4.120497  0  0  0.730336  0  4.108401  0  0  0.254651  0.66253  0  4.128224  0
C  C31  1  0.03524341  0.36093409  0.86539188  1  0  0.730695  0  3.835173  0  0  0.689313  0  4.119142  0  0  0.729428  0  4.107034  0  0  0.253585  0.661626  0  4.126798  0
C  C32  1  0.40076087  0.86094241  0.13462501  1  0  0.732107  0  3.834426  0  0  0.691395  0  4.11799  0  0  0.731494  0  4.105894  0  0  0.254583  0.663716  0  4.125629  0
C  C33  1  0.89627482  0.63904589  0.36540288  1  0  0.732273  0  3.832449  0  0  0.692073  0  4.114927  0  0  0.732165  0  4.102771  0  0  0.255312  0.664383  0  4.122714  0
C  C34  1  0.23842230  0.86097980  0.36538358  1  0  0.731003  0  3.836828  0  0  0.690115  0  4.12084  0  0  0.730227  0  4.108746  0  0  0.25462  0.662419  0  4.128568  0
C  C35  1  0.96475102  0.63906750  0.13460754  1  0  0.730833  0  3.835208  0  0  0.689316  0  4.119303  0  0  0.729442  0  4.107188  0  0  0.25358  0.661615  0  4.126964  0
C  C36  1  0.54797275  0.06739693  0.93507127  1  0  -0.06601  0  3.745011  0  0  -0.046266  0  3.975493  0  0  -0.05383  0  3.996974  0  0  -0.009843  -0.041246  0  3.960953  0
C  C37  1  0.05046104  0.43264922  0.56492724  1  0  -0.064104  0  3.743966  0  0  -0.044709  0  3.974535  0  0  -0.052155  0  3.995899  0  0  -0.010248  -0.039744  0  3.960161  0
C  C38  1  0.88457127  0.06735274  0.56495196  1  0  -0.062367  0  3.742518  0  0  -0.043191  0  3.973634  0  0  -0.050643  0  3.994989  0  0  -0.009601  -0.038211  0  3.95924  0
C  C39  1  0.01687006  0.43262446  0.93506456  1  0  -0.065825  0  3.743939  0  0  -0.044739  0  3.972799  0  0  -0.052242  0  3.99422  0  0  -0.009203  -0.039779  0  3.95835  0
C  C40  1  0.45202291  0.93260179  0.06493067  1  0  -0.066085  0  3.745068  0  0  -0.046184  0  3.975421  0  0  -0.053749  0  3.996902  0  0  -0.009845  -0.041165  0  3.960884  0
C  C41  1  0.94954006  0.56735333  0.43507318  1  0  -0.064005  0  3.743956  0  0  -0.044611  0  3.974515  0  0  -0.052046  0  3.995861  0  0  -0.010225  -0.039647  0  3.960135  0
C  C42  1  0.11542400  0.93264790  0.43504942  1  0  -0.062174  0  3.742396  0  0  -0.043103  0  3.973622  0  0  -0.050557  0  3.994977  0  0  -0.009553  -0.038124  0  3.959227  0
C  C43  1  0.98313213  0.56737427  0.06493319  1  0  -0.065853  0  3.744079  0  0  -0.0446  0  3.972791  0  0  -0.052126  0  3.994243  0  0  -0.009183  -0.039598  0  3.958287  0
C  C44  1  0.64399244  0.02824544  0.99123672  1  0  -0.062613  0  3.728507  0  0  -0.086019  0  3.975675  0  0  -0.086852  0  3.995641  0  0  -0.0752  -0.085254  0  3.961901  0
C  C45  1  0.16349577  0.47176782  0.50870643  1  0  -0.064099  0  3.730353  0  0  -0.087646  0  3.97761  0  0  -0.088501  0  3.997549  0  0  -0.075702  -0.086934  0  3.963893  0
C  C46  1  0.82780619  0.02817448  0.50873940  1  0  -0.065831  0  3.728069  0  0  -0.089048  0  3.975509  0  0  -0.089912  0  3.995464  0  0  -0.076199  -0.088335  0  3.961788  0
C  C47  1  0.86474225  0.47176566  0.99130958  1  0  -0.06309  0  3.72841  0  0  -0.08682  0  3.975395  0  0  -0.087754  0  3.995329  0  0  -0.07532  -0.086013  0  3.96169  0
C  C48  1  0.35600591  0.97175424  0.00876439  1  0  -0.062625  0  3.728502  0  0  -0.086058  0  3.975632  0  0  -0.086887  0  3.995594  0  0  -0.075217  -0.085294  0  3.961859  0
C  C49  1  0.83650580  0.52823473  0.49129469  1  0  -0.064104  0  3.730359  0  0  -0.087651  0  3.977613  0  0  -0.08851  0  3.997549  0  0  -0.075692  -0.086941  0  3.963906  0
C  C50  1  0.17219533  0.97182520  0.49126087  1  0  -0.065844  0  3.728092  0  0  -0.089015  0  3.97553  0  0  -0.089878  0  3.995485  0  0  -0.076187  -0.088301  0  3.96181  0
C  C51  1  0.13525935  0.52823497  0.00869013  1  0  -0.063057  0  3.728489  0  0  -0.086886  0  3.975453  0  0  -0.087814  0  3.995394  0  0  -0.075309  -0.08609  0  3.961734  0
C  C52  1  0.40388689  0.03887964  0.94413551  1  0  -0.064291  0  3.725988  0  0  -0.088014  0  3.976821  0  0  -0.089042  0  3.997789  0  0  -0.077004  -0.087146  0  3.962434  0
C  C53  1  0.88689601  0.46114831  0.55591935  1  0  -0.064665  0  3.72586  0  0  -0.087928  0  3.976429  0  0  -0.089081  0  3.997349  0  0  -0.076478  -0.087015  0  3.962179  0
C  C54  1  0.05716126  0.03889154  0.55591025  1  0  -0.064475  0  3.725869  0  0  -0.087841  0  3.976523  0  0  -0.088971  0  3.997455  0  0  -0.07679  -0.086931  0  3.962244  0
C  C55  1  0.15195094  0.46113252  0.94406109  1  0  -0.06405  0  3.725993  0  0  -0.088225  0  3.976542  0  0  -0.089283  0  3.997543  0  0  -0.077585  -0.087339  0  3.962169  0
C  C56  1  0.59611044  0.96112003  0.05586546  1  0  -0.06438  0  3.72606  0  0  -0.088118  0  3.976832  0  0  -0.089145  0  3.997802  0  0  -0.07707  -0.08725  0  3.962446  0
C  C57  1  0.11310462  0.53885519  0.44408107  1  0  -0.064769  0  3.725917  0  0  -0.088038  0  3.976467  0  0  -0.089196  0  3.997382  0  0  -0.076512  -0.087105  0  3.962224  0
C  C58  1  0.94283868  0.96110814  0.44409044  1  0  -0.064496  0  3.725928  0  0  -0.087856  0  3.9766  0  0  -0.088984  0  3.997528  0  0  -0.076787  -0.086941  0  3.962319  0
C  C59  1  0.84805327  0.53886716  0.05593765  1  0  -0.064056  0  3.72611  0  0  -0.088271  0  3.976588  0  0  -0.089324  0  3.997597  0  0  -0.077564  -0.087398  0  3.962202  0
C  C60  1  0.23698966  0.02603392  0.74995879  1  0  0.728808  0  3.843159  0  0  0.686998  0  4.132034  0  0  0.726991  0  4.119369  0  0  0.251585  0.659429  0  4.140221  0
C  C61  1  0.51297713  0.47383006  0.74996780  1  0  0.730098  0  3.841554  0  0  0.687584  0  4.131652  0  0  0.727586  0  4.11893  0  0  0.252032  0.660065  0  4.1398  0
C  C62  1  0.76300792  0.97396767  0.25003979  1  0  0.728896  0  3.842981  0  0  0.686961  0  4.132047  0  0  0.72697  0  4.119359  0  0  0.251571  0.659407  0  4.140215  0
C  C63  1  0.48702616  0.52616962  0.25002953  1  0  0.730223  0  3.841445  0  0  0.687751  0  4.131462  0  0  0.727752  0  4.118736  0  0  0.252089  0.660236  0  4.13961  0
C  C64  1  0.30827135  0.88327488  0.75000822  1  0  -0.0619  0  3.743067  0  0  -0.04286  0  3.974352  0  0  -0.050231  0  3.995944  0  0  -0.010488  -0.038538  0  3.960665  0
C  C65  1  0.44159935  0.61655819  0.75002409  1  0  -0.062065  0  3.74118  0  0  -0.043044  0  3.973152  0  0  -0.050377  0  3.994614  0  0  -0.01037  -0.038782  0  3.95955  0
C  C66  1  0.69173272  0.11672193  0.24999093  1  0  -0.061972  0  3.743138  0  0  -0.042892  0  3.974454  0  0  -0.050271  0  3.996041  0  0  -0.010514  -0.038576  0  3.960765  0
C  C67  1  0.55839545  0.38344244  0.24997659  1  0  -0.062113  0  3.741323  0  0  -0.043102  0  3.973295  0  0  -0.050434  0  3.994755  0  0  -0.010382  -0.038846  0  3.959695  0
C  C68  1  0.20405229  0.81636311  0.75089172  1  0  -0.066463  0  3.73297  0  0  -0.089658  0  3.981562  0  0  -0.090767  0  4.001989  0  0  -0.076982  -0.088954  0  3.96827  0
C  C69  1  0.27135192  0.68350841  0.74914911  1  0  -0.06503  0  3.729455  0  0  -0.088123  0  3.978183  0  0  -0.089169  0  3.998617  0  0  -0.076761  -0.087453  0  3.965193  0
C  C70  1  0.47939527  0.81633219  0.74917027  1  0  -0.066094  0  3.730523  0  0  -0.088957  0  3.979356  0  0  -0.090011  0  3.999789  0  0  -0.077257  -0.0883  0  3.966365  0
C  C71  1  0.54492073  0.68348347  0.75092036  1  0  -0.066372  0  3.732275  0  0  -0.089672  0  3.980978  0  0  -0.090701  0  4.001395  0  0  -0.077121  -0.089001  0  3.967666  0
C  C72  1  0.79594657  0.18363370  0.24910798  1  0  -0.066502  0  3.73302  0  0  -0.089665  0  3.981613  0  0  -0.09077  0  4.002037  0  0  -0.076978  -0.088963  0  3.968321  0
C  C73  1  0.72864643  0.31649127  0.25085200  1  0  -0.065001  0  3.729432  0  0  -0.088108  0  3.978166  0  0  -0.089156  0  3.998601  0  0  -0.07674  -0.087435  0  3.965174  0
C  C74  1  0.52060635  0.18366749  0.25082874  1  0  -0.066083  0  3.730348  0  0  -0.088942  0  3.979185  0  0  -0.089995  0  3.999617  0  0  -0.07725  -0.088283  0  3.966191  0
C  C75  1  0.45507770  0.31651717  0.24908019  1  0  -0.066369  0  3.732416  0  0  -0.089685  0  3.981139  0  0  -0.090713  0  4.001555  0  0  -0.077142  -0.089014  0  3.967825  0
O  O76  1  0.72630678  0.16816272  0.86067065  1  0  -0.691362  0  1.985812  0  0  -0.648675  0  2.232217  0  0  -0.685853  0  2.216538  0  0  -0.36033  -0.622474  0  2.242247  0
O  O77  1  0.25520200  0.33181660  0.63929425  1  0  -0.69155  0  1.986194  0  0  -0.648942  0  2.232137  0  0  -0.686073  0  2.216399  0  0  -0.360074  -0.622607  0  2.242165  0
O  O78  1  0.60541937  0.16816348  0.63928570  1  0  -0.691232  0  1.986453  0  0  -0.64829  0  2.23265  0  0  -0.685435  0  2.216979  0  0  -0.360217  -0.62195  0  2.242624  0
O  O79  1  0.91291545  0.33177141  0.86070933  1  0  -0.691132  0  1.986059  0  0  -0.648047  0  2.23235  0  0  -0.685232  0  2.216663  0  0  -0.360363  -0.621843  0  2.242393  0
O  O80  1  0.27368908  0.83183601  0.13932877  1  0  -0.691308  0  1.985591  0  0  -0.648579  0  2.232087  0  0  -0.685756  0  2.216411  0  0  -0.360317  -0.622379  0  2.242115  0
O  O81  1  0.74480425  0.66818403  0.36070547  1  0  -0.691473  0  1.986428  0  0  -0.648859  0  2.232351  0  0  -0.685991  0  2.21661  0  0  -0.360041  -0.62252  0  2.242377  0
O  O82  1  0.39457798  0.83183525  0.36071456  1  0  -0.691228  0  1.986716  0  0  -0.648288  0  2.232898  0  0  -0.685432  0  2.217227  0  0  -0.360215  -0.621945  0  2.242874  0
O  O83  1  0.08708385  0.66823400  0.13928912  1  0  -0.691236  0  1.98603  0  0  -0.648089  0  2.232359  0  0  -0.68528  0  2.216668  0  0  -0.360365  -0.621888  0  2.242409  0
O  O84  1  0.51362350  0.16695717  0.81400997  1  0  -0.744963  0  2.0935  0  0  -0.701877  0  2.361114  0  0  -0.742563  0  2.347897  0  0  -0.37721  -0.672693  0  2.369217  0
O  O85  1  0.99463161  0.33305512  0.68598460  1  0  -0.745947  0  2.091764  0  0  -0.702758  0  2.35928  0  0  -0.743543  0  2.346096  0  0  -0.378146  -0.673866  0  2.367479  0
O  O86  1  0.81922974  0.16690853  0.68601940  1  0  -0.745305  0  2.09518  0  0  -0.701731  0  2.362831  0  0  -0.742509  0  2.349656  0  0  -0.377589  -0.672836  0  2.370999  0
O  O87  1  0.17223706  0.33304405  0.81399702  1  0  -0.743706  0  2.093194  0  0  -0.700412  0  2.361051  0  0  -0.741132  0  2.347905  0  0  -0.376136  -0.671194  0  2.369098  0
O  O88  1  0.48637481  0.83303869  0.18598959  1  0  -0.744932  0  2.093573  0  0  -0.701799  0  2.361257  0  0  -0.742486  0  2.348042  0  0  -0.37719  -0.672614  0  2.369365  0
O  O89  1  0.00537576  0.66694551  0.31401400  1  0  -0.745858  0  2.091592  0  0  -0.70267  0  2.359103  0  0  -0.743462  0  2.345918  0  0  -0.378125  -0.673775  0  2.367292  0
O  O90  1  0.18076807  0.83309019  0.31398156  1  0  -0.745246  0  2.09514  0  0  -0.701666  0  2.362767  0  0  -0.74245  0  2.349594  0  0  -0.377563  -0.672776  0  2.370935  0
O  O91  1  0.82776511  0.66695563  0.18600143  1  0  -0.743694  0  2.09337  0  0  -0.700384  0  2.361282  0  0  -0.741104  0  2.34813  0  0  -0.376105  -0.671165  0  2.369341  0
O  O92  1  0.07809272  0.08258272  0.77228525  1  0  -0.72059  0  2.036088  0  0  -0.678808  0  2.29559  0  0  -0.717244  0  2.280375  0  0  -0.368775  -0.651402  0  2.305143  0
O  O93  1  0.43289630  0.41739627  0.72758713  1  0  -0.719221  0  2.037069  0  0  -0.677173  0  2.29643  0  0  -0.71549  0  2.281209  0  0  -0.36794  -0.649942  0  2.30628  0
O  O94  1  0.33947651  0.08245878  0.72760784  1  0  -0.718654  0  2.036837  0  0  -0.676852  0  2.295843  0  0  -0.715172  0  2.280666  0  0  -0.367974  -0.649605  0  2.305694  0
O  O95  1  0.64950632  0.41727967  0.77231180  1  0  -0.721315  0  2.035188  0  0  -0.679156  0  2.294898  0  0  -0.717594  0  2.279637  0  0  -0.369433  -0.651761  0  2.304447  0
O  O96  1  0.92190960  0.91741982  0.22771278  1  0  -0.720628  0  2.035956  0  0  -0.67879  0  2.295506  0  0  -0.717232  0  2.280284  0  0  -0.368777  -0.651391  0  2.305052  0
O  O97  1  0.56710094  0.58260341  0.27240808  1  0  -0.719284  0  2.037086  0  0  -0.677249  0  2.296419  0  0  -0.715564  0  2.281197  0  0  -0.367996  -0.650018  0  2.306272  0
O  O98  1  0.66053593  0.91753803  0.27238992  1  0  -0.718662  0  2.036844  0  0  -0.676841  0  2.295927  0  0  -0.715164  0  2.28074  0  0  -0.367977  -0.649598  0  2.305775  0
O  O99  1  0.35049225  0.58271810  0.22768537  1  0  -0.721346  0  2.035042  0  0  -0.679209  0  2.294733  0  0  -0.717643  0  2.279468  0  0  -0.369429  -0.651816  0  2.304281  0
