# generated using pymatgen
data_AgH9C10(NO)2
_symmetry_space_group_name_H-M   'P 1'
_cell_length_a   9.07120419
_cell_length_b   10.44732199
_cell_length_c   11.00659902
_cell_angle_alpha   90.00000756
_cell_angle_beta   112.32340048
_cell_angle_gamma   90.00006844
_symmetry_Int_Tables_number   1
_chemical_formula_structural   AgH9C10(NO)2
_chemical_formula_sum   'Ag4 H36 C40 N8 O8'
_cell_volume   964.91812825
_cell_formula_units_Z   4
loop_
 _symmetry_equiv_pos_site_id
 _symmetry_equiv_pos_as_xyz
  1  'x, y, z'
loop_
 _atom_site_type_symbol
 _atom_site_label
 _atom_site_symmetry_multiplicity
 _atom_site_fract_x
 _atom_site_fract_y
 _atom_site_fract_z
 _atom_site_occupancy
 _atom_site_hle17_bader_spin_density
 _atom_site_hle17_ddec_charge
 _atom_site_hle17_ddec_spin_density
 _atom_site_hle17_ddec_sum_bond_order
 _atom_site_hle17_magmom
 _atom_site_hse06_10hf_bader_spin_density
 _atom_site_hse06_10hf_ddec_charge
 _atom_site_hse06_10hf_ddec_spin_density
 _atom_site_hse06_10hf_ddec_sum_bond_order
 _atom_site_hse06_10hf_magmom
 _atom_site_hse06_bader_spin_density
 _atom_site_hse06_ddec_charge
 _atom_site_hse06_ddec_spin_density
 _atom_site_hse06_ddec_sum_bond_order
 _atom_site_hse06_magmom
 _atom_site_pbe_bader_spin_density
 _atom_site_pbe_cm5_charge
 _atom_site_pbe_ddec_charge
 _atom_site_pbe_ddec_spin_density
 _atom_site_pbe_ddec_sum_bond_order
 _atom_site_pbe_magmom
Ag  Ag0  1  0.65855938  0.61779794  0.57426254  1  0  0.468835  0  1.48275  0  0  0.31538  0  1.921891  0  0  0.346867  0  1.880365  0  0  0.47181  0.295039  0  1.947438  0
Ag  Ag1  1  0.65856125  0.88220155  0.07426308  1  0  0.468838  0  1.48274  0  0  0.315375  0  1.921887  0  0  0.346862  0  1.880359  0  0  0.471806  0.295033  0  1.947433  0
Ag  Ag2  1  0.34143677  0.38220055  0.42573285  1  0  0.46886  0  1.482809  0  0  0.3154  0  1.921957  0  0  0.346899  0  1.880414  0  0  0.471816  0.295062  0  1.947503  0
Ag  Ag3  1  0.34143729  0.11779885  0.92573306  1  0  0.468839  0  1.482823  0  0  0.315379  0  1.921984  0  0  0.346877  0  1.880435  0  0  0.471817  0.295043  0  1.947531  0
H  H4  1  0.90627240  0.42236043  0.74179943  1  0  0.086959  0  0.957139  0  0  0.093841  0  1.024175  0  0  0.096939  0  1.02082  0  0  0.111966  0.0915  0  1.026717  0
H  H5  1  0.90627496  0.07763952  0.24180014  1  0  0.086989  0  0.957166  0  0  0.093861  0  1.024207  0  0  0.096956  0  1.020854  0  0  0.112002  0.091518  0  1.02675  0
H  H6  1  0.09371423  0.57763518  0.25819664  1  0  0.087017  0  0.957123  0  0  0.093867  0  1.02419  0  0  0.096965  0  1.020833  0  0  0.111987  0.09152  0  1.026731  0
H  H7  1  0.09371525  0.92236470  0.75819704  1  0  0.087037  0  0.957119  0  0  0.093885  0  1.024187  0  0  0.096983  0  1.020831  0  0  0.111994  0.091538  0  1.02673  0
H  H8  1  0.07915973  0.25273567  0.70985302  1  0  0.119774  0  0.964254  0  0  0.127958  0  1.032493  0  0  0.13248  0  1.029431  0  0  0.103104  0.124698  0  1.034688  0
H  H9  1  0.07916138  0.24726342  0.20985256  1  0  0.119837  0  0.964255  0  0  0.128022  0  1.032476  0  0  0.132544  0  1.029415  0  0  0.103129  0.124761  0  1.034671  0
H  H10  1  0.92083049  0.74725803  0.29014870  1  0  0.119806  0  0.964218  0  0  0.127995  0  1.032429  0  0  0.132515  0  1.029368  0  0  0.103117  0.124737  0  1.034619  0
H  H11  1  0.92082884  0.75274176  0.79014825  1  0  0.119776  0  0.964222  0  0  0.127964  0  1.032438  0  0  0.132484  0  1.029376  0  0  0.103106  0.124705  0  1.034634  0
H  H12  1  0.86635274  0.33041146  0.29262565  1  0  0.11441  0  0.958058  0  0  0.127253  0  1.017353  0  0  0.129832  0  1.017911  0  0  0.107028  0.125453  0  1.017029  0
H  H13  1  0.86635215  0.16958655  0.79262552  1  0  0.114408  0  0.958067  0  0  0.127243  0  1.017361  0  0  0.129823  0  1.017918  0  0  0.10702  0.125438  0  1.017048  0
H  H14  1  0.13365771  0.66958511  0.70737601  1  0  0.114405  0  0.957953  0  0  0.127265  0  1.01723  0  0  0.129846  0  1.017787  0  0  0.107025  0.125459  0  1.016926  0
H  H15  1  0.13365831  0.83041481  0.20737614  1  0  0.11441  0  0.957948  0  0  0.127274  0  1.017221  0  0  0.129856  0  1.017775  0  0  0.107021  0.125465  0  1.016919  0
H  H16  1  0.70015190  0.49616486  0.34132354  1  0  0.061433  0  0.977006  0  0  0.074421  0  1.039971  0  0  0.075246  0  1.039884  0  0  0.105096  0.073682  0  1.040254  0
H  H17  1  0.70015222  0.00383490  0.84132458  1  0  0.061445  0  0.977013  0  0  0.074434  0  1.039973  0  0  0.075257  0  1.039889  0  0  0.105093  0.073692  0  1.040255  0
H  H18  1  0.29985854  0.50383458  0.65867175  1  0  0.061483  0  0.976893  0  0  0.074439  0  1.039894  0  0  0.075265  0  1.039806  0  0  0.105097  0.073704  0  1.040178  0
H  H19  1  0.29985940  0.99616550  0.15867199  1  0  0.061475  0  0.976897  0  0  0.07444  0  1.039889  0  0  0.075265  0  1.0398  0  0  0.105097  0.073704  0  1.040173  0
H  H20  1  0.59629201  0.31053827  0.10684218  1  0  0.063076  0  0.962313  0  0  0.076591  0  1.026542  0  0  0.077657  0  1.025599  0  0  0.107592  0.075978  0  1.026916  0
H  H21  1  0.59629265  0.18946134  0.60684334  1  0  0.063056  0  0.962335  0  0  0.076578  0  1.026564  0  0  0.077642  0  1.025624  0  0  0.107594  0.075965  0  1.026935  0
H  H22  1  0.40370415  0.68946117  0.89315685  1  0  0.063062  0  0.962347  0  0  0.07659  0  1.026565  0  0  0.077658  0  1.025622  0  0  0.107606  0.075978  0  1.026935  0
H  H23  1  0.40370352  0.81053905  0.39315660  1  0  0.063053  0  0.962363  0  0  0.076578  0  1.026579  0  0  0.077644  0  1.025638  0  0  0.107604  0.075964  0  1.026949  0
H  H24  1  0.76478830  0.48565692  0.07930323  1  0  0.12409  0  0.937781  0  0  0.13991  0  0.98791  0  0  0.143359  0  0.987489  0  0  0.109023  0.137534  0  0.988159  0
H  H25  1  0.76478863  0.01434383  0.57930337  1  0  0.124095  0  0.937765  0  0  0.139915  0  0.987892  0  0  0.143363  0  0.987473  0  0  0.109029  0.137538  0  0.988141  0
H  H26  1  0.23521026  0.51434156  0.92069836  1  0  0.124092  0  0.937772  0  0  0.13991  0  0.9879  0  0  0.143359  0  0.98748  0  0  0.109026  0.137538  0  0.988151  0
H  H27  1  0.23520992  0.98565849  0.42069822  1  0  0.124088  0  0.937782  0  0  0.139908  0  0.987909  0  0  0.143356  0  0.987491  0  0  0.109025  0.137532  0  0.988165  0
H  H28  1  0.55720656  0.41293869  0.66082805  1  0  0.070869  0  1.045406  0  0  0.074403  0  1.137954  0  0  0.079599  0  1.131887  0  0  0.078236  0.070808  0  1.142063  0
H  H29  1  0.55720555  0.08706185  0.16082766  1  0  0.070953  0  1.045442  0  0  0.074485  0  1.137976  0  0  0.079678  0  1.131912  0  0  0.078256  0.070888  0  1.142084  0
H  H30  1  0.44279318  0.58706362  0.33917391  1  0  0.070944  0  1.045319  0  0  0.074457  0  1.137872  0  0  0.079651  0  1.131806  0  0  0.078241  0.070862  0  1.141979  0
H  H31  1  0.44279300  0.91293759  0.83917303  1  0  0.070938  0  1.045401  0  0  0.074465  0  1.13794  0  0  0.079658  0  1.131876  0  0  0.078256  0.070869  0  1.142046  0
H  H32  1  0.39425740  0.24183161  0.70579086  1  0  0.073751  0  0.972098  0  0  0.081424  0  1.041807  0  0  0.0843  0  1.038266  0  0  0.106777  0.079023  0  1.044909  0
H  H33  1  0.39425668  0.25816781  0.20579058  1  0  0.073758  0  0.972091  0  0  0.081431  0  1.0418  0  0  0.084308  0  1.03826  0  0  0.106777  0.079028  0  1.044906  0
H  H34  1  0.60574115  0.75816975  0.29420891  1  0  0.073776  0  0.972112  0  0  0.081457  0  1.041797  0  0  0.084332  0  1.038259  0  0  0.106789  0.079055  0  1.044898  0
H  H35  1  0.60574187  0.74183067  0.79420920  1  0  0.073772  0  0.972098  0  0  0.081449  0  1.041802  0  0  0.084325  0  1.038261  0  0  0.106786  0.079045  0  1.044906  0
H  H36  1  0.14556931  0.13071495  0.55137000  1  0  0.377308  0  0.937719  0  0  0.34687  0  1.014777  0  0  0.360038  0  0.997891  0  0  0.284285  0.337471  0  1.023911  0
H  H37  1  0.14557116  0.36928515  0.05137053  1  0  0.377308  0  0.937717  0  0  0.34687  0  1.014773  0  0  0.360039  0  0.997889  0  0  0.28429  0.337474  0  1.0239  0
H  H38  1  0.85443282  0.86928066  0.44863452  1  0  0.377222  0  0.937856  0  0  0.346793  0  1.014888  0  0  0.359962  0  0.997998  0  0  0.284242  0.337398  0  1.024013  0
H  H39  1  0.85443097  0.63071908  0.94863399  1  0  0.377228  0  0.937818  0  0  0.346803  0  1.014847  0  0  0.359973  0  0.997975  0  0  0.284247  0.337406  0  1.023979  0
C  C40  1  0.89986180  0.39840883  0.64341243  1  0  0.131152  0  3.734742  0  0  0.097716  0  3.983638  0  0  0.108345  0  4.00193  0  0  0.031088  0.091163  0  3.971008  0
C  C41  1  0.89986320  0.10159015  0.14341278  1  0  0.131271  0  3.734664  0  0  0.09784  0  3.983548  0  0  0.10847  0  4.00184  0  0  0.031145  0.091293  0  3.970923  0
C  C42  1  0.10012959  0.60158869  0.35658239  1  0  0.131216  0  3.734686  0  0  0.097796  0  3.983568  0  0  0.108429  0  4.001857  0  0  0.031156  0.091257  0  3.970924  0
C  C43  1  0.10012938  0.89841025  0.85658332  1  0  0.131179  0  3.734733  0  0  0.09776  0  3.983609  0  0  0.108391  0  4.001901  0  0  0.031129  0.091219  0  3.97097  0
C  C44  1  0.99624323  0.30373486  0.62491030  1  0  -0.272577  0  3.71492  0  0  -0.285739  0  3.962052  0  0  -0.299279  0  3.982526  0  0  -0.110154  -0.276647  0  3.947846  0
C  C45  1  0.99624598  0.19626613  0.12491109  1  0  -0.272697  0  3.714927  0  0  -0.285878  0  3.962092  0  0  -0.299417  0  3.982564  0  0  -0.110199  -0.276786  0  3.947889  0
C  C46  1  0.00375176  0.69626075  0.37509200  1  0  -0.272643  0  3.715111  0  0  -0.285809  0  3.962243  0  0  -0.299347  0  3.982714  0  0  -0.110196  -0.276721  0  3.948035  0
C  C47  1  0.00375258  0.80373905  0.87509141  1  0  -0.272595  0  3.715054  0  0  -0.285765  0  3.962183  0  0  -0.299303  0  3.982656  0  0  -0.110179  -0.276677  0  3.947978  0
C  C48  1  0.98673774  0.27581190  0.49636644  1  0  0.404042  0  3.839066  0  0  0.391709  0  4.096381  0  0  0.411333  0  4.107677  0  0  0.102083  0.378794  0  4.088232  0
C  C49  1  0.98673962  0.22418722  0.99636618  1  0  0.404002  0  3.839167  0  0  0.391678  0  4.096457  0  0  0.4113  0  4.107754  0  0  0.102075  0.378757  0  4.088316  0
C  C50  1  0.01326080  0.72418563  0.50363151  1  0  0.403975  0  3.83923  0  0  0.391682  0  4.096497  0  0  0.411307  0  4.107791  0  0  0.102064  0.37875  0  4.088367  0
C  C51  1  0.01326131  0.77581318  0.00363251  1  0  0.40396  0  3.839181  0  0  0.39168  0  4.096444  0  0  0.411304  0  4.107738  0  0  0.102082  0.378753  0  4.088308  0
C  C52  1  0.87711216  0.34783891  0.39312550  1  0  -0.24094  0  3.713367  0  0  -0.257275  0  3.961589  0  0  -0.269704  0  3.982894  0  0  -0.105551  -0.249539  0  3.947706  0
C  C53  1  0.87711393  0.15216104  0.89312610  1  0  -0.240923  0  3.71335  0  0  -0.257257  0  3.961585  0  0  -0.269686  0  3.98289  0  0  -0.105539  -0.24952  0  3.947696  0
C  C54  1  0.12289591  0.65215671  0.60687451  1  0  -0.240855  0  3.7133  0  0  -0.257231  0  3.961521  0  0  -0.269661  0  3.982826  0  0  -0.105535  -0.24949  0  3.947636  0
C  C55  1  0.12289772  0.84784318  0.10687411  1  0  -0.240914  0  3.713339  0  0  -0.257287  0  3.961547  0  0  -0.269716  0  3.982849  0  0  -0.105564  -0.249546  0  3.947658  0
C  C56  1  0.78560497  0.44016300  0.42024281  1  0  0.12735  0  3.771847  0  0  0.095629  0  4.016068  0  0  0.105371  0  4.036997  0  0  0.027293  0.088978  0  4.002051  0
C  C57  1  0.78560539  0.05983590  0.92024389  1  0  0.127311  0  3.771892  0  0  0.095586  0  4.016093  0  0  0.105331  0  4.037021  0  0  0.027286  0.08894  0  4.002066  0
C  C58  1  0.21439951  0.55983931  0.57975335  1  0  0.127289  0  3.772041  0  0  0.095591  0  4.016265  0  0  0.105332  0  4.037199  0  0  0.027276  0.088935  0  4.002252  0
C  C59  1  0.21439910  0.94015971  0.07975410  1  0  0.127359  0  3.771998  0  0  0.095665  0  4.01621  0  0  0.105404  0  4.037146  0  0  0.027296  0.08901  0  4.002198  0
C  C60  1  0.59034840  0.33653248  0.00921640  1  0  0.132434  0  3.766281  0  0  0.098514  0  4.016608  0  0  0.109081  0  4.037437  0  0  0.028163  0.091767  0  4.001987  0
C  C61  1  0.59034899  0.16346711  0.50921573  1  0  0.132473  0  3.766312  0  0  0.09854  0  4.01664  0  0  0.10911  0  4.037469  0  0  0.02817  0.091792  0  4.00202  0
C  C62  1  0.40964896  0.66346600  0.99078573  1  0  0.132485  0  3.766342  0  0  0.098543  0  4.01669  0  0  0.109109  0  4.037512  0  0  0.028181  0.0918  0  4.002067  0
C  C63  1  0.40964956  0.83653424  0.49078495  1  0  0.132516  0  3.766322  0  0  0.098589  0  4.016651  0  0  0.109155  0  4.037478  0  0  0.0282  0.091847  0  4.002024  0
C  C64  1  0.68482666  0.43381782  0.99368045  1  0  -0.261472  0  3.699177  0  0  -0.277076  0  3.947994  0  0  -0.290109  0  3.968053  0  0  -0.111534  -0.26842  0  3.933901  0
C  C65  1  0.68482680  0.06618290  0.49367950  1  0  -0.261484  0  3.69918  0  0  -0.277085  0  3.948014  0  0  -0.290118  0  3.968072  0  0  -0.111558  -0.268435  0  3.933921  0
C  C66  1  0.31517309  0.56618162  0.00632151  1  0  -0.261501  0  3.699204  0  0  -0.277099  0  3.948062  0  0  -0.290134  0  3.968122  0  0  -0.111568  -0.268451  0  3.93398  0
C  C67  1  0.31517294  0.93381941  0.50632155  1  0  -0.261528  0  3.699219  0  0  -0.277122  0  3.948091  0  0  -0.290154  0  3.968152  0  0  -0.111587  -0.268472  0  3.933995  0
C  C68  1  0.67732870  0.46698707  0.86594806  1  0  0.416805  0  3.87642  0  0  0.404604  0  4.125108  0  0  0.425764  0  4.136946  0  0  0.096673  0.39025  0  4.116766  0
C  C69  1  0.67732880  0.03301266  0.36594800  1  0  0.416831  0  3.876317  0  0  0.404609  0  4.12504  0  0  0.425768  0  4.13688  0  0  0.096653  0.390263  0  4.116689  0
C  C70  1  0.32267104  0.53301428  0.13405391  1  0  0.416768  0  3.876421  0  0  0.404523  0  4.125175  0  0  0.425685  0  4.137012  0  0  0.096615  0.390163  0  4.116845  0
C  C71  1  0.32267333  0.96698678  0.63405380  1  0  0.416861  0  3.876344  0  0  0.404577  0  4.125148  0  0  0.425734  0  4.136992  0  0  0.096663  0.390238  0  4.116784  0
C  C72  1  0.56899945  0.39313267  0.76173378  1  0  -0.278437  0  3.774819  0  0  -0.287676  0  4.01968  0  0  -0.302493  0  4.040965  0  0  -0.122133  -0.277924  0  4.005779  0
C  C73  1  0.56899847  0.10686693  0.26173249  1  0  -0.278509  0  3.774903  0  0  -0.287746  0  4.019762  0  0  -0.302557  0  4.041045  0  0  -0.122099  -0.277995  0  4.005862  0
C  C74  1  0.43100029  0.60686772  0.23826727  1  0  -0.278472  0  3.774763  0  0  -0.287674  0  4.019662  0  0  -0.302492  0  4.040947  0  0  -0.12208  -0.277919  0  4.005758  0
C  C75  1  0.43100007  0.89313251  0.73826728  1  0  -0.27852  0  3.774884  0  0  -0.287724  0  4.019771  0  0  -0.302536  0  4.041056  0  0  -0.122109  -0.277975  0  4.005858  0
C  C76  1  0.47816074  0.29829014  0.78573186  1  0  0.108918  0  3.782548  0  0  0.079084  0  4.024036  0  0  0.090338  0  4.041906  0  0  0.018114  0.071671  0  4.012608  0
C  C77  1  0.47816112  0.20170938  0.28573100  1  0  0.108935  0  3.782602  0  0  0.079103  0  4.024078  0  0  0.090353  0  4.041955  0  0  0.018115  0.071689  0  4.012657  0
C  C78  1  0.52183781  0.70171121  0.21426973  1  0  0.108894  0  3.782573  0  0  0.079049  0  4.02408  0  0  0.090308  0  4.041933  0  0  0.018093  0.071638  0  4.012649  0
C  C79  1  0.52183743  0.79828911  0.71426877  1  0  0.108927  0  3.782555  0  0  0.079085  0  4.024047  0  0  0.090341  0  4.041908  0  0  0.018112  0.071677  0  4.012617  0
N  N80  1  0.79483058  0.46683588  0.54338099  1  0  -0.342707  0  3.408171  0  0  -0.24779  0  3.688641  0  0  -0.272085  0  3.708065  0  0  -0.379935  -0.231597  0  3.674468  0
N  N81  1  0.79483068  0.03316490  0.04338184  1  0  -0.342774  0  3.408269  0  0  -0.247847  0  3.688739  0  0  -0.272144  0  3.708162  0  0  -0.379987  -0.231659  0  3.674567  0
N  N82  1  0.20517272  0.53316357  0.45661845  1  0  -0.342873  0  3.408339  0  0  -0.247941  0  3.6888  0  0  -0.27224  0  3.708225  0  0  -0.380024  -0.231751  0  3.674628  0
N  N83  1  0.20517262  0.96683646  0.95661760  1  0  -0.342879  0  3.408308  0  0  -0.247956  0  3.688774  0  0  -0.272253  0  3.708198  0  0  -0.380017  -0.231764  0  3.674603  0
N  N84  1  0.48653330  0.26814559  0.90800420  1  0  -0.339265  0  3.392337  0  0  -0.245192  0  3.676147  0  0  -0.269745  0  3.69509  0  0  -0.384737  -0.228936  0  3.662424  0
N  N85  1  0.48653373  0.23185396  0.40800426  1  0  -0.339327  0  3.392384  0  0  -0.245251  0  3.67619  0  0  -0.269806  0  3.695135  0  0  -0.384769  -0.228995  0  3.662467  0
N  N86  1  0.51346286  0.73185577  0.09199392  1  0  -0.339294  0  3.392263  0  0  -0.245218  0  3.676077  0  0  -0.269763  0  3.695011  0  0  -0.384746  -0.22896  0  3.66235  0
N  N87  1  0.51346481  0.76814548  0.59199460  1  0  -0.339312  0  3.39232  0  0  -0.245242  0  3.676135  0  0  -0.269791  0  3.695073  0  0  -0.38477  -0.228991  0  3.662412  0
O  O88  1  0.07431584  0.18845411  0.46762202  1  0  -0.541463  0  2.116164  0  0  -0.489134  0  2.344553  0  0  -0.511231  0  2.330843  0  0  -0.340368  -0.47412  0  2.351235  0
O  O89  1  0.07431787  0.31154406  0.96762181  1  0  -0.541449  0  2.116197  0  0  -0.489122  0  2.344583  0  0  -0.511223  0  2.330883  0  0  -0.340392  -0.4741  0  2.351246  0
O  O90  1  0.92568510  0.81154055  0.53238213  1  0  -0.54135  0  2.116298  0  0  -0.48903  0  2.344632  0  0  -0.511131  0  2.33093  0  0  -0.340293  -0.473996  0  2.351282  0
O  O91  1  0.92568426  0.68845921  0.03238180  1  0  -0.541329  0  2.116303  0  0  -0.489024  0  2.344647  0  0  -0.511126  0  2.330959  0  0  -0.340289  -0.473989  0  2.351293  0
O  O92  1  0.76149552  0.55784198  0.84267985  1  0  -0.604325  0  2.053379  0  0  -0.535394  0  2.277952  0  0  -0.561879  0  2.268974  0  0  -0.333909  -0.516604  0  2.282948  0
O  O93  1  0.76149630  0.94215765  0.34267915  1  0  -0.604343  0  2.053353  0  0  -0.5354  0  2.277925  0  0  -0.561885  0  2.268943  0  0  -0.333902  -0.516612  0  2.282916  0
O  O94  1  0.23850542  0.44215842  0.15732430  1  0  -0.604312  0  2.053352  0  0  -0.535356  0  2.277961  0  0  -0.561841  0  2.26898  0  0  -0.333889  -0.51656  0  2.282955  0
O  O95  1  0.23850583  0.05784274  0.65732447  1  0  -0.604362  0  2.053232  0  0  -0.535389  0  2.277862  0  0  -0.561874  0  2.268882  0  0  -0.333919  -0.516603  0  2.282852  0
