# generated using pymatgen
data_AgH3C6SNClO5
_symmetry_space_group_name_H-M   'P 1'
_cell_length_a   5.13473851
_cell_length_b   15.19219822
_cell_length_c   24.05850000
_cell_angle_alpha   106.86749095
_cell_angle_beta   90.00000000
_cell_angle_gamma   90.00000000
_symmetry_Int_Tables_number   1
_chemical_formula_structural   AgH3C6SNClO5
_chemical_formula_sum   'Ag8 H24 C48 S8 N8 Cl8 O40'
_cell_volume   1796.01359273
_cell_formula_units_Z   8
loop_
 _symmetry_equiv_pos_site_id
 _symmetry_equiv_pos_as_xyz
  1  'x, y, z'
loop_
 _atom_site_type_symbol
 _atom_site_label
 _atom_site_symmetry_multiplicity
 _atom_site_fract_x
 _atom_site_fract_y
 _atom_site_fract_z
 _atom_site_occupancy
 _atom_site_hle17_bader_spin_density
 _atom_site_hle17_ddec_charge
 _atom_site_hle17_ddec_spin_density
 _atom_site_hle17_ddec_sum_bond_order
 _atom_site_hle17_magmom
 _atom_site_hse06_10hf_bader_spin_density
 _atom_site_hse06_10hf_ddec_charge
 _atom_site_hse06_10hf_ddec_spin_density
 _atom_site_hse06_10hf_ddec_sum_bond_order
 _atom_site_hse06_10hf_magmom
 _atom_site_hse06_bader_spin_density
 _atom_site_hse06_ddec_charge
 _atom_site_hse06_ddec_spin_density
 _atom_site_hse06_ddec_sum_bond_order
 _atom_site_hse06_magmom
 _atom_site_pbe_bader_charge
 _atom_site_pbe_bader_spin_density
 _atom_site_pbe_cm5_charge
 _atom_site_pbe_ddec_charge
 _atom_site_pbe_ddec_spin_density
 _atom_site_pbe_ddec_sum_bond_order
 _atom_site_pbe_magmom
Ag  Ag0  1  0.03076301  0.03358988  0.44913812  1  0  0.704607  0  1.270569  0  0  0.60566  0  1.703101  0  0  0.634496  0  1.646488  0  0.720181  0  0.437412  0.584675  0  1.743068  0
Ag  Ag1  1  0.53076315  0.96641046  0.05086223  1  0  0.704598  0  1.270562  0  0  0.605652  0  1.703096  0  0  0.634487  0  1.646482  0  0.720231  0  0.437413  0.584667  0  1.743062  0
Ag  Ag2  1  0.96923533  0.96640977  0.55086169  1  0  0.704596  0  1.270587  0  0  0.605645  0  1.703122  0  0  0.63448  0  1.64651  0  0.720223  0  0.437416  0.584658  0  1.74309  0
Ag  Ag3  1  0.46923324  0.03358919  0.94913799  1  0  0.704592  0  1.270577  0  0  0.605644  0  1.703106  0  0  0.634479  0  1.646494  0  0.720169  0  0.437414  0.584657  0  1.743073  0
Ag  Ag4  1  0.06323399  0.02040705  0.17919561  1  0  0.725338  0  1.160323  0  0  0.624919  0  1.568053  0  0  0.65329  0  1.516678  0  0.722244  0  0.442437  0.604039  0  1.604386  0
Ag  Ag5  1  0.56323219  0.97959329  0.32080433  1  0  0.72533  0  1.160337  0  0  0.624895  0  1.568087  0  0  0.653266  0  1.516712  0  0.72229  0  0.442419  0.604013  0  1.60442  0
Ag  Ag6  1  0.93676630  0.97959329  0.82080433  1  0  0.725338  0  1.160329  0  0  0.624918  0  1.568061  0  0  0.653289  0  1.516685  0  0.722249  0  0.442438  0.604036  0  1.604394  0
Ag  Ag7  1  0.43676616  0.02040636  0.67919589  1  0  0.725318  0  1.160349  0  0  0.624893  0  1.568098  0  0  0.653264  0  1.516722  0  0.722289  0  0.442424  0.604011  0  1.60443  0
H  H8  1  0.50169254  0.35577829  0.75737334  1  0  0.133575  0  0.960175  0  0  0.139664  0  1.024073  0  0  0.143524  0  1.021887  0  0.160433  0  0.110574  0.136951  0  1.025745  0
H  H9  1  0.00169239  0.64422205  0.74262701  1  0  0.133583  0  0.96016  0  0  0.139683  0  1.024034  0  0  0.143543  0  1.021847  0  0.16044  0  0.110586  0.136969  0  1.025707  0
H  H10  1  0.49830775  0.64422205  0.24262660  1  0  0.133595  0  0.960149  0  0  0.139681  0  1.024051  0  0  0.143542  0  1.021864  0  0.160435  0  0.110578  0.136967  0  1.025724  0
H  H11  1  0.99830595  0.35577829  0.25737334  1  0  0.13357  0  0.96015  0  0  0.139659  0  1.024045  0  0  0.143521  0  1.021857  0  0.160449  0  0.110557  0.136946  0  1.025717  0
H  H12  1  0.14612818  0.44954244  0.73305791  1  0  0.130813  0  0.941861  0  0  0.136011  0  1.007046  0  0  0.139812  0  1.003183  0  0.154959  0  0.119061  0.133275  0  1.009897  0
H  H13  1  0.64612833  0.55045790  0.76694245  1  0  0.130792  0  0.94182  0  0  0.135984  0  1.007012  0  0  0.139785  0  1.003148  0  0.154964  0  0.119043  0.133248  0  1.009862  0
H  H14  1  0.85387016  0.55045721  0.26694232  1  0  0.13079  0  0.941791  0  0  0.136027  0  1.00694  0  0  0.139831  0  1.003069  0  0.154955  0  0.119042  0.133287  0  1.009789  0
H  H15  1  0.35387002  0.44954244  0.23305749  1  0  0.130784  0  0.941795  0  0  0.136015  0  1.006946  0  0  0.139817  0  1.003078  0  0.154996  0  0.119054  0.133276  0  1.009795  0
H  H16  1  0.08360698  0.25586086  0.56243635  1  0  0.135133  0  0.951262  0  0  0.137825  0  1.021129  0  0  0.141951  0  1.017483  0  0.163972  0  0.116269  0.134791  0  1.023808  0
H  H17  1  0.58360713  0.74413948  0.93756401  1  0  0.13507  0  0.951316  0  0  0.137781  0  1.021175  0  0  0.141907  0  1.017529  0  0.163985  0  0.116252  0.134762  0  1.023841  0
H  H18  1  0.91639136  0.74413948  0.43756317  1  0  0.135087  0  0.951312  0  0  0.137793  0  1.021185  0  0  0.141923  0  1.017526  0  0.163988  0  0.116266  0.134779  0  1.023834  0
H  H19  1  0.41639316  0.25586017  0.06243622  1  0  0.135128  0  0.951257  0  0  0.137822  0  1.021129  0  0  0.141947  0  1.017484  0  0.163972  0  0.116271  0.134788  0  1.023807  0
H  H20  1  0.99175255  0.37803627  0.50201772  1  0  0.129596  0  0.962445  0  0  0.137342  0  1.0229  0  0  0.140874  0  1.021262  0  0.148196  0  0.110552  0.134852  0  1.024173  0
H  H21  1  0.49175240  0.62196407  0.99798222  1  0  0.129625  0  0.962427  0  0  0.137376  0  1.022878  0  0  0.140909  0  1.02124  0  0.148196  0  0.110567  0.134886  0  1.024152  0
H  H22  1  0.00824579  0.62196407  0.49798222  1  0  0.129625  0  0.962419  0  0  0.137374  0  1.022863  0  0  0.140907  0  1.021226  0  0.148205  0  0.110566  0.134884  0  1.024138  0
H  H23  1  0.50824789  0.37803627  0.00201772  1  0  0.129637  0  0.962418  0  0  0.137384  0  1.022868  0  0  0.140917  0  1.02123  0  0.148198  0  0.110569  0.134894  0  1.024142  0
H  H24  1  0.33541533  0.47082784  0.47148505  1  0  0.120404  0  0.948591  0  0  0.125569  0  1.016345  0  0  0.129388  0  1.012113  0  0.152246  0  0.117054  0.122837  0  1.019322  0
H  H25  1  0.83541352  0.52917181  0.02851518  1  0  0.120411  0  0.948609  0  0  0.125559  0  1.016373  0  0  0.129379  0  1.012139  0  0.152228  0  0.117056  0.12284  0  1.019337  0
H  H26  1  0.66458691  0.52917319  0.52851585  1  0  0.120356  0  0.948569  0  0  0.12554  0  1.016309  0  0  0.129358  0  1.012078  0  0.152275  0  0.117036  0.122821  0  1.01927  0
H  H27  1  0.16458871  0.47082715  0.97148451  1  0  0.120362  0  0.948559  0  0  0.125503  0  1.016346  0  0  0.129323  0  1.012113  0  0.152258  0  0.117039  0.122783  0  1.01931  0
H  H28  1  0.43836702  0.25373273  0.31154452  1  0  0.141671  0  0.942118  0  0  0.145394  0  1.008917  0  0  0.149736  0  1.005269  0  0.188985  0  0.11798  0.142188  0  1.011682  0
H  H29  1  0.93836716  0.74626692  0.18845530  1  0  0.141685  0  0.9421  0  0  0.145406  0  1.008902  0  0  0.149748  0  1.005255  0  0.188958  0  0.117986  0.142201  0  1.011667  0
H  H30  1  0.56163133  0.74626760  0.68845584  1  0  0.141674  0  0.942108  0  0  0.145406  0  1.008898  0  0  0.149748  0  1.005249  0  0.188937  0  0.117987  0.142201  0  1.011661  0
H  H31  1  0.06163118  0.25373273  0.81154452  1  0  0.141673  0  0.94212  0  0  0.145396  0  1.008918  0  0  0.149738  0  1.005271  0  0.188947  0  0.117973  0.14219  0  1.011684  0
C  C32  1  0.37710392  0.22547693  0.61812614  1  0  -0.164684  0  3.685138  0  0  -0.14393  0  3.935567  0  0  -0.153555  0  3.95662  0  -0.068653  0  -0.019847  -0.137923  0  3.9218  0
C  C33  1  0.87710601  0.77452272  0.88187409  1  0  -0.164689  0  3.685204  0  0  -0.143926  0  3.935649  0  0  -0.153551  0  3.956708  0  -0.06867  0  -0.019841  -0.137918  0  3.921882  0
C  C34  1  0.62289637  0.77452341  0.38187380  1  0  -0.164678  0  3.68513  0  0  -0.143932  0  3.935594  0  0  -0.153557  0  3.956652  0  -0.068666  0  -0.019855  -0.137924  0  3.921828  0
C  C35  1  0.12289623  0.22547693  0.11812614  1  0  -0.164756  0  3.685211  0  0  -0.144005  0  3.935656  0  0  -0.153627  0  3.95671  0  -0.068675  0  -0.019878  -0.137996  0  3.921886  0
C  C36  1  0.49259568  0.25364125  0.67366047  1  0  0.149889  0  3.743373  0  0  0.145841  0  4.016214  0  0  0.15276  0  4.037485  0  -0.001967  0  0.028268  0.141136  0  4.00194  0
C  C37  1  0.99259777  0.74635840  0.82634017  1  0  0.149907  0  3.743378  0  0  0.145852  0  4.016229  0  0  0.152769  0  4.037502  0  -0.001967  0  0.028287  0.141147  0  4.001956  0
C  C38  1  0.50740266  0.74635771  0.32633921  1  0  0.149901  0  3.743371  0  0  0.145871  0  4.016198  0  0  0.152793  0  4.037465  0  -0.001931  0  0.028264  0.141165  0  4.001926  0
C  C39  1  0.00740252  0.25364125  0.17366006  1  0  0.149922  0  3.743398  0  0  0.14587  0  4.016248  0  0  0.152786  0  4.037523  0  -0.001949  0  0.028263  0.141164  0  4.001977  0
C  C40  1  0.40935483  0.33425765  0.71485006  1  0  -0.110573  0  3.681309  0  0  -0.133299  0  3.939776  0  0  -0.13988  0  3.960101  0  0.035911  0  -0.086612  -0.129052  0  3.926127  0
C  C41  1  0.90935692  0.66574268  0.78515029  1  0  -0.110536  0  3.681236  0  0  -0.133264  0  3.939714  0  0  -0.139844  0  3.960039  0  0.035924  0  -0.0866  -0.129018  0  3.926066  0
C  C42  1  0.59064546  0.66574131  0.28515004  1  0  -0.110648  0  3.68138  0  0  -0.133402  0  3.939876  0  0  -0.139985  0  3.9602  0  0.035921  0  -0.086642  -0.129156  0  3.926227  0
C  C43  1  0.09064726  0.33425834  0.21484936  1  0  -0.110659  0  3.681356  0  0  -0.133396  0  3.939837  0  0  -0.139978  0  3.960163  0  0.03596  0  -0.086622  -0.12915  0  3.926188  0
C  C44  1  0.21136032  0.38686861  0.70131461  1  0  -0.039646  0  3.670312  0  0  -0.073915  0  3.936153  0  0  -0.06902  0  3.950659  0  0.035419  0  -0.064786  -0.076811  0  3.926194  0
C  C45  1  0.71135852  0.61313172  0.79868533  1  0  -0.039612  0  3.670232  0  0  -0.07387  0  3.93606  0  0  -0.068976  0  3.95057  0  0.035604  0  -0.064762  -0.076764  0  3.9261  0
C  C46  1  0.78863996  0.61313035  0.29868590  1  0  -0.039527  0  3.670295  0  0  -0.073796  0  3.936032  0  0  -0.06891  0  3.950554  0  0.0354  0  -0.064715  -0.076684  0  3.926065  0
C  C47  1  0.28864177  0.38686999  0.20131362  1  0  -0.039484  0  3.670242  0  0  -0.073752  0  3.935983  0  0  -0.068864  0  3.950503  0  0.035368  0  -0.06472  -0.076643  0  3.92602  0
C  C48  1  0.09788230  0.35767462  0.64636639  1  0  0.059338  0  3.708509  0  0  0.051362  0  3.972177  0  0  0.046593  0  3.993301  0  0.191533  0  0.075768  0.054153  0  3.958088  0
C  C49  1  0.59788244  0.64232572  0.85363354  1  0  0.059224  0  3.708594  0  0  0.051269  0  3.972259  0  0  0.0465  0  3.993385  0  0.191358  0  0.075728  0.054058  0  3.958176  0
C  C50  1  0.90211994  0.64232572  0.35363354  1  0  0.059179  0  3.708634  0  0  0.051226  0  3.972306  0  0  0.046457  0  3.993429  0  0.191536  0  0.075715  0.054015  0  3.958222  0
C  C51  1  0.40211980  0.35767393  0.14636627  1  0  0.059213  0  3.708628  0  0  0.051253  0  3.972291  0  0  0.046484  0  3.993412  0  0.191524  0  0.075732  0.054042  0  3.958203  0
C  C52  1  0.17803243  0.27801292  0.60460896  1  0  -0.049217  0  3.677432  0  0  -0.088454  0  3.933767  0  0  -0.083686  0  3.949734  0  0.075412  0  -0.066493  -0.091353  0  3.923238  0
C  C53  1  0.67803453  0.72198742  0.89539140  1  0  -0.049111  0  3.677452  0  0  -0.088391  0  3.933822  0  0  -0.083622  0  3.949787  0  0.075399  0  -0.066485  -0.091305  0  3.923286  0
C  C54  1  0.82196785  0.72198880  0.39539040  1  0  -0.049041  0  3.677369  0  0  -0.088327  0  3.933746  0  0  -0.08356  0  3.949716  0  0.075413  0  -0.066426  -0.091239  0  3.923213  0
C  C55  1  0.32196771  0.27801154  0.10460912  1  0  -0.049105  0  3.677422  0  0  -0.088357  0  3.933756  0  0  -0.083588  0  3.94972  0  0.075409  0  -0.066454  -0.091256  0  3.923229  0
C  C56  1  0.14555366  0.22956054  0.36965517  1  0  -0.155495  0  3.683738  0  0  -0.134349  0  3.931779  0  0  -0.143486  0  3.952779  0  -0.14136  0  -0.01833  -0.128724  0  3.918092  0
C  C57  1  0.64555381  0.77043911  0.13034506  1  0  -0.155552  0  3.683746  0  0  -0.134389  0  3.931788  0  0  -0.143526  0  3.952789  0  -0.141553  0  -0.018328  -0.128764  0  3.918099  0
C  C58  1  0.85444663  0.77044049  0.63034572  1  0  -0.155487  0  3.683679  0  0  -0.134336  0  3.931715  0  0  -0.143471  0  3.952711  0  -0.141565  0  -0.018281  -0.128711  0  3.918027  0
C  C59  1  0.35444648  0.22955985  0.86965504  1  0  -0.155437  0  3.683673  0  0  -0.134288  0  3.931723  0  0  -0.143423  0  3.952725  0  -0.141581  0  -0.018295  -0.128664  0  3.918035  0
C  C60  1  0.02113253  0.26528473  0.42372080  1  0  0.15202  0  3.73451  0  0  0.149271  0  4.00377  0  0  0.155984  0  4.024971  0  0.06961  0  0.028534  0.144702  0  3.98952  0
C  C61  1  0.52113267  0.73471491  0.07627985  1  0  0.152111  0  3.734406  0  0  0.149329  0  4.003717  0  0  0.156041  0  4.024922  0  0.069552  0  0.028553  0.144761  0  3.989467  0
C  C62  1  0.97886971  0.73471560  0.57627997  1  0  0.15194  0  3.734383  0  0  0.149202  0  4.003627  0  0  0.155911  0  4.024833  0  0.069592  0  0.028491  0.144634  0  3.989379  0
C  C63  1  0.47886957  0.26528405  0.92372067  1  0  0.151993  0  3.734488  0  0  0.149233  0  4.003764  0  0  0.155941  0  4.024973  0  0.069568  0  0.028501  0.144665  0  3.989514  0
C  C64  1  0.08998316  0.35183155  0.46037819  1  0  -0.111108  0  3.693681  0  0  -0.131921  0  3.946966  0  0  -0.138243  0  3.967469  0  0.033938  0  -0.086606  -0.12784  0  3.933149  0
C  C65  1  0.58998331  0.64816878  0.03962175  1  0  -0.111145  0  3.693631  0  0  -0.131964  0  3.946921  0  0  -0.138285  0  3.967423  0  0.033961  0  -0.086619  -0.127883  0  3.933106  0
C  C66  1  0.91001908  0.64816947  0.53962229  1  0  -0.111062  0  3.693587  0  0  -0.131877  0  3.946855  0  0  -0.138198  0  3.967358  0  0.033954  0  -0.086599  -0.127798  0  3.933043  0
C  C67  1  0.41002088  0.35183086  0.96037765  1  0  -0.111167  0  3.693608  0  0  -0.131982  0  3.946892  0  0  -0.138302  0  3.967395  0  0.033964  0  -0.086628  -0.127902  0  3.93308  0
C  C68  1  0.28230844  0.40314734  0.44365803  1  0  -0.042767  0  3.680233  0  0  -0.075073  0  3.944731  0  0  -0.070653  0  3.959611  0  -0.026755  0  -0.065982  -0.077687  0  3.934535  0
C  C69  1  0.78230663  0.59685231  0.05634136  1  0  -0.042787  0  3.680127  0  0  -0.075059  0  3.944619  0  0  -0.070638  0  3.959495  0  -0.02675  0  -0.065977  -0.077682  0  3.934418  0
C  C70  1  0.71769575  0.59685368  0.55634245  1  0  -0.042791  0  3.680162  0  0  -0.075091  0  3.944669  0  0  -0.070666  0  3.959551  0  -0.026757  0  -0.065969  -0.077714  0  3.934468  0
C  C71  1  0.21769560  0.40314665  0.94365749  1  0  -0.042743  0  3.680196  0  0  -0.075036  0  3.944695  0  0  -0.070616  0  3.95957  0  -0.026752  0  -0.065986  -0.077659  0  3.934493  0
C  C72  1  0.40365834  0.36690452  0.39005062  1  0  0.07007  0  3.715804  0  0  0.05145  0  3.976914  0  0  0.047027  0  3.99818  0  0.243141  0  0.075373  0.054055  0  3.962653  0
C  C73  1  0.90365848  0.63309512  0.10994919  1  0  0.070059  0  3.71569  0  0  0.051426  0  3.976814  0  0  0.047005  0  3.99808  0  0.243187  0  0.075345  0.054031  0  3.962556  0
C  C74  1  0.59634390  0.63309581  0.60994974  1  0  0.0701  0  3.715804  0  0  0.051443  0  3.976976  0  0  0.047007  0  3.998263  0  0.243155  0  0.075339  0.054048  0  3.962718  0
C  C75  1  0.09634376  0.36690452  0.89005062  1  0  0.070115  0  3.715871  0  0  0.051538  0  3.976921  0  0  0.047123  0  3.998178  0  0.243154  0  0.0754  0.054141  0  3.962663  0
C  C76  1  0.33782441  0.28113564  0.35271526  1  0  -0.059779  0  3.679115  0  0  -0.098847  0  3.938634  0  0  -0.094785  0  3.955091  0  0.051161  0  -0.067347  -0.101337  0  3.927687  0
C  C77  1  0.83782455  0.71886401  0.14728455  1  0  -0.059772  0  3.679111  0  0  -0.098844  0  3.938642  0  0  -0.09478  0  3.955091  0  0.051169  0  -0.067345  -0.101335  0  3.927692  0
C  C78  1  0.66217393  0.71886401  0.64728455  1  0  -0.059803  0  3.679137  0  0  -0.098862  0  3.938661  0  0  -0.094799  0  3.95513  0  0.051167  0  -0.067365  -0.101351  0  3.927711  0
C  C79  1  0.16217379  0.28113632  0.85271580  1  0  -0.059854  0  3.679187  0  0  -0.098932  0  3.938697  0  0  -0.094874  0  3.955157  0  0.05117  0  -0.067377  -0.101425  0  3.927758  0
S  S80  1  0.46367308  0.12155499  0.56398751  1  0  1.327186  0  5.584745  0  0  1.230912  0  6.082687  0  0  1.280285  0  6.063361  0  3.128494  0  0.510687  1.196748  0  6.094783  0
S  S81  1  0.96367322  0.87844535  0.93601284  1  0  1.327071  0  5.584893  0  0  1.230793  0  6.082835  0  0  1.280167  0  6.063512  0  3.128404  0  0.510626  1.19663  0  6.09493  0
S  S82  1  0.53632721  0.87844535  0.43601284  1  0  1.327181  0  5.584849  0  0  1.230903  0  6.082779  0  0  1.280279  0  6.063454  0  3.128492  0  0.510708  1.196738  0  6.094876  0
S  S83  1  0.03632707  0.12155499  0.06398709  1  0  1.327162  0  5.584784  0  0  1.230885  0  6.082722  0  0  1.280259  0  6.063399  0  3.128414  0  0.510682  1.196722  0  6.094819  0
S  S84  1  0.06968028  0.11861110  0.32181127  1  0  1.29862  0  5.642873  0  0  1.203352  0  6.142524  0  0  1.252296  0  6.123103  0  3.169673  0  0.498977  1.169599  0  6.154522  0
S  S85  1  0.56968042  0.88138923  0.17818867  1  0  1.298666  0  5.642742  0  0  1.203396  0  6.142389  0  0  1.252339  0  6.122968  0  3.169881  0  0.49898  1.169642  0  6.154386  0
S  S86  1  0.93031807  0.88138854  0.67818854  1  0  1.298677  0  5.64279  0  0  1.203403  0  6.142435  0  0  1.252348  0  6.123011  0  3.169813  0  0.498995  1.169648  0  6.154435  0
S  S87  1  0.43031987  0.11861110  0.82181085  1  0  1.298689  0  5.642775  0  0  1.203418  0  6.142425  0  0  1.252362  0  6.123004  0  3.169911  0  0.498987  1.169664  0  6.154423  0
N  N88  1  0.88391064  0.41097822  0.63234019  1  0  0.507423  0  3.911238  0  0  0.528666  0  4.22084  0  0  0.550744  0  4.227992  0  0.368278  0  0.05455  0.513898  0  4.216066  0
N  N89  1  0.38391049  0.58902212  0.86765975  1  0  0.507408  0  3.911204  0  0  0.528648  0  4.220809  0  0  0.550726  0  4.227958  0  0.368284  0  0.054522  0.513879  0  4.216038  0
N  N90  1  0.11608965  0.58902281  0.36765946  1  0  0.507415  0  3.911238  0  0  0.528652  0  4.220837  0  0  0.55073  0  4.227989  0  0.368251  0  0.054525  0.513883  0  4.216067  0
N  N91  1  0.61608980  0.41097822  0.13234061  1  0  0.507478  0  3.911123  0  0  0.528707  0  4.220735  0  0  0.550787  0  4.227883  0  0.368268  0  0.054545  0.513939  0  4.215964  0
N  N92  1  0.61103988  0.41932358  0.37272873  1  0  0.475396  0  3.960408  0  0  0.531212  0  4.222787  0  0  0.553399  0  4.229448  0  0.368853  0  0.056246  0.516343  0  4.218327  0
N  N93  1  0.11103973  0.58067538  0.12727095  1  0  0.475371  0  3.960498  0  0  0.531174  0  4.222911  0  0  0.553362  0  4.22957  0  0.368848  0  0.056207  0.516304  0  4.218451  0
N  N94  1  0.38896041  0.58067606  0.62727066  1  0  0.475362  0  3.960484  0  0  0.531167  0  4.222914  0  0  0.553358  0  4.229574  0  0.368842  0  0.056205  0.516298  0  4.218453  0
N  N95  1  0.88895861  0.41932427  0.87272927  1  0  0.475443  0  3.96041  0  0  0.531248  0  4.222803  0  0  0.553437  0  4.229458  0  0.368866  0  0.056227  0.516379  0  4.218344  0
Cl  Cl96  1  0.73507930  0.19071087  0.69385304  1  0  -0.010834  0  1.487473  0  0  0.015024  0  1.756279  0  0  0.009949  0  1.747745  0  -0.151343  0  0.063946  0.019021  0  1.762199  0
Cl  Cl97  1  0.23508305  0.80928947  0.80614731  1  0  -0.010852  0  1.487428  0  0  0.015006  0  1.756236  0  0  0.009933  0  1.747701  0  -0.151351  0  0.063937  0.019004  0  1.762157  0
Cl  Cl98  1  0.26491709  0.80929016  0.30614702  1  0  -0.010848  0  1.48746  0  0  0.015013  0  1.756257  0  0  0.009938  0  1.747721  0  -0.151367  0  0.063946  0.01901  0  1.762177  0
Cl  Cl99  1  0.76491724  0.19071018  0.19385250  1  0  -0.010829  0  1.487465  0  0  0.015028  0  1.756277  0  0  0.009955  0  1.747742  0  -0.151351  0  0.063953  0.019025  0  1.762197  0
Cl  Cl100  1  0.78086547  0.20574395  0.44759863  1  0  -0.009329  0  1.508173  0  0  0.013931  0  1.782409  0  0  0.0089  0  1.773752  0  -0.152545  0  0.062998  0.01777  0  1.788432  0
Cl  Cl101  1  0.28086532  0.79425570  0.05240160  1  0  -0.009356  0  1.508125  0  0  0.013919  0  1.782376  0  0  0.008888  0  1.77372  0  -0.15253  0  0.062995  0.017758  0  1.788402  0
Cl  Cl102  1  0.21913482  0.79425708  0.55240143  1  0  -0.009334  0  1.508179  0  0  0.013934  0  1.782397  0  0  0.008904  0  1.773742  0  -0.152564  0  0.063  0.017772  0  1.788423  0
Cl  Cl103  1  0.71913496  0.20574326  0.94759850  1  0  -0.009326  0  1.508201  0  0  0.01395  0  1.782426  0  0  0.008922  0  1.773772  0  -0.152567  0  0.063014  0.01779  0  1.788449  0
O  O104  1  0.33660526  0.12716626  0.51048897  1  0  -0.654678  0  2.07713  0  0  -0.589529  0  2.35668  0  0  -0.614789  0  2.340903  0  -1.300916  0  -0.337707  -0.571509  0  2.36686  0
O  O105  1  0.83660735  0.87283408  0.98951097  1  0  -0.654587  0  2.077165  0  0  -0.589443  0  2.356728  0  0  -0.614702  0  2.340949  0  -1.300924  0  -0.337678  -0.571424  0  2.36691  0
O  O106  1  0.66339308  0.87283339  0.48951084  1  0  -0.654605  0  2.077137  0  0  -0.589444  0  2.356681  0  0  -0.614708  0  2.340909  0  -1.300919  0  -0.337673  -0.571425  0  2.366864  0
O  O107  1  0.16339294  0.12716626  0.01048897  1  0  -0.654619  0  2.077168  0  0  -0.589458  0  2.356699  0  0  -0.614725  0  2.340936  0  -1.300922  0  -0.337683  -0.571438  0  2.366878  0
O  O108  1  0.35527418  0.04617499  0.58537675  1  0  -0.715082  0  2.163097  0  0  -0.6446  0  2.481425  0  0  -0.671203  0  2.458994  0  -1.286898  0  -0.350835  -0.625549  0  2.496301  0
O  O109  1  0.85527627  0.95382465  0.91462347  1  0  -0.715086  0  2.163095  0  0  -0.6446  0  2.481413  0  0  -0.671203  0  2.458984  0  -1.286772  0  -0.350849  -0.625549  0  2.496287  0
O  O110  1  0.64472611  0.95382534  0.41462360  1  0  -0.715183  0  2.163203  0  0  -0.644693  0  2.481526  0  0  -0.671296  0  2.459095  0  -1.286903  0  -0.350894  -0.625642  0  2.496402  0
O  O111  1  0.14472402  0.04617499  0.08537675  1  0  -0.715119  0  2.163082  0  0  -0.644634  0  2.481404  0  0  -0.671239  0  2.458975  0  -1.286771  0  -0.350858  -0.625584  0  2.496279  0
O  O112  1  0.74834580  0.11842677  0.56044324  1  0  -0.678513  0  2.089223  0  0  -0.626383  0  2.380795  0  0  -0.651615  0  2.365691  0  -1.260734  0  -0.333247  -0.608413  0  2.390604  0
O  O113  1  0.24834371  0.88157357  0.93955669  1  0  -0.678492  0  2.089289  0  0  -0.626362  0  2.380872  0  0  -0.651593  0  2.365768  0  -1.260726  0  -0.333212  -0.608394  0  2.390685  0
O  O114  1  0.25165449  0.88157288  0.43955657  1  0  -0.678515  0  2.089261  0  0  -0.626388  0  2.380846  0  0  -0.65162  0  2.365739  0  -1.260734  0  -0.333241  -0.608419  0  2.390658  0
O  O115  1  0.75165463  0.11842677  0.06044324  1  0  -0.678513  0  2.089247  0  0  -0.626392  0  2.380842  0  0  -0.651615  0  2.36572  0  -1.260737  0  -0.333242  -0.608423  0  2.390652  0
O  O116  1  0.80671878  0.47960103  0.67077443  1  0  -0.361473  0  1.792009  0  0  -0.342564  0  2.016602  0  0  -0.356085  0  2.014704  0  -0.472472  0  -0.12263  -0.333518  0  2.018025  0
O  O117  1  0.30671864  0.52039931  0.82922592  1  0  -0.361455  0  1.792016  0  0  -0.342533  0  2.01661  0  0  -0.356052  0  2.014711  0  -0.472455  0  -0.122609  -0.333488  0  2.018034  0
O  O118  1  0.19327956  0.52039931  0.32922551  1  0  -0.36144  0  1.791995  0  0  -0.342535  0  2.016614  0  0  -0.356054  0  2.014715  0  -0.47248  0  -0.122605  -0.333489  0  2.018035  0
O  O119  1  0.69327970  0.47960034  0.17077472  1  0  -0.361471  0  1.791977  0  0  -0.342564  0  2.016591  0  0  -0.356085  0  2.014693  0  -0.472463  0  -0.122608  -0.333518  0  2.018012  0
O  O120  1  0.78783174  0.38436906  0.58282973  1  0  -0.365547  0  1.773923  0  0  -0.348623  0  1.993087  0  0  -0.360824  0  1.989766  0  -0.482225  0  -0.130509  -0.340522  0  1.995434  0
O  O121  1  0.28783160  0.61563196  0.91717074  1  0  -0.365531  0  1.773825  0  0  -0.34863  0  1.993007  0  0  -0.360836  0  1.989695  0  -0.482239  0  -0.130504  -0.34052  0  1.995342  0
O  O122  1  0.21216660  0.61563059  0.41717008  1  0  -0.365561  0  1.77387  0  0  -0.348652  0  1.993042  0  0  -0.360851  0  1.989716  0  -0.482206  0  -0.130526  -0.340551  0  1.99539  0
O  O123  1  0.71216674  0.38436906  0.08282973  1  0  -0.365595  0  1.773835  0  0  -0.348683  0  1.993014  0  0  -0.360885  0  1.989695  0  -0.482213  0  -0.130541  -0.340579  0  1.995358  0
O  O124  1  0.22790644  0.11052642  0.26969129  1  0  -0.654597  0  2.064678  0  0  -0.59266  0  2.344675  0  0  -0.616901  0  2.327857  0  -1.300228  0  -0.33517  -0.575354  0  2.355594  0
O  O125  1  0.72790659  0.88947323  0.23030852  1  0  -0.654605  0  2.064613  0  0  -0.592659  0  2.344603  0  0  -0.616901  0  2.327785  0  -1.300224  0  -0.335164  -0.575353  0  2.355522  0
O  O126  1  0.77209190  0.88947323  0.73030852  1  0  -0.654587  0  2.064674  0  0  -0.59265  0  2.344681  0  0  -0.616891  0  2.327862  0  -1.300195  0  -0.335155  -0.575343  0  2.355599  0
O  O127  1  0.27209175  0.11052711  0.76969141  1  0  -0.654636  0  2.06465  0  0  -0.592698  0  2.344646  0  0  -0.616939  0  2.327827  0  -1.300239  0  -0.33519  -0.575391  0  2.355564  0
O  O128  1  0.78797976  0.11724509  0.31216180  1  0  -0.663078  0  2.078652  0  0  -0.611327  0  2.364282  0  0  -0.636295  0  2.350022  0  -1.293845  0  -0.33522  -0.593495  0  2.373397  0
O  O129  1  0.28797961  0.88275525  0.18783855  1  0  -0.663055  0  2.078544  0  0  -0.611315  0  2.364184  0  0  -0.636282  0  2.349924  0  -1.293837  0  -0.33522  -0.593487  0  2.373309  0
O  O130  1  0.21201859  0.88275525  0.68783855  1  0  -0.663064  0  2.078542  0  0  -0.611324  0  2.364187  0  0  -0.636291  0  2.349926  0  -1.29382  0  -0.335229  -0.593494  0  2.373305  0
O  O131  1  0.71201873  0.11724509  0.81216180  1  0  -0.663077  0  2.078646  0  0  -0.611335  0  2.364293  0  0  -0.636304  0  2.350034  0  -1.29383  0  -0.335208  -0.5935  0  2.373401  0
O  O132  1  0.15152476  0.05139283  0.35286563  1  0  -0.715508  0  2.136597  0  0  -0.648404  0  2.447361  0  0  -0.674265  0  2.425359  0  -1.2938  0  -0.352342  -0.629827  0  2.46182  0
O  O133  1  0.65152490  0.94860682  0.14713419  1  0  -0.715548  0  2.136628  0  0  -0.648441  0  2.44738  0  0  -0.674302  0  2.425377  0  -1.293807  0  -0.352352  -0.629867  0  2.461848  0
O  O134  1  0.84847359  0.94860682  0.64713419  1  0  -0.715516  0  2.136568  0  0  -0.648414  0  2.447341  0  0  -0.674275  0  2.425337  0  -1.293801  0  -0.352342  -0.629837  0  2.461802  0
O  O135  1  0.34847344  0.05139351  0.85286575  1  0  -0.715528  0  2.136577  0  0  -0.648422  0  2.447334  0  0  -0.674282  0  2.425331  0  -1.293786  0  -0.352327  -0.629849  0  2.461805  0
O  O136  1  0.70536601  0.48547849  0.41054244  1  0  -0.34938  0  1.786471  0  0  -0.344919  0  1.992907  0  0  -0.358605  0  1.991472  0  -0.47144  0  -0.126651  -0.335808  0  1.994044  0
O  O137  1  0.20536586  0.51452185  0.08945749  1  0  -0.349379  0  1.786539  0  0  -0.344892  0  1.99296  0  0  -0.358584  0  1.991528  0  -0.47145  0  -0.126627  -0.335784  0  1.9941  0
O  O138  1  0.29463623  0.51452254  0.58945762  1  0  -0.349368  0  1.786544  0  0  -0.344901  0  1.992989  0  0  -0.358585  0  1.991549  0  -0.471408  0  -0.126621  -0.335792  0  1.994126  0
O  O139  1  0.79463638  0.48547849  0.91054328  1  0  -0.349428  0  1.786481  0  0  -0.344951  0  1.99291  0  0  -0.358646  0  1.991481  0  -0.471462  0  -0.126646  -0.335841  0  1.994049  0
O  O140  1  0.68248071  0.39417881  0.32120714  1  0  -0.349771  0  1.790693  0  0  -0.344586  0  1.997485  0  0  -0.357097  0  1.994034  0  -0.477533  0  -0.126368  -0.336289  0  2.000016  0
O  O141  1  0.18247862  0.60582015  0.17879296  1  0  -0.349774  0  1.790745  0  0  -0.344577  0  1.997522  0  0  -0.35709  0  1.994072  0  -0.477535  0  -0.126357  -0.336278  0  2.000053  0
O  O142  1  0.31751763  0.60582084  0.67879267  1  0  -0.349736  0  1.790688  0  0  -0.344551  0  1.997485  0  0  -0.357063  0  1.994033  0  -0.477529  0  -0.126348  -0.336252  0  2.000015  0
O  O143  1  0.81751777  0.39417949  0.82120769  1  0  -0.349758  0  1.790726  0  0  -0.344591  0  1.99753  0  0  -0.357103  0  1.994076  0  -0.477515  0  -0.12635  -0.336291  0  2.000061  0
