# generated using pymatgen
data_CdH10(C4O3)2
_symmetry_space_group_name_H-M   'P 1'
_cell_length_a   4.95175484
_cell_length_b   6.81544432
_cell_length_c   15.84138590
_cell_angle_alpha   86.23548896
_cell_angle_beta   80.23944588
_cell_angle_gamma   68.21282502
_symmetry_Int_Tables_number   1
_chemical_formula_structural   CdH10(C4O3)2
_chemical_formula_sum   'Cd2 H20 C16 O12'
_cell_volume   489.24486112
_cell_formula_units_Z   2
loop_
 _symmetry_equiv_pos_site_id
 _symmetry_equiv_pos_as_xyz
  1  'x, y, z'
loop_
 _atom_site_type_symbol
 _atom_site_label
 _atom_site_symmetry_multiplicity
 _atom_site_fract_x
 _atom_site_fract_y
 _atom_site_fract_z
 _atom_site_occupancy
 _atom_site_hle17_bader_spin_density
 _atom_site_hle17_ddec_charge
 _atom_site_hle17_ddec_spin_density
 _atom_site_hle17_ddec_sum_bond_order
 _atom_site_hle17_magmom
 _atom_site_hse06_10hf_bader_spin_density
 _atom_site_hse06_10hf_ddec_charge
 _atom_site_hse06_10hf_ddec_spin_density
 _atom_site_hse06_10hf_ddec_sum_bond_order
 _atom_site_hse06_10hf_magmom
 _atom_site_hse06_bader_spin_density
 _atom_site_hse06_ddec_charge
 _atom_site_hse06_ddec_spin_density
 _atom_site_hse06_ddec_sum_bond_order
 _atom_site_hse06_magmom
 _atom_site_pbe_bader_spin_density
 _atom_site_pbe_cm5_charge
 _atom_site_pbe_ddec_charge
 _atom_site_pbe_ddec_spin_density
 _atom_site_pbe_ddec_sum_bond_order
 _atom_site_pbe_magmom
Cd  Cd0  1  0.64802168  0.72381923  0.75016579  1  0  1.253421  0  1.575518  0  0  1.078835  0  2.016985  0  0  1.136525  0  1.956364  0  0  0.775675  1.037268  0  2.058902  0
Cd  Cd1  1  0.35197094  0.27619134  0.24983518  1  0  1.253518  0  1.575334  0  0  1.078965  0  2.016772  0  0  1.13665  0  1.956153  0  0  0.775702  1.037406  0  2.058708  0
H  H2  1  0.53317561  0.71842976  0.42865015  1  0  0.092351  0  0.982133  0  0  0.108677  0  1.054439  0  0  0.108554  0  1.055446  0  0  0.081199  0.108691  0  1.053746  0
H  H3  1  0.74363853  0.72484919  0.07068465  1  0  0.095878  0  0.978864  0  0  0.111602  0  1.051424  0  0  0.111955  0  1.051857  0  0  0.081276  0.111273  0  1.051132  0
H  H4  1  0.46684927  0.28152550  0.57134750  1  0  0.092354  0  0.98207  0  0  0.108656  0  1.054389  0  0  0.108533  0  1.055401  0  0  0.081218  0.108667  0  1.053694  0
H  H5  1  0.25630562  0.27518358  0.92932372  1  0  0.095779  0  0.979063  0  0  0.111538  0  1.051595  0  0  0.111865  0  1.052052  0  0  0.081225  0.111208  0  1.051297  0
H  H6  1  0.33709038  0.87259859  0.52105957  1  0  0.108574  0  0.964643  0  0  0.131211  0  1.023686  0  0  0.132302  0  1.023604  0  0  0.08969  0.130323  0  1.023862  0
H  H7  1  0.78309416  0.85779425  0.97164742  1  0  0.107823  0  0.966515  0  0  0.130331  0  1.025842  0  0  0.131228  0  1.025896  0  0  0.089175  0.129594  0  1.0259  0
H  H8  1  0.66297996  0.12740073  0.47893300  1  0  0.108482  0  0.964833  0  0  0.131127  0  1.023849  0  0  0.13224  0  1.023756  0  0  0.089711  0.130228  0  1.024031  0
H  H9  1  0.21687126  0.14221323  0.02835617  1  0  0.107824  0  0.966296  0  0  0.130344  0  1.025635  0  0  0.131241  0  1.02569  0  0  0.089185  0.129601  0  1.02571  0
H  H10  1  0.20384850  0.93199776  0.42208649  1  0  0.104217  0  0.985162  0  0  0.123705  0  1.049871  0  0  0.124684  0  1.049657  0  0  0.086059  0.122976  0  1.050055  0
H  H11  1  0.85360613  0.94223515  0.06592098  1  0  0.107077  0  0.985593  0  0  0.128559  0  1.04726  0  0  0.129276  0  1.047592  0  0  0.087289  0.127974  0  1.047136  0
H  H12  1  0.79622158  0.06797314  0.57791120  1  0  0.104186  0  0.985067  0  0  0.123726  0  1.049671  0  0  0.124712  0  1.049448  0  0  0.086047  0.122997  0  1.049853  0
H  H13  1  0.14638289  0.05779123  0.93407535  1  0  0.10716  0  0.985743  0  0  0.128657  0  1.047348  0  0  0.129374  0  1.047678  0  0  0.087328  0.12807  0  1.047222  0
H  H14  1  0.95452297  0.89736250  0.84217128  1  0  0.428734  0  0.878958  0  0  0.393055  0  0.950953  0  0  0.405144  0  0.933318  0  0  0.291054  0.384512  0  0.963392  0
H  H15  1  0.17086407  0.88466170  0.65459189  1  0  0.429629  0  0.879339  0  0  0.392676  0  0.953275  0  0  0.40478  0  0.935667  0  0  0.29118  0.384106  0  0.965722  0
H  H16  1  0.04546725  0.10262916  0.15782521  1  0  0.428711  0  0.878985  0  0  0.393056  0  0.950936  0  0  0.405143  0  0.933305  0  0  0.291031  0.384515  0  0.963375  0
H  H17  1  0.82917503  0.11530928  0.34541040  1  0  0.429669  0  0.879251  0  0  0.392714  0  0.953187  0  0  0.404818  0  0.935582  0  0  0.291192  0.384147  0  0.96563  0
H  H18  1  0.74254207  0.11061064  0.80313354  1  0  0.435762  0  0.812527  0  0  0.416681  0  0.868585  0  0  0.425141  0  0.859039  0  0  0.322252  0.410596  0  0.875517  0
H  H19  1  0.16391340  0.10078085  0.69039594  1  0  0.43396  0  0.816947  0  0  0.414352  0  0.87395  0  0  0.422837  0  0.86443  0  0  0.320925  0.408261  0  0.880826  0
H  H20  1  0.25744161  0.88938577  0.19686377  1  0  0.435852  0  0.812448  0  0  0.416767  0  0.868521  0  0  0.425227  0  0.858971  0  0  0.322267  0.410686  0  0.875453  0
H  H21  1  0.83608400  0.89919495  0.30961324  1  0  0.433828  0  0.817165  0  0  0.41428  0  0.874035  0  0  0.422755  0  0.864536  0  0  0.32092  0.408196  0  0.880904  0
C  C22  1  0.31314120  0.80259100  0.46395763  1  0  -0.284629  0  3.737488  0  0  -0.368052  0  3.983204  0  0  -0.36671  0  3.995259  0  0  -0.253965  -0.368569  0  3.97486  0
C  C23  1  0.87733216  0.80262549  0.03038221  1  0  -0.290638  0  3.739162  0  0  -0.375062  0  3.984735  0  0  -0.373788  0  3.996692  0  0  -0.255279  -0.375517  0  3.976462  0
C  C24  1  0.68689379  0.19741315  0.53603836  1  0  -0.284632  0  3.737484  0  0  -0.367962  0  3.983106  0  0  -0.366652  0  3.995148  0  0  -0.254009  -0.368465  0  3.97477  0
C  C25  1  0.12262242  0.19738837  0.96961288  1  0  -0.290652  0  3.739348  0  0  -0.37515  0  3.984969  0  0  -0.373849  0  3.996941  0  0  -0.255339  -0.37562  0  3.97672  0
C  C26  1  0.14550629  0.52963051  0.41811534  1  0  0.292997  0  3.777164  0  0  0.273795  0  4.041455  0  0  0.296926  0  4.04711  0  0  0.119403  0.258331  0  4.03707  0
C  C27  1  0.31493976  0.52564603  0.08026724  1  0  0.296088  0  3.775742  0  0  0.277027  0  4.039596  0  0  0.300076  0  4.045631  0  0  0.120644  0.261674  0  4.034847  0
C  C28  1  0.85448460  0.47034692  0.58188715  1  0  0.292781  0  3.777336  0  0  0.273613  0  4.041699  0  0  0.296785  0  4.047307  0  0  0.119254  0.258138  0  4.03732  0
C  C29  1  0.68495946  0.47441215  0.91973189  1  0  0.29543  0  3.777658  0  0  0.276485  0  4.041219  0  0  0.299476  0  4.047313  0  0  0.120487  0.26115  0  4.036457  0
C  C30  1  0.14919995  0.65561983  0.48504009  1  0  -0.131295  0  3.787276  0  0  -0.119377  0  4.048471  0  0  -0.139034  0  4.078865  0  0  -0.054994  -0.106266  0  4.027779  0
C  C31  1  0.19179516  0.65493064  0.01249959  1  0  -0.130387  0  3.786904  0  0  -0.118201  0  4.047579  0  0  -0.137727  0  4.077876  0  0  -0.054425  -0.10526  0  4.026967  0
C  C32  1  0.85082836  0.34438118  0.51495756  1  0  -0.13114  0  3.787322  0  0  -0.119315  0  4.048487  0  0  -0.138988  0  4.078875  0  0  -0.05496  -0.106201  0  4.027797  0
C  C33  1  0.80816406  0.34508800  0.98748128  1  0  -0.130006  0  3.78664  0  0  -0.117779  0  4.047259  0  0  -0.137289  0  4.07758  0  0  -0.054192  -0.104842  0  4.026639  0
C  C34  1  0.00677930  0.63156612  0.56665271  1  0  0.277606  0  3.792463  0  0  0.252474  0  4.058073  0  0  0.272251  0  4.068662  0  0  0.110195  0.238989  0  4.050586  0
C  C35  1  0.36779888  0.63463191  0.93249857  1  0  0.274721  0  3.79507  0  0  0.249433  0  4.061958  0  0  0.269195  0  4.072483  0  0  0.109297  0.236013  0  4.054442  0
C  C36  1  0.99326583  0.36844587  0.43334641  1  0  0.277544  0  3.79374  0  0  0.252558  0  4.059143  0  0  0.272355  0  4.069719  0  0  0.110199  0.23907  0  4.051664  0
C  C37  1  0.63222700  0.36534230  0.06749352  1  0  0.274618  0  3.793972  0  0  0.249251  0  4.061075  0  0  0.268976  0  4.07165  0  0  0.109322  0.235836  0  4.053543  0
O  O38  1  0.99626210  0.73508883  0.63326980  1  0  -0.58346  0  2.133778  0  0  -0.505366  0  2.370504  0  0  -0.535837  0  2.365073  0  0  -0.301198  -0.484006  0  2.373641  0
O  O39  1  0.28055205  0.74234770  0.86556923  1  0  -0.583595  0  2.128697  0  0  -0.507228  0  2.366659  0  0  -0.537723  0  2.361069  0  0  -0.301351  -0.485845  0  2.369883  0
O  O40  1  0.00376744  0.26490735  0.36674622  1  0  -0.583431  0  2.134403  0  0  -0.505383  0  2.371049  0  0  -0.53584  0  2.365605  0  0  -0.301136  -0.484028  0  2.374194  0
O  O41  1  0.71941237  0.25765346  0.13443582  1  0  -0.5836  0  2.128944  0  0  -0.507221  0  2.366953  0  0  -0.5377  0  2.361392  0  0  -0.301368  -0.48583  0  2.370173  0
O  O42  1  0.26783474  0.54861622  0.34205681  1  0  -0.531936  0  2.001867  0  0  -0.471789  0  2.237588  0  0  -0.495405  0  2.228657  0  0  -0.301471  -0.455206  0  2.243155  0
O  O43  1  0.16385634  0.53984319  0.15477345  1  0  -0.528514  0  2.009404  0  0  -0.467254  0  2.244954  0  0  -0.49116  0  2.236243  0  0  -0.300135  -0.45046  0  2.250281  0
O  O44  1  0.73217096  0.45139585  0.65795109  1  0  -0.531826  0  2.002331  0  0  -0.471634  0  2.23799  0  0  -0.495279  0  2.229043  0  0  -0.301344  -0.455049  0  2.24355  0
O  O45  1  0.83612787  0.46017839  0.84523964  1  0  -0.528219  0  2.009916  0  0  -0.467001  0  2.245395  0  0  -0.4909  0  2.236704  0  0  -0.300086  -0.450216  0  2.25071  0
O  O46  1  0.75956231  0.96797244  0.82159975  1  0  -0.836263  0  1.845238  0  0  -0.774638  0  2.042075  0  0  -0.796167  0  2.011144  0  0  -0.575552  -0.759432  0  2.063616  0
O  O47  1  0.29361529  0.95741674  0.67365938  1  0  -0.83803  0  1.848365  0  0  -0.775512  0  2.048405  0  0  -0.797367  0  2.01774  0  0  -0.577011  -0.76009  0  2.069807  0
O  O48  1  0.24041311  0.03203187  0.17840028  1  0  -0.836332  0  1.845159  0  0  -0.774748  0  2.04202  0  0  -0.796277  0  2.011087  0  0  -0.57554  -0.759536  0  2.06356  0
O  O49  1  0.70641951  0.04255587  0.32633360  1  0  -0.837992  0  1.84847  0  0  -0.775479  0  2.04847  0  0  -0.797328  0  2.017809  0  0  -0.577048  -0.760059  0  2.069873  0
