# generated using pymatgen
data_AgH4C5(NO2)2
_symmetry_space_group_name_H-M   'P 1'
_cell_length_a   7.99891747
_cell_length_b   8.52275671
_cell_length_c   11.32312434
_cell_angle_alpha   73.48153796
_cell_angle_beta   83.13352385
_cell_angle_gamma   70.46417049
_symmetry_Int_Tables_number   1
_chemical_formula_structural   AgH4C5(NO2)2
_chemical_formula_sum   'Ag4 H16 C20 N8 O16'
_cell_volume   697.21048692
_cell_formula_units_Z   4
loop_
 _symmetry_equiv_pos_site_id
 _symmetry_equiv_pos_as_xyz
  1  'x, y, z'
loop_
 _atom_site_type_symbol
 _atom_site_label
 _atom_site_symmetry_multiplicity
 _atom_site_fract_x
 _atom_site_fract_y
 _atom_site_fract_z
 _atom_site_occupancy
 _atom_site_hle17_bader_spin_density
 _atom_site_hle17_ddec_charge
 _atom_site_hle17_ddec_spin_density
 _atom_site_hle17_ddec_sum_bond_order
 _atom_site_hle17_magmom
 _atom_site_hse06_10hf_bader_spin_density
 _atom_site_hse06_10hf_ddec_charge
 _atom_site_hse06_10hf_ddec_spin_density
 _atom_site_hse06_10hf_ddec_sum_bond_order
 _atom_site_hse06_10hf_magmom
 _atom_site_hse06_bader_spin_density
 _atom_site_hse06_ddec_charge
 _atom_site_hse06_ddec_spin_density
 _atom_site_hse06_ddec_sum_bond_order
 _atom_site_hse06_magmom
 _atom_site_pbe_bader_spin_density
 _atom_site_pbe_cm5_charge
 _atom_site_pbe_ddec_charge
 _atom_site_pbe_ddec_spin_density
 _atom_site_pbe_ddec_sum_bond_order
 _atom_site_pbe_magmom
Ag  Ag0  1  0.07424547  0.29043092  0.33384959  1  0  0.610363  0  1.237051  0  0  0.467906  0  1.659925  0  0  0.501957  0  1.610575  0  0  0.454937  0.443868  0  1.69474  0
Ag  Ag1  1  0.92575150  0.70956798  0.66615035  1  0  0.610358  0  1.237065  0  0  0.467893  0  1.659939  0  0  0.501941  0  1.610586  0  0  0.454935  0.443857  0  1.694754  0
Ag  Ag2  1  0.53447338  0.80911062  0.46570721  1  0  0.616259  0  1.241042  0  0  0.483864  0  1.663184  0  0  0.517352  0  1.612736  0  0  0.44638  0.459875  0  1.698627  0
Ag  Ag3  1  0.46552906  0.19089081  0.53429079  1  0  0.616263  0  1.241063  0  0  0.483877  0  1.663181  0  0  0.517367  0  1.612733  0  0  0.446391  0.45989  0  1.698626  0
H  H4  1  0.24578647  0.50959369  0.99356285  1  0  0.102876  0  0.963894  0  0  0.110699  0  1.026067  0  0  0.112544  0  1.024783  0  0  0.125173  0.109271  0  1.027119  0
H  H5  1  0.75421808  0.49040133  0.00644079  1  0  0.102894  0  0.963867  0  0  0.11072  0  1.026037  0  0  0.112562  0  1.024763  0  0  0.125182  0.109293  0  1.027087  0
H  H6  1  0.05869774  0.84544811  0.86846351  1  0  0.133883  0  0.972022  0  0  0.138319  0  1.037436  0  0  0.14193  0  1.035762  0  0  0.108343  0.135662  0  1.038872  0
H  H7  1  0.94130930  0.15454688  0.13153726  1  0  0.13387  0  0.972043  0  0  0.138292  0  1.037473  0  0  0.141901  0  1.035802  0  0  0.108339  0.135638  0  1.038909  0
H  H8  1  0.79767986  0.95455175  0.03534386  1  0  0.137559  0  0.946001  0  0  0.148314  0  1.001408  0  0  0.151049  0  1.000063  0  0  0.114847  0.146247  0  1.002599  0
H  H9  1  0.20232467  0.04544711  0.96465539  1  0  0.137525  0  0.946031  0  0  0.148276  0  1.001443  0  0  0.15101  0  1.0001  0  0  0.114842  0.146209  0  1.002634  0
H  H10  1  0.71456850  0.79030112  0.27540183  1  0  0.083529  0  1.003022  0  0  0.090335  0  1.0801  0  0  0.093476  0  1.073982  0  0  0.111633  0.0881  0  1.084249  0
H  H11  1  0.28542891  0.20970035  0.72459751  1  0  0.08355  0  1.003012  0  0  0.09036  0  1.080078  0  0  0.093501  0  1.073959  0  0  0.111644  0.088123  0  1.084231  0
H  H12  1  0.88831993  0.29012367  0.53800238  1  0  0.096091  0  0.981795  0  0  0.101405  0  1.05742  0  0  0.104677  0  1.051831  0  0  0.117185  0.09895  0  1.061579  0
H  H13  1  0.11167791  0.70987653  0.46199896  1  0  0.096105  0  0.981766  0  0  0.101388  0  1.057428  0  0  0.104659  0  1.051836  0  0  0.117185  0.09893  0  1.061588  0
H  H14  1  0.77199334  0.12284810  0.76826505  1  0  0.144601  0  0.950766  0  0  0.155692  0  1.004945  0  0  0.158381  0  1.003974  0  0  0.114738  0.153715  0  1.005653  0
H  H15  1  0.22800449  0.87715210  0.23173629  1  0  0.144567  0  0.950773  0  0  0.155653  0  1.004967  0  0  0.158343  0  1.003994  0  0  0.114724  0.153675  0  1.005674  0
H  H16  1  0.52232599  0.24705749  0.93881883  1  0  0.134381  0  0.962627  0  0  0.137877  0  1.029428  0  0  0.142206  0  1.027135  0  0  0.108308  0.134817  0  1.031018  0
H  H17  1  0.47767144  0.75294400  0.06118226  1  0  0.134317  0  0.962651  0  0  0.137842  0  1.029427  0  0  0.142171  0  1.027134  0  0  0.108288  0.134782  0  1.031016  0
H  H18  1  0.38285609  0.59681631  0.82501928  1  0  0.103801  0  0.948822  0  0  0.109286  0  1.01481  0  0  0.111543  0  1.012955  0  0  0.126023  0.107714  0  1.015983  0
H  H19  1  0.61714386  0.40318517  0.17498159  1  0  0.103828  0  0.948849  0  0  0.109302  0  1.014846  0  0  0.111558  0  1.01299  0  0  0.126033  0.10773  0  1.016017  0
C  C20  1  0.13264662  0.60786412  0.01886054  1  0  0.121814  0  3.587643  0  0  0.081699  0  3.85562  0  0  0.09136  0  3.869734  0  0  0.009947  0.075242  0  3.846385  0
C  C21  1  0.86735961  0.39213347  0.98114149  1  0  0.121736  0  3.587569  0  0  0.081611  0  3.855557  0  0  0.091267  0  3.869668  0  0  0.009895  0.075156  0  3.846321  0
C  C22  1  0.03636129  0.77373999  0.96148832  1  0  -0.162927  0  3.761424  0  0  -0.184269  0  4.031357  0  0  -0.191937  0  4.051049  0  0  -0.114693  -0.179224  0  4.018423  0
C  C23  1  0.96364536  0.22625630  0.03851308  1  0  -0.162901  0  3.761387  0  0  -0.184238  0  4.031341  0  0  -0.191904  0  4.051033  0  0  -0.114672  -0.179196  0  4.018408  0
C  C24  1  0.90035623  0.83041678  0.04699145  1  0  -0.121656  0  3.660864  0  0  -0.146607  0  3.909265  0  0  -0.145129  0  3.928514  0  0  -0.087074  -0.14764  0  3.896726  0
C  C25  1  0.09964622  0.16958466  0.95300743  1  0  -0.12165  0  3.661102  0  0  -0.146585  0  3.909512  0  0  -0.145109  0  3.928767  0  0  -0.087105  -0.147617  0  3.896975  0
C  C26  1  0.92205381  0.69481147  0.15222263  1  0  0.166778  0  3.770771  0  0  0.15944  0  4.033278  0  0  0.158563  0  4.055386  0  0  0.062052  0.159714  0  4.019418  0
C  C27  1  0.07794527  0.30518870  0.84777683  1  0  0.166782  0  3.770852  0  0  0.159418  0  4.033387  0  0  0.158536  0  4.055498  0  0  0.062058  0.159689  0  4.019533  0
C  C28  1  0.82546717  0.67631111  0.26561584  1  0  0.059798  0  3.734323  0  0  0.020068  0  3.993111  0  0  0.032605  0  4.006593  0  0  0.059402  0.011371  0  3.984275  0
C  C29  1  0.17452981  0.32369163  0.73438148  1  0  0.059767  0  3.734324  0  0  0.020035  0  3.993114  0  0  0.03257  0  4.006599  0  0  0.059377  0.011339  0  3.984279  0
C  C30  1  0.78070201  0.40645766  0.54708790  1  0  0.060752  0  3.713021  0  0  0.017598  0  3.984033  0  0  0.030423  0  3.993587  0  0  0.061021  0.008891  0  3.977731  0
C  C31  1  0.21929834  0.59354252  0.45291233  1  0  0.060794  0  3.713036  0  0  0.017651  0  3.984056  0  0  0.03048  0  3.993604  0  0  0.061038  0.008944  0  3.977757  0
C  C32  1  0.68237109  0.39296382  0.66057181  1  0  0.16177  0  3.772261  0  0  0.14952  0  4.050717  0  0  0.151552  0  4.067244  0  0  0.06125  0.147956  0  4.039858  0
C  C33  1  0.31762760  0.60703766  0.33942917  1  0  0.161651  0  3.772401  0  0  0.149424  0  4.05083  0  0  0.151457  0  4.067357  0  0  0.061202  0.147862  0  4.039969  0
C  C34  1  0.68558785  0.25386278  0.76129127  1  0  -0.13996  0  3.67402  0  0  -0.170577  0  3.933008  0  0  -0.169646  0  3.951417  0  0  -0.094709  -0.170393  0  3.920277  0
C  C35  1  0.31441083  0.74613869  0.23870883  1  0  -0.139884  0  3.6741  0  0  -0.170508  0  3.93309  0  0  -0.169575  0  3.9515  0  0  -0.094681  -0.170322  0  3.920356  0
C  C36  1  0.55688375  0.31825053  0.84857827  1  0  -0.171426  0  3.769611  0  0  -0.186985  0  4.032731  0  0  -0.195558  0  4.054484  0  0  -0.116445  -0.181315  0  4.017508  0
C  C37  1  0.44311327  0.68175225  0.15142257  1  0  -0.171356  0  3.76972  0  0  -0.186938  0  4.032817  0  0  -0.195512  0  4.054572  0  0  -0.116401  -0.181268  0  4.017591  0
C  C38  1  0.48331974  0.49183320  0.79641012  1  0  0.126781  0  3.569666  0  0  0.084902  0  3.83958  0  0  0.094188  0  3.853529  0  0  0.009839  0.078899  0  3.829686  0
C  C39  1  0.51667895  0.50816828  0.20359086  1  0  0.126701  0  3.569733  0  0  0.084834  0  3.839656  0  0  0.094119  0  3.85361  0  0  0.009808  0.078832  0  3.829762  0
N  N40  1  0.86199427  0.53516357  0.35547999  1  0  -0.204127  0  3.2511  0  0  -0.139226  0  3.546578  0  0  -0.1575  0  3.5659  0  0  -0.241364  -0.126555  0  3.533013  0
N  N41  1  0.13800355  0.46483661  0.64451959  1  0  -0.204103  0  3.251135  0  0  -0.139173  0  3.546559  0  0  -0.157448  0  3.565883  0  0  -0.241337  -0.126501  0  3.532993  0
N  N42  1  0.74919666  0.54784728  0.45752124  1  0  -0.202847  0  3.214105  0  0  -0.141376  0  3.50767  0  0  -0.158014  0  3.526354  0  0  -0.234908  -0.129823  0  3.494605  0
N  N43  1  0.25080369  0.45215289  0.54247899  1  0  -0.202891  0  3.214085  0  0  -0.141431  0  3.507662  0  0  -0.15807  0  3.526345  0  0  -0.234935  -0.129878  0  3.494597  0
N  N44  1  0.85061036  0.03038901  0.39522092  1  0  0.702947  0  4.112803  0  0  0.726313  0  4.402052  0  0  0.756467  0  4.409604  0  0  0.095189  0.705841  0  4.396313  0
N  N45  1  0.14939205  0.96960857  0.60477793  1  0  0.702679  0  4.11311  0  0  0.726294  0  4.402055  0  0  0.756382  0  4.409693  0  0  0.095249  0.705821  0  4.396314  0
N  N46  1  0.43521481  0.13052773  0.21921418  1  0  0.688726  0  4.133741  0  0  0.715326  0  4.422957  0  0  0.744471  0  4.430351  0  0  0.094199  0.695556  0  4.417404  0
N  N47  1  0.56478553  0.86947244  0.78078518  1  0  0.688692  0  4.133811  0  0  0.715302  0  4.423027  0  0  0.744444  0  4.430429  0  0  0.094176  0.695531  0  4.417474  0
O  O48  1  0.06538290  0.55788424  0.13450148  1  0  -0.218856  0  2.511331  0  0  -0.136331  0  2.746227  0  0  -0.155027  0  2.755696  0  0  -0.126592  -0.12391  0  2.740582  0
O  O49  1  0.93461787  0.44211466  0.86549988  1  0  -0.218794  0  2.51131  0  0  -0.136244  0  2.746195  0  0  -0.154928  0  2.755655  0  0  -0.126549  -0.123823  0  2.74055  0
O  O50  1  0.55759590  0.53916121  0.68290622  1  0  -0.199084  0  2.469981  0  0  -0.11861  0  2.706915  0  0  -0.136541  0  2.714337  0  0  -0.121971  -0.106651  0  2.701992  0
O  O51  1  0.44240405  0.46084027  0.31709464  1  0  -0.198974  0  2.469979  0  0  -0.118523  0  2.706939  0  0  -0.136456  0  2.714364  0  0  -0.121944  -0.10657  0  2.702018  0
O  O52  1  0.99791307  0.03472852  0.33902593  1  0  -0.470425  0  1.830408  0  0  -0.435308  0  2.066362  0  0  -0.454965  0  2.058372  0  0  -0.192867  -0.421676  0  2.071952  0
O  O53  1  0.00209062  0.96526906  0.66097369  1  0  -0.470306  0  1.830463  0  0  -0.435299  0  2.066378  0  0  -0.454922  0  2.058396  0  0  -0.192897  -0.421667  0  2.071971  0
O  O54  1  0.82443933  0.88613099  0.43789717  1  0  -0.483943  0  1.945557  0  0  -0.45616  0  2.216498  0  0  -0.474687  0  2.204543  0  0  -0.189564  -0.443057  0  2.224536  0
O  O55  1  0.17556059  0.11386662  0.56210455  1  0  -0.4839  0  1.945631  0  0  -0.456179  0  2.216455  0  0  -0.474686  0  2.204526  0  0  -0.189592  -0.443088  0  2.224522  0
O  O56  1  0.73561404  0.16926073  0.40759504  1  0  -0.459823  0  1.884528  0  0  -0.441394  0  2.152759  0  0  -0.459056  0  2.142618  0  0  -0.185488  -0.428888  0  2.15944  0
O  O57  1  0.26438500  0.83073941  0.59240091  1  0  -0.459713  0  1.884627  0  0  -0.441363  0  2.152754  0  0  -0.459005  0  2.142635  0  0  -0.185489  -0.428855  0  2.159434  0
O  O58  1  0.37466839  0.08814704  0.33236393  1  0  -0.527625  0  1.93173  0  0  -0.483561  0  2.216926  0  0  -0.508292  0  2.203055  0  0  -0.220534  -0.46583  0  2.22604  0
O  O59  1  0.62533029  0.91185445  0.66763705  1  0  -0.52763  0  1.931774  0  0  -0.483542  0  2.216926  0  0  -0.508272  0  2.203058  0  0  -0.220523  -0.46582  0  2.22606  0
O  O60  1  0.32729938  0.23624669  0.13960405  1  0  -0.446546  0  1.796649  0  0  -0.431813  0  2.0229  0  0  -0.446489  0  2.016961  0  0  -0.176148  -0.421388  0  2.02688  0
O  O61  1  0.67270264  0.76375218  0.86039631  1  0  -0.446559  0  1.79665  0  0  -0.431818  0  2.02288  0  0  -0.446497  0  2.016945  0  0  -0.176154  -0.421392  0  2.026861  0
O  O62  1  0.59601647  0.06600529  0.19406874  1  0  -0.443469  0  1.773089  0  0  -0.426347  0  1.982278  0  0  -0.441908  0  1.977938  0  0  -0.17811  -0.415335  0  1.984978  0
O  O63  1  0.40398470  0.93399231  0.80593199  1  0  -0.443413  0  1.7731  0  0  -0.426327  0  1.982304  0  0  -0.441878  0  1.977956  0  0  -0.17809  -0.415311  0  1.985004  0
