# generated using pymatgen
data_NiH8C12(NO2)2
_symmetry_space_group_name_H-M   'P 1'
_cell_length_a   6.12896320
_cell_length_b   11.14627600
_cell_length_c   12.20387166
_cell_angle_alpha   90.00020991
_cell_angle_beta   89.99868633
_cell_angle_gamma   89.99987332
_symmetry_Int_Tables_number   1
_chemical_formula_structural   NiH8C12(NO2)2
_chemical_formula_sum   'Ni2 H16 C24 N4 O8'
_cell_volume   833.70890030
_cell_formula_units_Z   2
loop_
 _symmetry_equiv_pos_site_id
 _symmetry_equiv_pos_as_xyz
  1  'x, y, z'
loop_
 _atom_site_type_symbol
 _atom_site_label
 _atom_site_symmetry_multiplicity
 _atom_site_fract_x
 _atom_site_fract_y
 _atom_site_fract_z
 _atom_site_occupancy
 _atom_site_hle17_ddec_charge
 _atom_site_hle17_ddec_spin_density
 _atom_site_hle17_ddec_sum_bond_order
 _atom_site_hle17_magmom
 _atom_site_hse06_10hf_ddec_charge
 _atom_site_hse06_10hf_ddec_spin_density
 _atom_site_hse06_10hf_ddec_sum_bond_order
 _atom_site_hse06_10hf_magmom
 _atom_site_hse06_ddec_charge
 _atom_site_hse06_ddec_spin_density
 _atom_site_hse06_ddec_sum_bond_order
 _atom_site_hse06_magmom
 _atom_site_pbe_cm5_charge
 _atom_site_pbe_ddec_charge
 _atom_site_pbe_ddec_spin_density
 _atom_site_pbe_ddec_sum_bond_order
 _atom_site_pbe_magmom
Ni  Ni0  1  0.00001115  0.96199847  0.50000473  1  0.760419  1.74995  1.933983  1.468  0.7592  1.812214  2.328432  1.604  0.868875  1.874999  2.244253  1.704  0.630475  0.681036  1.758974  2.389565  1.519
Ni  Ni1  1  0.49999924  0.46198633  0.00000283  1  0.760569  1.749999  1.933911  1.468  0.759337  1.812236  2.328395  1.604  0.868984  1.875008  2.244244  1.704  0.630468  0.68119  1.758901  2.389572  1.519
H  H2  1  0.03245653  0.32981683  0.74583952  1  0.124267  0.000537  0.941304  0.0  0.132805  0.000579  1.000777  0.0  0.136889  0.000387  0.998538  0.0  0.115674  0.12972  0.000781  1.002641  0.001
H  H3  1  0.96754016  0.32982369  0.25417010  1  0.12424  0.000538  0.941293  0.0  0.132737  0.000579  1.00082  0.0  0.136811  0.000387  0.998579  0.0  0.115656  0.129656  0.000781  1.002677  0.001
H  H4  1  0.46756225  0.82984030  0.24583168  1  0.124235  0.000536  0.941441  0.0  0.13278  0.000579  1.000892  0.0  0.136865  0.000387  0.998658  0.0  0.115631  0.129693  0.00078  1.002753  0.001
H  H5  1  0.53245375  0.82983198  0.75415307  1  0.124386  0.000537  0.941257  0.0  0.132853  0.000579  1.000811  0.0  0.136936  0.000387  0.998577  0.0  0.115672  0.129769  0.00078  1.00267  0.001
H  H6  1  0.15974573  0.18347645  0.60300668  1  0.079215  0.000764  0.937093  0.002  0.085801  0.000676  1.001309  0.001  0.087426  0.000459  1.000408  0.001  0.118737  0.084431  0.000888  1.002507  0.001
H  H7  1  0.84026612  0.18346990  0.39699454  1  0.079228  0.000762  0.937148  0.002  0.085838  0.000676  1.001335  0.001  0.08746  0.000459  1.000434  0.001  0.118792  0.084467  0.000888  1.002531  0.001
H  H8  1  0.34025211  0.68348841  0.10301234  1  0.079208  0.000764  0.937092  0.002  0.085826  0.000677  1.001272  0.001  0.087448  0.00046  1.000368  0.001  0.11881  0.084461  0.00089  1.002471  0.001
H  H9  1  0.65974968  0.68349240  0.89698777  1  0.079194  0.000764  0.937064  0.002  0.085817  0.000677  1.001241  0.001  0.087441  0.00046  1.00034  0.001  0.118796  0.084452  0.00089  1.00244  0.001
H  H10  1  0.57736275  0.99371840  0.61726690  1  0.107718  0.000781  0.957799  0.002  0.112664  0.000595  1.025489  0.002  0.116132  0.000339  1.021889  0.001  0.122288  0.109845  0.000874  1.028434  0.002
H  H11  1  0.42265800  0.99373331  0.38273383  1  0.107723  0.000779  0.957863  0.002  0.112658  0.000594  1.025547  0.002  0.116128  0.000338  1.021952  0.001  0.122266  0.109842  0.000873  1.028488  0.002
H  H12  1  0.92264115  0.49372215  0.11727635  1  0.107722  0.000779  0.957973  0.002  0.112675  0.000594  1.025624  0.002  0.116145  0.000338  1.02202  0.001  0.122268  0.109862  0.000873  1.028576  0.002
H  H13  1  0.07736355  0.49372383  0.88273450  1  0.107754  0.000779  0.957791  0.002  0.112694  0.000594  1.025484  0.002  0.116165  0.000338  1.02188  0.001  0.122283  0.109882  0.000873  1.028432  0.002
H  H14  1  0.42583324  0.13434899  0.75882060  1  0.120302  0.000576  0.940264  0.0  0.128656  0.000619  0.999512  0.0  0.132823  0.000419  0.997348  0.0  0.114576  0.125619  0.000825  1.001157  0.001
H  H15  1  0.57416952  0.13436276  0.24117509  1  0.12031  0.000577  0.940114  0.0  0.128674  0.000619  0.999368  0.0  0.132841  0.000419  0.997204  0.0  0.114584  0.125638  0.000825  1.001012  0.001
H  H16  1  0.07415173  0.63434698  0.25883825  1  0.120275  0.000575  0.940167  0.0  0.128636  0.000619  0.999428  0.0  0.132804  0.000419  0.997263  0.0  0.114577  0.125601  0.000825  1.001067  0.001
H  H17  1  0.92582955  0.63434988  0.74117600  1  0.120343  0.000576  0.940196  0.0  0.128703  0.000619  0.99944  0.0  0.132869  0.000419  0.997279  0.0  0.114591  0.125668  0.000825  1.001079  0.001
C  C18  1  0.62927597  0.32892405  0.84582357  1  0.61132  -0.012925  3.896948  -0.011  0.572411  -0.004548  4.193779  -0.004  0.608664  -0.00412  4.191255  -0.004  0.19749  0.547045  -0.005195  4.19401  -0.005
C  C19  1  0.37069133  0.32893022  0.15417210  1  0.611734  -0.012929  3.897311  -0.011  0.572989  -0.004546  4.193925  -0.004  0.609244  -0.004123  4.19138  -0.004  0.19756  0.547619  -0.005195  4.194174  -0.005
C  C20  1  0.87071109  0.82894294  0.34583074  1  0.611465  -0.012917  3.897314  -0.011  0.572584  -0.004543  4.194101  -0.004  0.608833  -0.00412  4.191581  -0.004  0.197464  0.547203  -0.005193  4.194326  -0.005
C  C21  1  0.12929673  0.82893233  0.65416464  1  0.611585  -0.012923  3.897049  -0.011  0.572703  -0.004542  4.193821  -0.004  0.608949  -0.004122  4.191302  -0.004  0.19748  0.547319  -0.005195  4.194047  -0.005
C  C22  1  0.71612459  0.24416743  0.76127463  1  0.004278  -0.01326  3.730052  -0.008  0.027463  -0.004093  3.949424  -0.002  0.028282  -0.004606  3.965232  -0.003  0.007498  0.025386  -0.005018  3.940609  -0.002
C  C23  1  0.28387699  0.24417731  0.23872735  1  0.004325  -0.013239  3.730034  -0.008  0.027316  -0.004098  3.949585  -0.002  0.028144  -0.004604  3.965372  -0.003  0.007487  0.025246  -0.00502  3.940768  -0.002
C  C24  1  0.78387292  0.74416370  0.26127901  1  0.004195  -0.013278  3.730234  -0.008  0.027381  -0.00409  3.94958  -0.002  0.028204  -0.004611  3.96539  -0.003  0.007457  0.025325  -0.005014  3.940745  -0.002
C  C25  1  0.21613166  0.74416256  0.73871777  1  0.004192  -0.013252  3.729822  -0.008  0.0274  -0.004093  3.94916  -0.002  0.028238  -0.004604  3.964941  -0.003  0.007472  0.025347  -0.005012  3.940322  -0.002
C  C26  1  0.92607444  0.25781882  0.71797445  1  -0.112564  0.008974  3.693273  0.011  -0.13202  0.003252  3.930167  0.004  -0.136268  0.003124  3.946587  0.004  -0.071274  -0.129409  0.003597  3.920418  0.005
C  C27  1  0.07393230  0.25782563  0.28202853  1  -0.112582  0.008958  3.693436  0.011  -0.131959  0.003252  3.930422  0.004  -0.136192  0.003123  3.946825  0.004  -0.071279  -0.129349  0.003597  3.920672  0.005
C  C28  1  0.57391977  0.75782668  0.21797570  1  -0.112506  0.008992  3.693229  0.011  -0.131982  0.003252  3.930152  0.004  -0.136237  0.003128  3.946578  0.004  -0.071221  -0.129363  0.0036  3.920392  0.005
C  C29  1  0.42609486  0.75782979  0.78201961  1  -0.112673  0.008976  3.692913  0.011  -0.132099  0.003253  3.929902  0.004  -0.136357  0.003125  3.946324  0.004  -0.071267  -0.129481  0.003599  3.920142  0.005
C  C30  1  0.99786126  0.17661141  0.63955538  1  0.115152  -0.017736  3.706869  -0.012  0.088106  -0.005931  3.968524  -0.004  0.096497  -0.006633  3.987564  -0.004  0.046038  0.081877  -0.006179  3.9565  -0.003
C  C31  1  0.00214393  0.17662274  0.36044658  1  0.115087  -0.017707  3.706822  -0.012  0.088045  -0.005927  3.968492  -0.004  0.096439  -0.00663  3.987525  -0.004  0.04597  0.081816  -0.006177  3.956473  -0.003
C  C32  1  0.50213908  0.67661896  0.13955582  1  0.115118  -0.017751  3.70688  -0.012  0.088058  -0.005926  3.968578  -0.004  0.096454  -0.006633  3.987614  -0.004  0.045968  0.081834  -0.006171  3.956573  -0.003
C  C33  1  0.49785279  0.67662004  0.86044585  1  0.115038  -0.017728  3.706867  -0.012  0.087977  -0.005926  3.968579  -0.004  0.096367  -0.006627  3.987624  -0.004  0.04592  0.081753  -0.006171  3.956573  -0.003
C  C34  1  0.67204594  0.07008566  0.64657091  1  0.11579  -0.016056  3.669121  -0.01  0.086925  -0.004526  3.930514  -0.003  0.095317  -0.005534  3.948536  -0.003  0.046658  0.080563  -0.004503  3.919728  -0.002
C  C35  1  0.32797843  0.07009437  0.35342971  1  0.115646  -0.01603  3.668987  -0.01  0.086847  -0.004523  3.930351  -0.003  0.095232  -0.005533  3.948378  -0.003  0.046635  0.08047  -0.004502  3.919595  -0.002
C  C36  1  0.82796089  0.57007888  0.14658449  1  0.115712  -0.016085  3.668734  -0.01  0.086865  -0.004526  3.930102  -0.003  0.095258  -0.005541  3.948119  -0.003  0.046652  0.08048  -0.004502  3.919388  -0.002
C  C37  1  0.17203058  0.57008626  0.85342076  1  0.115662  -0.016056  3.668644  -0.01  0.086807  -0.004523  3.930058  -0.003  0.095196  -0.005534  3.948083  -0.003  0.046594  0.080418  -0.004498  3.91935  -0.002
C  C38  1  0.58831743  0.14813332  0.72490051  1  -0.118288  0.009542  3.69733  0.012  -0.138711  0.003775  3.938376  0.005  -0.143654  0.00354  3.955747  0.005  -0.074243  -0.135649  0.004207  3.927945  0.006
C  C39  1  0.41168885  0.14814728  0.27510764  1  -0.118245  0.009525  3.697095  0.012  -0.138636  0.003774  3.938192  0.005  -0.143583  0.003538  3.955565  0.005  -0.074243  -0.135573  0.004206  3.927759  0.006
C  C40  1  0.91167179  0.64814379  0.22490206  1  -0.118283  0.009552  3.697824  0.012  -0.138723  0.003771  3.938866  0.005  -0.143666  0.00354  3.956238  0.005  -0.07432  -0.135651  0.004206  3.928427  0.006
C  C41  1  0.08830648  0.64814524  0.77510089  1  -0.1183  0.009537  3.697409  0.012  -0.138729  0.003772  3.938452  0.005  -0.14368  0.003538  3.955824  0.005  -0.074258  -0.135657  0.004206  3.928011  0.006
N  N42  1  0.87356361  0.08456964  0.60418510  1  -0.290509  0.057383  3.360951  0.089  -0.251726  0.037039  3.662977  0.059  -0.283711  0.02955  3.685332  0.05  -0.331028  -0.230122  0.04309  3.648873  0.065
N  N43  1  0.12644635  0.08457702  0.39581324  1  -0.290303  0.057377  3.360456  0.089  -0.251582  0.037041  3.662515  0.059  -0.283569  0.029551  3.684879  0.05  -0.330875  -0.229974  0.043092  3.648402  0.065
N  N44  1  0.62642507  0.58457079  0.10418837  1  -0.290448  0.057396  3.36024  0.089  -0.251665  0.037038  3.662261  0.059  -0.283647  0.029551  3.684618  0.05  -0.330937  -0.230066  0.043093  3.648214  0.065
N  N45  1  0.37356667  0.58457623  0.89581379  1  -0.290328  0.057374  3.36029  0.089  -0.251553  0.037033  3.662329  0.059  -0.283532  0.029545  3.684691  0.05  -0.330843  -0.229952  0.043086  3.648278  0.065
O  O46  1  0.75489489  0.41091312  0.88372824  1  -0.573343  0.056144  1.93016  0.09  -0.551291  0.03458  2.178925  0.058  -0.593442  0.023506  2.172993  0.043  -0.302523  -0.518768  0.045581  2.180986  0.073
O  O47  1  0.24507887  0.41092597  0.11627502  1  -0.573318  0.056135  1.930463  0.09  -0.551304  0.034578  2.17913  0.058  -0.593466  0.023505  2.173211  0.043  -0.302347  -0.518784  0.045576  2.181201  0.073
O  O48  1  0.74508360  0.91092855  0.38371289  1  -0.573283  0.056121  1.93069  0.09  -0.551244  0.034571  2.179429  0.058  -0.593391  0.023498  2.173499  0.042  -0.30238  -0.518729  0.045565  2.181478  0.073
O  O49  1  0.25491436  0.91091539  0.61627778  1  -0.573297  0.056134  1.930725  0.09  -0.551224  0.034577  2.179419  0.058  -0.593373  0.023504  2.17349  0.043  -0.302396  -0.518722  0.04557  2.181498  0.073
O  O50  1  0.43336046  0.31711183  0.87863463  1  -0.563578  0.050287  1.900162  0.08  -0.540722  0.031868  2.132267  0.053  -0.579419  0.02207  2.127177  0.04  -0.305153  -0.511096  0.041583  2.133939  0.066
O  O51  1  0.56659030  0.31710317  0.12134450  1  -0.564057  0.050296  1.900419  0.08  -0.541235  0.031871  2.132453  0.053  -0.579936  0.022074  2.127345  0.04  -0.305407  -0.511609  0.041587  2.134139  0.066
O  O52  1  0.06662421  0.81710539  0.37863736  1  -0.563703  0.050291  1.9001  0.08  -0.540857  0.031866  2.132181  0.053  -0.579563  0.022068  2.127092  0.04  -0.305232  -0.511236  0.041575  2.133847  0.066
O  O53  1  0.93338176  0.81709650  0.62135542  1  -0.5638  0.050305  1.899947  0.08  -0.540966  0.031874  2.132043  0.053  -0.579673  0.022074  2.126952  0.04  -0.305263  -0.511343  0.041585  2.133712  0.066
