# generated using pymatgen
data_Zr3H19C25(NO3)6
_symmetry_space_group_name_H-M   'P 1'
_cell_length_a   14.77004146
_cell_length_b   14.76322513
_cell_length_c   14.81218273
_cell_angle_alpha   60.56226684
_cell_angle_beta   59.91740772
_cell_angle_gamma   60.21888923
_symmetry_Int_Tables_number   1
_chemical_formula_structural   Zr3H19C25(NO3)6
_chemical_formula_sum   'Zr6 H38 C50 N12 O36'
_cell_volume   2295.74191816
_cell_formula_units_Z   2
loop_
 _symmetry_equiv_pos_site_id
 _symmetry_equiv_pos_as_xyz
  1  'x, y, z'
loop_
 _atom_site_type_symbol
 _atom_site_label
 _atom_site_symmetry_multiplicity
 _atom_site_fract_x
 _atom_site_fract_y
 _atom_site_fract_z
 _atom_site_occupancy
 _atom_site_pbe_bader_charge
 _atom_site_pbe_bader_spin_density
 _atom_site_pbe_cm5_charge
 _atom_site_pbe_ddec_charge
 _atom_site_pbe_ddec_spin_density
 _atom_site_pbe_ddec_sum_bond_order
 _atom_site_pbe_magmom
Zr  Zr0  1  0.87763235  0.88672393  0.61324176  1  2.628693  0  1.628762  2.358231  0  2.793197  0
Zr  Zr1  1  0.12097075  0.11787120  0.38216071  1  2.632529  0  1.632623  2.362158  0  2.790753  0
Zr  Zr2  1  0.11696044  0.88273014  0.61752544  1  2.632995  0  1.633253  2.372943  0  2.763716  0
Zr  Zr3  1  0.88154138  0.12330283  0.37674566  1  2.634456  0  1.627008  2.369782  0  2.756178  0
Zr  Zr4  1  0.11808996  0.88269354  0.37813432  1  2.630515  0  1.625546  2.360761  0  2.771549  0
Zr  Zr5  1  0.87902154  0.12218439  0.61697086  1  2.631889  0  1.626302  2.363768  0  2.771071  0
H  H6  1  0.09104056  0.72125491  0.58858416  1  0.602174  0  0.332326  0.424517  0  0.855118  0
H  H7  1  0.09902370  0.09261452  0.21607837  1  0.600705  0  0.331958  0.424931  0  0.856295  0
H  H8  1  0.09283612  0.09363540  0.59492806  1  0.60837  0  0.335135  0.427658  0  0.850016  0
H  H9  1  0.71612683  0.09972660  0.58971088  1  0.602841  0  0.335314  0.430043  0  0.847284  0
H  H10  1  0.15354371  0.57561042  0.37847492  1  0.053335  0  0.103341  0.11606  0  1.016073  0
H  H11  1  0.85409118  0.41461953  0.63635533  1  0.105655  0  0.101736  0.113217  0  1.018861  0
H  H12  1  0.60492228  0.12556531  0.92213495  1  0.066347  0  0.102531  0.113944  0  1.014208  0
H  H13  1  0.40914541  0.86030084  0.08952274  1  0.071923  0  0.101308  0.113279  0  1.020028  0
H  H14  1  0.85791772  0.14122251  0.09162039  1  0.049155  0  0.099362  0.10883  0  1.025848  0
H  H15  1  0.13361686  0.86064434  0.90790473  1  0.129328  0  0.104654  0.122872  0  1.023488  0
H  H16  1  0.59330390  0.41137033  0.35556943  1  0.053991  0  0.101328  0.112364  0  1.023619  0
H  H17  1  0.40588989  0.59507757  0.63617965  1  0.081598  0  0.102651  0.119629  0  1.027468  0
H  H18  1  0.74534566  0.62402713  0.96414633  1  0.042516  0  0.095361  0.103437  0  1.005438  0
H  H19  1  0.83264325  0.54022177  0.87634060  1  0.07721  0  0.097368  0.113081  0  1.005698  0
H  H20  1  0.83992717  0.36871543  0.04459843  1  0.069416  0  0.103979  0.118794  0  0.97744  0
H  H21  1  0.75075000  0.45241984  0.13216009  1  0.061896  0  0.10116  0.113572  0  0.984611  0
H  H22  1  0.59091242  0.86611072  0.63556299  1  0.062384  0  0.099507  0.110282  0  1.023169  0
H  H23  1  0.41017439  0.13598722  0.35690319  1  0.059317  0  0.104153  0.118194  0  1.016604  0
H  H24  1  0.18835664  0.33519837  0.34335894  1  0.482946  0  0.295577  0.299035  0  0.999634  0
H  H25  1  0.24050483  0.43659502  0.29822281  1  0.427573  0  0.303443  0.295341  0  0.942538  0
H  H26  1  0.80874260  0.66875906  0.65561485  1  0.476483  0  0.294829  0.298658  0  1.002335  0
H  H27  1  0.75369754  0.57007621  0.69711969  1  0.413531  0  0.298503  0.286222  0  0.957836  0
H  H28  1  0.36362846  0.15899503  0.16346157  1  0.47069  0  0.292867  0.297091  0  1.004605  0
H  H29  1  0.45772293  0.21715756  0.05216904  1  0.428167  0  0.297981  0.29213  0  0.952771  0
H  H30  1  0.65104519  0.82543580  0.84618681  1  0.480792  0  0.299674  0.306279  0  1.000503  0
H  H31  1  0.54292649  0.77599552  0.95266314  1  0.425393  0  0.305473  0.297643  0  0.954359  0
H  H32  1  0.81318903  0.16477322  0.86136947  1  0.46972  0  0.293963  0.299803  0  1.002962  0
H  H33  1  0.75668310  0.20623850  0.97424127  1  0.414683  0  0.298098  0.287709  0  0.959091  0
H  H34  1  0.15870949  0.81516757  0.15765237  1  0.487947  0  0.295475  0.300506  0  0.999183  0
H  H35  1  0.19991043  0.76194967  0.05680168  1  0.427396  0  0.303457  0.30064  0  0.946577  0
H  H36  1  0.35874557  0.65829734  0.31515344  1  0.486598  0  0.294724  0.300057  0  1.00345  0
H  H37  1  0.46891551  0.55648483  0.26144841  1  0.382938  0  0.29897  0.288122  0  0.960246  0
H  H38  1  0.65483550  0.36284200  0.66390788  1  0.488439  0  0.298015  0.30479  0  1.000859  0
H  H39  1  0.54563067  0.46935308  0.71444925  1  0.414303  0  0.303921  0.297217  0  0.954213  0
H  H40  1  0.35540646  0.82078286  0.66820469  1  0.487175  0  0.299877  0.30744  0  0.993335  0
H  H41  1  0.46275520  0.77275342  0.71538507  1  0.418457  0  0.301686  0.291813  0  0.958256  0
H  H42  1  0.65920166  0.16609881  0.31095976  1  0.477247  0  0.295781  0.300042  0  1.001664  0
H  H43  1  0.55699156  0.20794390  0.25967372  1  0.410624  0  0.300269  0.291183  0  0.956979  0
C  C44  1  0.99393764  0.69932228  0.49852375  1  1.517696  0  0.233327  0.650701  0  4.075654  0
C  C45  1  0.31181618  0.99490781  0.20119941  1  1.486606  0  0.235584  0.654498  0  4.064578  0
C  C46  1  0.00264894  0.30399043  0.50039147  1  1.500225  0  0.23443  0.652867  0  4.067393  0
C  C47  1  0.69632334  0.99765850  0.80464053  1  1.500495  0  0.234095  0.653872  0  4.06907  0
C  C48  1  0.99305216  0.70386929  0.80284251  1  1.599499  0  0.238926  0.650907  0  4.119952  0
C  C49  1  0.69727410  0.00426607  0.48973210  1  1.508245  0  0.233592  0.653805  0  4.067793  0
C  C50  1  0.00184109  0.30809164  0.19895594  1  1.616446  0  0.23849  0.649459  0  4.120121  0
C  C51  1  0.30680735  0.99483408  0.49975624  1  1.498311  0  0.235147  0.652734  0  4.070582  0
C  C52  1  0.30468713  0.69873371  0.49330341  1  1.487246  0  0.235178  0.652014  0  4.06354  0
C  C53  1  0.99117346  0.00197417  0.80630873  1  1.499511  0  0.234583  0.650545  0  4.067887  0
C  C54  1  0.69852691  0.31179338  0.49517770  1  1.500967  0  0.233032  0.650448  0  4.067835  0
C  C55  1  0.99931581  0.99821387  0.19457376  1  1.524539  0  0.23352  0.651948  0  4.067879  0
C  C56  1  0.00865062  0.39922815  0.50380120  1  -0.064505  0  -0.02555  -0.136995  0  3.946249  0
C  C57  1  0.99686204  0.59336366  0.50811996  1  -0.000855  0  -0.026224  -0.137212  0  3.958899  0
C  C58  1  0.09907636  0.44086518  0.43130570  1  0.441162  0  0.099656  0.286008  0  4.069428  0
C  C59  1  0.91094040  0.54655111  0.58684911  1  0.430156  0  0.089384  0.26945  0  4.076001  0
C  C60  1  0.08821616  0.53890867  0.43495811  1  0.02043  0  -0.097787  -0.198269  0  3.9583  0
C  C61  1  0.91958036  0.45118882  0.58029940  1  -0.017517  0  -0.10077  -0.201812  0  3.975539  0
C  C62  1  0.41489624  0.99400612  0.10393057  1  0.009364  0  -0.02458  -0.131891  0  3.94517  0
C  C63  1  0.60011095  0.99123539  0.90813851  1  -0.027223  0  -0.027375  -0.141756  0  3.950842  0
C  C64  1  0.47034825  0.07128421  0.05823404  1  0.413758  0  0.093724  0.277252  0  4.065385  0
C  C65  1  0.54631949  0.91208730  0.95546107  1  0.473856  0  0.095996  0.28538  0  4.091534  0
C  C66  1  0.56116880  0.06712126  0.96058178  1  0.021017  0  -0.097546  -0.193792  0  3.962456  0
C  C67  1  0.45465879  0.91690297  0.05255967  1  -0.014624  0  -0.103078  -0.210737  0  3.973801  0
C  C68  1  0.99031504  0.00503770  0.90537541  1  -0.028404  0  -0.024786  -0.134225  0  3.942354  0
C  C69  1  0.00084312  0.99619726  0.09484164  1  -0.000841  0  -0.028187  -0.141642  0  3.951145  0
C  C70  1  0.90900827  0.08738092  0.95691646  1  0.421964  0  0.090891  0.274586  0  4.082164  0
C  C71  1  0.08161790  0.91367393  0.04355839  1  0.408582  0  0.097053  0.284415  0  4.065179  0
C  C72  1  0.91802577  0.07979272  0.05012753  1  -0.003079  0  -0.104787  -0.210534  0  3.983538  0
C  C73  1  0.07339422  0.92201684  0.94932884  1  0.014453  0  -0.09574  -0.194564  0  3.939119  0
C  C74  1  0.40449479  0.59829298  0.49142861  1  0.021681  0  -0.025622  -0.134205  0  3.944565  0
C  C75  1  0.59684292  0.40992362  0.49851937  1  -0.015854  0  -0.027757  -0.140203  0  3.946578  0
C  C76  1  0.45613042  0.54619857  0.40966148  1  0.410694  0  0.091277  0.275177  0  4.082306  0
C  C77  1  0.54342202  0.46041411  0.58184509  1  0.460946  0  0.097122  0.286913  0  4.080604  0
C  C78  1  0.55152192  0.45364299  0.41621297  1  -0.002628  0  -0.102797  -0.209047  0  3.974714  0
C  C79  1  0.44875638  0.55413913  0.57433666  1  0.008719  0  -0.09956  -0.202648  0  3.949837  0
C  C80  1  0.99706389  0.60336608  0.90255384  1  0.078136  0  0.004095  -0.101277  0  3.916072  0
C  C81  1  0.00128495  0.40883660  0.09911602  1  0.019087  0  0.004008  -0.100901  0  3.914308  0
C  C82  1  0.91990032  0.54954367  0.95553515  1  0.029991  0  0.01004  0.085683  0  3.865076  0
C  C83  1  0.08014231  0.46271933  0.04591691  1  0.276206  0  0.091909  0.011477  0  3.892872  0
C  C84  1  0.92247111  0.45586459  0.04917752  1  -0.02487  0  0.009536  0.083194  0  3.86544  0
C  C85  1  0.07905122  0.55511529  0.95096536  1  0.204065  0  0.092734  0.014697  0  3.874908  0
C  C86  1  0.81890077  0.55114993  0.95106439  1  -0.013975  0  -0.150174  -0.195654  0  3.848777  0
C  C87  1  0.82242001  0.44433681  0.05655891  1  -0.021168  0  -0.145647  -0.196977  0  3.855854  0
C  C88  1  0.40582199  0.99481833  0.50160386  1  0.032903  0  -0.025315  -0.136519  0  3.944672  0
C  C89  1  0.59611735  0.00636534  0.48994498  1  -0.010041  0  -0.026374  -0.137927  0  3.954548  0
C  C90  1  0.45531582  0.91580002  0.58437745  1  0.378692  0  0.095023  0.280558  0  4.094301  0
C  C91  1  0.54514304  0.08665353  0.40872252  1  0.464757  0  0.094829  0.279972  0  4.080576  0
C  C92  1  0.55005128  0.92468308  0.57458376  1  0.022175  0  -0.103379  -0.208749  0  3.97582  0
C  C93  1  0.45119615  0.07707384  0.41767300  1  0.014591  0  -0.097425  -0.197173  0  3.957679  0
N  N94  1  0.19535307  0.38833255  0.36229113  1  -1.209812  0  -0.600112  -0.6084  0  3.326828  0
N  N95  1  0.82233890  0.58919198  0.66926691  1  -1.216891  0  -0.603216  -0.626569  0  3.330225  0
N  N96  1  0.44115508  0.14640090  0.10638013  1  -1.200233  0  -0.607849  -0.62347  0  3.315403  0
N  N97  1  0.57724523  0.83624793  0.90825256  1  -1.259687  0  -0.603971  -0.633289  0  3.373123  0
N  N98  1  0.82577133  0.17448348  0.91710048  1  -1.224999  0  -0.609793  -0.630735  0  3.321465  0
N  N99  1  0.16770883  0.82917986  0.07975120  1  -1.227068  0  -0.603357  -0.625225  0  3.313129  0
N  N100  1  0.41418077  0.58061163  0.32856306  1  -1.196699  0  -0.606586  -0.626884  0  3.333138  0
N  N101  1  0.57828255  0.42016743  0.66896683  1  -1.245152  0  -0.60226  -0.625011  0  3.353671  0
N  N102  1  0.41249957  0.83599324  0.67286997  1  -1.239605  0  -0.601348  -0.622443  0  3.348057  0
N  N103  1  0.58139393  0.17331763  0.32563971  1  -1.227756  0  -0.603709  -0.624329  0  3.333306  0
N  N104  1  0.16979984  0.42329233  0.08853670  1  0.407848  0  0.056953  0.517678  0  4.244763  0
N  N105  1  0.17099678  0.59926066  0.90191607  1  0.442889  0  0.059216  0.517333  0  4.24784  0
O  O106  1  0.91427612  0.74561239  0.57125398  1  -1.187208  0  -0.363392  -0.626968  0  2.327376  0
O  O107  1  0.26844993  0.07250597  0.24245554  1  -1.180728  0  -0.360063  -0.62138  0  2.320226  0
O  O108  1  0.07846784  0.26276576  0.42282263  1  -1.181353  0  -0.360172  -0.622736  0  2.312976  0
O  O109  1  0.73698215  0.92320350  0.75985125  1  -1.186758  0  -0.364583  -0.630772  0  2.32083  0
O  O110  1  0.06868145  0.74479466  0.76334822  1  -1.169808  0  -0.352732  -0.612204  0  2.343469  0
O  O111  1  0.74046534  0.07945467  0.41340420  1  -1.18594  0  -0.357865  -0.622924  0  2.307214  0
O  O112  1  0.92440502  0.27061032  0.23520077  1  -1.166916  0  -0.340896  -0.598713  0  2.269637  0
O  O113  1  0.26457148  0.91863911  0.57511189  1  -1.187198  0  -0.358232  -0.623139  0  2.308472  0
O  O114  1  0.26335008  0.74054989  0.41687541  1  -1.181437  0  -0.359857  -0.625023  0  2.315826  0
O  O115  1  0.91450266  0.07769394  0.76524341  1  -1.187995  0  -0.358767  -0.624138  0  2.31562  0
O  O116  1  0.73971872  0.27028096  0.57168186  1  -1.184489  0  -0.358483  -0.625165  0  2.308091  0
O  O117  1  0.07423795  0.92088707  0.23736115  1  -1.185063  0  -0.358481  -0.62438  0  2.304544  0
O  O118  1  0.06809267  0.92552026  0.76556315  1  -1.18712  0  -0.355571  -0.618382  0  2.28108  0
O  O119  1  0.74048215  0.27174251  0.41753518  1  -1.185217  0  -0.361887  -0.630596  0  2.276669  0
O  O120  1  0.92461122  0.07713996  0.23312653  1  -1.197634  0  -0.362482  -0.633875  0  2.28062  0
O  O121  1  0.26362280  0.73876202  0.57054548  1  -1.1819  0  -0.35676  -0.622906  0  2.280194  0
O  O122  1  0.91625883  0.73875469  0.76600621  1  -1.165206  0  -0.330564  -0.591403  0  2.231279  0
O  O123  1  0.26667346  0.07116250  0.42402261  1  -1.188424  0  -0.362242  -0.625275  0  2.297677  0
O  O124  1  0.07887871  0.26804520  0.23736662  1  -1.174998  0  -0.342554  -0.608178  0  2.298007  0
O  O125  1  0.73679712  0.92827413  0.56612394  1  -1.189068  0  -0.364316  -0.631741  0  2.296242  0
O  O126  1  0.73431549  0.07605586  0.76385632  1  -1.183682  0  -0.356834  -0.627332  0  2.277978  0
O  O127  1  0.06987827  0.73962612  0.42025294  1  -1.188815  0  -0.355555  -0.624991  0  2.273682  0
O  O128  1  0.26888519  0.92118602  0.23781532  1  -1.186654  0  -0.359533  -0.630039  0  2.279204  0
O  O129  1  0.92273396  0.26710781  0.57385174  1  -1.186119  0  -0.361411  -0.630092  0  2.282739  0
O  O130  1  0.79656342  0.07249199  0.56264197  1  -1.226852  0  -0.696773  -1.068778  0  2.362928  0
O  O131  1  0.06594450  0.06752602  0.56745703  1  -1.229776  0  -0.698241  -1.068672  0  2.375967  0
O  O132  1  0.06906411  0.06912221  0.29593739  1  -1.227715  0  -0.694264  -1.069774  0  2.359464  0
O  O133  1  0.06349971  0.80116656  0.56468208  1  -1.231294  0  -0.695139  -1.070114  0  2.362878  0
O  O134  1  0.14762641  0.95086727  0.44957683  1  -1.193382  0  -0.796372  -1.145401  0  2.152889  0
O  O135  1  0.94940551  0.95504319  0.44615113  1  -1.193793  0  -0.795605  -1.143662  0  2.149613  0
O  O136  1  0.95132193  0.15058086  0.44833568  1  -1.199573  0  -0.79365  -1.147954  0  2.138253  0
O  O137  1  0.94755880  0.95361900  0.64565920  1  -1.198427  0  -0.793694  -1.147178  0  2.1371  0
O  O138  1  0.14848493  0.45983451  0.15866084  1  -0.434909  0  -0.11146  -0.307843  0  1.942229  0
O  O139  1  0.26070817  0.36140561  0.04604276  1  -0.43304  0  -0.122566  -0.322925  0  1.927633  0
O  O140  1  0.25376399  0.56521770  0.82856523  1  -0.432267  0  -0.111586  -0.306877  0  1.933729  0
O  O141  1  0.15960688  0.66133241  0.94290865  1  -0.434002  0  -0.117359  -0.315043  0  1.926181  0
