# generated using pymatgen
data_UH8C9SNO8
_symmetry_space_group_name_H-M   'P 1'
_cell_length_a   7.85505509
_cell_length_b   12.02455122
_cell_length_c   13.31820000
_cell_angle_alpha   90.00000000
_cell_angle_beta   94.59304113
_cell_angle_gamma   90.00000000
_symmetry_Int_Tables_number   1
_chemical_formula_structural   UH8C9SNO8
_chemical_formula_sum   'U4 H32 C36 S4 N4 O32'
_cell_volume   1253.91099858
_cell_formula_units_Z   4
loop_
 _symmetry_equiv_pos_site_id
 _symmetry_equiv_pos_as_xyz
  1  'x, y, z'
loop_
 _atom_site_type_symbol
 _atom_site_label
 _atom_site_symmetry_multiplicity
 _atom_site_fract_x
 _atom_site_fract_y
 _atom_site_fract_z
 _atom_site_occupancy
 _atom_site_hle17_bader_spin_density
 _atom_site_hle17_ddec_charge
 _atom_site_hle17_ddec_spin_density
 _atom_site_hle17_ddec_sum_bond_order
 _atom_site_hle17_magmom
 _atom_site_hse06_10hf_bader_spin_density
 _atom_site_hse06_10hf_ddec_charge
 _atom_site_hse06_10hf_ddec_spin_density
 _atom_site_hse06_10hf_ddec_sum_bond_order
 _atom_site_hse06_10hf_magmom
 _atom_site_hse06_bader_spin_density
 _atom_site_hse06_ddec_charge
 _atom_site_hse06_ddec_spin_density
 _atom_site_hse06_ddec_sum_bond_order
 _atom_site_hse06_magmom
 _atom_site_pbe_bader_charge
 _atom_site_pbe_bader_spin_density
 _atom_site_pbe_cm5_charge
 _atom_site_pbe_ddec_charge
 _atom_site_pbe_ddec_spin_density
 _atom_site_pbe_ddec_sum_bond_order
 _atom_site_pbe_magmom
U  U0  1  0.99363722  0.28829101  0.60341065  1  0  2.537543  0  4.112669  0  0  2.602316  0  4.760269  0  0  2.707623  0  4.724454  0  2.952318  0  2.19706  2.526972  0  4.786637  0
U  U1  1  0.00636412  0.78829221  0.89658911  1  0  2.537599  0  4.11239  0  0  2.602345  0  4.759992  0  0  2.707649  0  4.724171  0  2.952264  0  2.197074  2.527011  0  4.786348  0
U  U2  1  0.00636540  0.71170723  0.39658992  1  0  2.537589  0  4.112436  0  0  2.602288  0  4.760078  0  0  2.707579  0  4.724276  0  2.952403  0  2.197049  2.526954  0  4.786421  0
U  U3  1  0.99363467  0.21170852  0.10340978  1  0  2.537638  0  4.112674  0  0  2.602362  0  4.760289  0  0  2.707651  0  4.724496  0  2.952337  0  2.197114  2.527055  0  4.786599  0
H  H4  1  0.02179230  0.04565576  0.66503790  1  0  0.445414  0  0.839235  0  0  0.423504  0  0.887623  0  0  0.434996  0  0.871101  0  0.652002  0  0.313803  0.415221  0  0.899514  0
H  H5  1  0.97821032  0.54565612  0.83496268  1  0  0.445435  0  0.83917  0  0  0.423516  0  0.887604  0  0  0.435008  0  0.871083  0  0.652034  0  0.313783  0.415231  0  0.899497  0
H  H6  1  0.97821032  0.95434331  0.33496268  1  0  0.445444  0  0.839129  0  0  0.423525  0  0.887583  0  0  0.435017  0  0.871062  0  0.652028  0  0.313794  0.415239  0  0.899477  0
H  H7  1  0.02179230  0.45434461  0.16503790  1  0  0.44542  0  0.839222  0  0  0.423506  0  0.887619  0  0  0.434998  0  0.871097  0  0.652005  0  0.3138  0.415223  0  0.89951  0
H  H8  1  0.82042017  0.06966913  0.62263124  1  0  0.394504  0  0.919515  0  0  0.354831  0  1.001017  0  0  0.36828  0  0.982341  0  0.65084  0  0.291381  0.34534  0  1.014134  0
H  H9  1  0.17958246  0.56967032  0.87737008  1  0  0.394511  0  0.919479  0  0  0.354857  0  1.000968  0  0  0.368306  0  0.982293  0  0.650835  0  0.291396  0.345365  0  1.014086  0
H  H10  1  0.17958246  0.93032994  0.37737008  1  0  0.394525  0  0.919435  0  0  0.35485  0  1.000976  0  0  0.368298  0  0.982301  0  0.650833  0  0.291397  0.345358  0  1.014094  0
H  H11  1  0.82042017  0.43033041  0.12263124  1  0  0.394503  0  0.919509  0  0  0.354834  0  1.001012  0  0  0.368283  0  0.982337  0  0.650842  0  0.291377  0.345343  0  1.014129  0
H  H12  1  0.52375470  0.13684669  0.31896128  1  0  0.108278  0  0.953394  0  0  0.116461  0  1.015773  0  0  0.119103  0  1.015818  0  0.134747  0  0.110653  0.114583  0  1.015743  0
H  H13  1  0.47624792  0.63684788  0.18103780  1  0  0.108267  0  0.9534  0  0  0.11644  0  1.015781  0  0  0.11908  0  1.015827  0  0.134769  0  0.110648  0.114539  0  1.015775  0
H  H14  1  0.47624792  0.86315321  0.68103780  1  0  0.108273  0  0.953411  0  0  0.116458  0  1.015781  0  0  0.119099  0  1.015827  0  0.134745  0  0.110654  0.114553  0  1.01578  0
H  H15  1  0.52375087  0.36315201  0.81896110  1  0  0.108261  0  0.953395  0  0  0.116436  0  1.015775  0  0  0.119078  0  1.015819  0  0.134765  0  0.110643  0.114525  0  1.015781  0
H  H16  1  0.27432909  0.26385018  0.32528325  1  0  0.111407  0  0.966402  0  0  0.120062  0  1.026364  0  0  0.123747  0  1.024138  0  0.123378  0  0.113138  0.117353  0  1.028097  0
H  H17  1  0.72567353  0.76385138  0.17471582  1  0  0.111443  0  0.966333  0  0  0.120078  0  1.026336  0  0  0.123761  0  1.024106  0  0.123366  0  0.113129  0.117369  0  1.02807  0
H  H18  1  0.72567226  0.73614972  0.67471501  1  0  0.111451  0  0.966374  0  0  0.120081  0  1.026371  0  0  0.123764  0  1.024143  0  0.123366  0  0.113146  0.117373  0  1.028106  0
H  H19  1  0.27432654  0.23614769  0.82528313  1  0  0.111427  0  0.966356  0  0  0.120056  0  1.026357  0  0  0.123738  0  1.024129  0  0.123365  0  0.11313  0.117347  0  1.028092  0
H  H20  1  0.32163153  0.46784449  0.35017130  1  0  0.114021  0  0.938464  0  0  0.122297  0  0.998458  0  0  0.126162  0  0.995466  0  0.101428  0  0.115076  0.119536  0  1.000651  0
H  H21  1  0.67836854  0.96784568  0.14982690  1  0  0.114034  0  0.938458  0  0  0.122313  0  0.998446  0  0  0.126177  0  0.995454  0  0.101397  0  0.115056  0.119551  0  1.000642  0
H  H22  1  0.67836854  0.53215541  0.64982615  1  0  0.114032  0  0.938472  0  0  0.122316  0  0.998454  0  0  0.12618  0  0.995461  0  0.101398  0  0.115075  0.119554  0  1.000649  0
H  H23  1  0.32163153  0.03215338  0.85017130  1  0  0.114  0  0.93849  0  0  0.122298  0  0.998466  0  0  0.126162  0  0.995475  0  0.101399  0  0.115071  0.119536  0  1.00066  0
H  H24  1  0.61771205  0.54200276  0.37050583  1  0  0.11177  0  0.939679  0  0  0.121853  0  0.997999  0  0  0.125168  0  0.996141  0  0.134535  0  0.119143  0.119554  0  0.999397  0
H  H25  1  0.38228930  0.04200240  0.12949318  1  0  0.111753  0  0.939729  0  0  0.121842  0  0.998034  0  0  0.125157  0  0.996177  0  0.134523  0  0.119145  0.119544  0  0.99943  0
H  H26  1  0.38228802  0.45799797  0.62949312  1  0  0.111731  0  0.9397  0  0  0.121818  0  0.998017  0  0  0.125132  0  0.996159  0  0.134525  0  0.119119  0.119519  0  0.999414  0
H  H27  1  0.61771333  0.95799667  0.87050514  1  0  0.111748  0  0.93971  0  0  0.121839  0  0.99802  0  0  0.125154  0  0.996162  0  0.134511  0  0.119143  0.119539  0  0.999419  0
H  H28  1  0.49297498  0.34088590  0.11286203  1  0  0.108438  0  0.933236  0  0  0.118862  0  0.988218  0  0  0.121137  0  0.987338  0  0.145398  0  0.130009  0.11732  0  0.988939  0
H  H29  1  0.50702381  0.84088460  0.38713686  1  0  0.108425  0  0.933233  0  0  0.118852  0  0.988217  0  0  0.121127  0  0.987338  0  0.14536  0  0.130009  0.11731  0  0.988937  0
H  H30  1  0.50702381  0.65911566  0.88713686  1  0  0.108415  0  0.933232  0  0  0.118843  0  0.988214  0  0  0.121118  0  0.987335  0  0.145348  0  0.13  0.117302  0  0.988933  0
H  H31  1  0.49297498  0.15911446  0.61286279  1  0  0.108434  0  0.933256  0  0  0.11886  0  0.988233  0  0  0.121135  0  0.987354  0  0.145384  0  0.130012  0.117319  0  0.988953  0
H  H32  1  0.76545984  0.60286325  0.99971967  1  0  0.097162  0  0.972128  0  0  0.101213  0  1.039818  0  0  0.104294  0  1.037417  0  0.127463  0  0.126097  0.098967  0  1.041726  0
H  H33  1  0.23454023  0.10286538  0.50028079  1  0  0.097247  0  0.972025  0  0  0.101243  0  1.039802  0  0  0.104326  0  1.037397  0  0.127442  0  0.126095  0.098997  0  1.041709  0
H  H34  1  0.23453895  0.39713582  0.00027997  1  0  0.097236  0  0.972038  0  0  0.101249  0  1.03979  0  0  0.104331  0  1.037387  0  0.12745  0  0.126111  0.099003  0  1.041698  0
H  H35  1  0.76545984  0.89713785  0.49971967  1  0  0.09716  0  0.972166  0  0  0.101227  0  1.039829  0  0  0.104311  0  1.037421  0  0.127469  0  0.126102  0.098981  0  1.041738  0
C  C36  1  0.90755617  0.43452349  0.38882412  1  0  0.726533  0  3.805927  0  0  0.694763  0  4.096968  0  0  0.736283  0  4.080231  0  1.604398  0  0.25846  0.665941  0  4.107577  0
C  C37  1  0.09244390  0.93452469  0.11117634  1  0  0.726446  0  3.805985  0  0  0.694688  0  4.097041  0  0  0.736224  0  4.080273  0  1.604396  0  0.258357  0.665866  0  4.107649  0
C  C38  1  0.09244646  0.56547557  0.61117946  1  0  0.726553  0  3.805911  0  0  0.694758  0  4.097019  0  0  0.736296  0  4.080248  0  1.604763  0  0.258369  0.665935  0  4.107629  0
C  C39  1  0.90755489  0.06547687  0.88882331  1  0  0.726487  0  3.805891  0  0  0.694726  0  4.096949  0  0  0.736243  0  4.080221  0  1.604386  0  0.258401  0.665905  0  4.107558  0
C  C40  1  0.73720890  0.38178306  0.36348127  1  0  -0.067645  0  3.734671  0  0  -0.057663  0  3.967929  0  0  -0.063025  0  3.988719  0  -0.003904  0  0.001771  -0.054121  0  3.954091  0
C  C41  1  0.26279116  0.88178426  0.13651844  1  0  -0.067598  0  3.734551  0  0  -0.057638  0  3.967829  0  0  -0.063006  0  3.988622  0  -0.004096  0  0.001796  -0.054095  0  3.953991  0
C  C42  1  0.26279372  0.61821600  0.63652231  1  0  -0.067701  0  3.734748  0  0  -0.057716  0  3.96801  0  0  -0.063089  0  3.988798  0  -0.004068  0  0.001763  -0.05417  0  3.95417  0
C  C43  1  0.73720763  0.11821647  0.86348121  1  0  -0.067617  0  3.734517  0  0  -0.057644  0  3.967795  0  0  -0.063004  0  3.988586  0  -0.004099  0  0.00178  -0.054101  0  3.953959  0
C  C44  1  0.70848286  0.26658126  0.35015596  1  0  -0.145254  0  3.727947  0  0  -0.132543  0  3.982544  0  0  -0.13977  0  4.005527  0  -0.122876  0  -0.003964  -0.12769  0  3.967098  0
C  C45  1  0.29151848  0.76658162  0.14984456  1  0  -0.145224  0  3.727859  0  0  -0.132492  0  3.982429  0  0  -0.139723  0  4.005419  0  -0.122872  0  -0.003926  -0.127637  0  3.966977  0
C  C46  1  0.29151848  0.73341781  0.64984756  1  0  -0.145293  0  3.727953  0  0  -0.132549  0  3.982505  0  0  -0.139766  0  4.005475  0  -0.122882  0  -0.003983  -0.1277  0  3.967052  0
C  C47  1  0.70848286  0.23341827  0.85015596  1  0  -0.145303  0  3.727904  0  0  -0.132586  0  3.982487  0  0  -0.139817  0  4.005476  0  -0.122875  0  -0.003969  -0.127732  0  3.967032  0
C  C48  1  0.54267338  0.22530155  0.33341745  1  0  -0.060106  0  3.733021  0  0  -0.087471  0  3.990185  0  0  -0.087861  0  4.011853  0  -0.107248  0  -0.075055  -0.086789  0  3.97498  0
C  C49  1  0.45732925  0.72530274  0.16658238  1  0  -0.060083  0  3.733063  0  0  -0.087422  0  3.990201  0  0  -0.087813  0  4.011876  0  -0.10684  0  -0.075052  -0.086723  0  3.975006  0
C  C50  1  0.45732797  0.77469835  0.66658382  1  0  -0.060081  0  3.733081  0  0  -0.087446  0  3.990215  0  0  -0.087838  0  4.01188  0  -0.106841  0  -0.075034  -0.086739  0  3.975019  0
C  C51  1  0.54267082  0.27469715  0.83341808  1  0  -0.06002  0  3.732979  0  0  -0.087367  0  3.99011  0  0  -0.087756  0  4.011778  0  -0.106806  0  -0.075018  -0.086659  0  3.974919  0
C  C52  1  0.40329614  0.29723521  0.33526976  1  0  -0.029229  0  3.681961  0  0  -0.048514  0  3.93904  0  0  -0.050471  0  3.957873  0  -0.072618  0  -0.067079  -0.046923  0  3.925855  0
C  C53  1  0.59670521  0.79723641  0.16472850  1  0  -0.029358  0  3.681931  0  0  -0.048658  0  3.93906  0  0  -0.050611  0  3.957886  0  -0.073025  0  -0.067135  -0.047067  0  3.92587  0
C  C54  1  0.59670521  0.70276469  0.66472850  1  0  -0.02928  0  3.682013  0  0  -0.048565  0  3.939115  0  0  -0.050517  0  3.957945  0  -0.073018  0  -0.067097  -0.046974  0  3.925924  0
C  C55  1  0.40329359  0.20276266  0.83527114  1  0  -0.029292  0  3.681977  0  0  -0.048567  0  3.939074  0  0  -0.050518  0  3.957901  0  -0.073032  0  -0.067079  -0.046975  0  3.925881  0
C  C56  1  0.42957641  0.41107896  0.34912078  1  0  -0.029788  0  3.680791  0  0  -0.045872  0  3.933932  0  0  -0.045621  0  3.951969  0  0.097196  0  -0.066366  -0.045842  0  3.921297  0
C  C57  1  0.57042366  0.91108016  0.15087742  1  0  -0.029718  0  3.680723  0  0  -0.045796  0  3.933841  0  0  -0.045542  0  3.951876  0  0.097184  0  -0.066276  -0.045764  0  3.921205  0
C  C58  1  0.57042494  0.58892011  0.65087823  1  0  -0.029785  0  3.680855  0  0  -0.04587  0  3.933981  0  0  -0.045619  0  3.95202  0  0.097231  0  -0.066374  -0.045839  0  3.921347  0
C  C59  1  0.42957513  0.08891974  0.84912148  1  0  -0.029753  0  3.680864  0  0  -0.045856  0  3.933999  0  0  -0.045606  0  3.952039  0  0.09717  0  -0.066376  -0.045825  0  3.921365  0
C  C60  1  0.59556470  0.45299820  0.36059300  1  0  -0.052281  0  3.675321  0  0  -0.075988  0  3.921253  0  0  -0.077583  0  3.941482  0  -0.10628  0  -0.064231  -0.074742  0  3.907271  0
C  C61  1  0.40443665  0.95299856  0.13940526  1  0  -0.052305  0  3.675388  0  0  -0.076  0  3.921309  0  0  -0.077595  0  3.941541  0  -0.106094  0  -0.064271  -0.07475  0  3.907322  0
C  C62  1  0.40443793  0.54700087  0.63940757  1  0  -0.052232  0  3.675409  0  0  -0.075935  0  3.921329  0  0  -0.077531  0  3.941564  0  -0.106192  0  -0.064189  -0.074687  0  3.907344  0
C  C63  1  0.59556214  0.04700051  0.86059363  1  0  -0.052283  0  3.675316  0  0  -0.075991  0  3.921252  0  0  -0.077587  0  3.941483  0  -0.106074  0  -0.06424  -0.074744  0  3.907269  0
C  C64  1  0.49676433  0.41234304  0.06281875  1  0  0.087414  0  3.643516  0  0  0.058697  0  3.896643  0  0  0.06015  0  3.915223  0  0.529215  0  0.069052  0.057784  0  3.883948  0
C  C65  1  0.50323318  0.91234174  0.43718083  1  0  0.087458  0  3.643497  0  0  0.05868  0  3.896646  0  0  0.060133  0  3.915225  0  0.529219  0  0.069037  0.057768  0  3.883952  0
C  C66  1  0.50323191  0.58765935  0.93718077  1  0  0.087442  0  3.64348  0  0  0.058687  0  3.896635  0  0  0.060141  0  3.915215  0  0.529212  0  0.069042  0.057774  0  3.88394  0
C  C67  1  0.49676433  0.08765816  0.56281875  1  0  0.087416  0  3.643525  0  0  0.058681  0  3.89664  0  0  0.060135  0  3.915219  0  0.529209  0  0.069054  0.057769  0  3.883945  0
C  C68  1  0.64644192  0.55688731  0.99974789  1  0  0.089204  0  3.65628  0  0  0.059763  0  3.912959  0  0  0.061978  0  3.929818  0  0.505478  0  0.063695  0.058166  0  3.901669  0
C  C69  1  0.35355559  0.05688695  0.50025245  1  0  0.089179  0  3.656291  0  0  0.059731  0  3.912992  0  0  0.061947  0  3.92985  0  0.505433  0  0.063689  0.058136  0  3.901702  0
C  C70  1  0.35355559  0.44311425  0.00025170  1  0  0.089162  0  3.656243  0  0  0.059712  0  3.912951  0  0  0.061927  0  3.929809  0  0.505471  0  0.063666  0.058117  0  3.90166  0
C  C71  1  0.64644192  0.94311295  0.49974789  1  0  0.089182  0  3.656359  0  0  0.059737  0  3.912991  0  0  0.061952  0  3.92985  0  0.505394  0  0.063687  0.058141  0  3.901701  0
S  S72  1  0.87799613  0.16798215  0.35334006  1  0  1.349759  0  5.52679  0  0  1.262148  0  6.047536  0  0  1.31497  0  6.018938  0  3.143597  0  0.558823  1.225225  0  6.066177  0
S  S73  1  0.12200777  0.66798252  0.14666057  1  0  1.349734  0  5.52682  0  0  1.262108  0  6.04758  0  0  1.314931  0  6.018984  0  3.143739  0  0.55884  1.225185  0  6.066219  0
S  S74  1  0.12200521  0.83201691  0.64666120  1  0  1.349731  0  5.526688  0  0  1.262109  0  6.047448  0  0  1.314928  0  6.01885  0  3.143755  0  0.558844  1.225188  0  6.066084  0
S  S75  1  0.87799486  0.33201738  0.85333925  1  0  1.349781  0  5.5267  0  0  1.262171  0  6.047445  0  0  1.314995  0  6.01885  0  3.143755  0  0.558888  1.22525  0  6.066082  0
N  N76  1  0.64314428  0.46974061  0.06243772  1  0  -0.25652  0  3.162991  0  0  -0.196855  0  3.406829  0  0  -0.207897  0  3.422601  0  -1.230854  0  -0.278752  -0.189188  0  3.396209  0
N  N77  1  0.35685579  0.96973931  0.43756198  1  0  -0.256598  0  3.16303  0  0  -0.196867  0  3.406835  0  0  -0.207909  0  3.422607  0  -1.230783  0  -0.278772  -0.189201  0  3.396217  0
N  N78  1  0.35685579  0.53026179  0.93756198  1  0  -0.25659  0  3.163009  0  0  -0.196901  0  3.406839  0  0  -0.207943  0  3.422613  0  -1.230821  0  -0.278781  -0.189234  0  3.39622  0
N  N79  1  0.64314428  0.03025976  0.56243847  1  0  -0.256553  0  3.162985  0  0  -0.196861  0  3.40679  0  0  -0.207904  0  3.422564  0  -1.230763  0  -0.278775  -0.189195  0  3.396171  0
O  O80  1  0.76636535  0.31274598  0.59678831  1  0  -0.700992  0  1.529813  0  0  -0.712776  0  1.808139  0  0  -0.734804  0  1.799661  0  -0.860779  0  -0.758994  -0.699762  0  1.814952  0
O  O81  1  0.23363344  0.81275299  0.90321058  1  0  -0.700973  0  1.529711  0  0  -0.712746  0  1.808032  0  0  -0.734768  0  1.799554  0  -0.860795  0  -0.758994  -0.699736  0  1.814845  0
O  O82  1  0.23363472  0.68724727  0.40321139  1  0  -0.700976  0  1.529752  0  0  -0.712729  0  1.808065  0  0  -0.73475  0  1.799591  0  -0.860804  0  -0.75898  -0.699718  0  1.814876  0
O  O83  1  0.76636535  0.18725356  0.09678756  1  0  -0.701031  0  1.529876  0  0  -0.712805  0  1.808214  0  0  -0.734828  0  1.799738  0  -0.860784  0  -0.759027  -0.6998  0  1.815019  0
O  O84  1  0.21917974  0.25668318  0.61209530  1  0  -0.701971  0  1.545251  0  0  -0.709356  0  1.826796  0  0  -0.730769  0  1.81501  0  -0.858276  0  -0.755566  -0.696691  0  1.835974  0
O  O85  1  0.78081650  0.75668271  0.88790498  1  0  -0.701983  0  1.545106  0  0  -0.709366  0  1.826642  0  0  -0.730779  0  1.814857  0  -0.858182  0  -0.755542  -0.696705  0  1.83582  0
O  O86  1  0.78081650  0.74331672  0.38790498  1  0  -0.701962  0  1.545069  0  0  -0.709346  0  1.826623  0  0  -0.730755  0  1.81484  0  -0.858309  0  -0.755521  -0.696682  0  1.835798  0
O  O87  1  0.21917974  0.24331636  0.11209530  1  0  -0.701975  0  1.545213  0  0  -0.709364  0  1.826774  0  0  -0.730774  0  1.814991  0  -0.858279  0  -0.755554  -0.696707  0  1.835945  0
O  O88  1  0.01557505  0.38823570  0.45211642  1  0  -0.656143  0  2.063091  0  0  -0.646564  0  2.330482  0  0  -0.681943  0  2.324338  0  -1.159985  0  -0.35636  -0.62056  0  2.333255  0
O  O89  1  0.98442374  0.88823689  0.04788397  1  0  -0.656164  0  2.063065  0  0  -0.646572  0  2.330447  0  0  -0.681954  0  2.324292  0  -1.159975  0  -0.356377  -0.620567  0  2.333218  0
O  O90  1  0.98442885  0.61176504  0.54788571  1  0  -0.656164  0  2.062998  0  0  -0.646553  0  2.3304  0  0  -0.681935  0  2.324246  0  -1.160222  0  -0.356373  -0.620548  0  2.333171  0
O  O91  1  0.01557377  0.11176467  0.95211561  1  0  -0.656169  0  2.063047  0  0  -0.64657  0  2.330427  0  0  -0.681943  0  2.324286  0  -1.15995  0  -0.35636  -0.62057  0  2.333197  0
O  O92  1  0.93490797  0.52834737  0.34926432  1  0  -0.658543  0  2.078738  0  0  -0.652694  0  2.353297  0  0  -0.687588  0  2.345104  0  -1.165463  0  -0.368501  -0.626866  0  2.357499  0
O  O93  1  0.06509082  0.02834784  0.15073457  1  0  -0.658443  0  2.078768  0  0  -0.652631  0  2.353328  0  0  -0.687526  0  2.345124  0  -1.165481  0  -0.368409  -0.62681  0  2.357533  0
O  O94  1  0.06509082  0.47165170  0.65073607  1  0  -0.658426  0  2.078694  0  0  -0.652654  0  2.353334  0  0  -0.687553  0  2.345129  0  -1.165537  0  -0.368399  -0.626828  0  2.357544  0
O  O95  1  0.93490797  0.97165289  0.84926432  1  0  -0.658449  0  2.078706  0  0  -0.652658  0  2.353303  0  0  -0.68755  0  2.345111  0  -1.165464  0  -0.368468  -0.626831  0  2.357506  0
O  O96  1  0.95833250  0.16428638  0.45772826  1  0  -0.721694  0  2.106405  0  0  -0.692484  0  2.390635  0  0  -0.719873  0  2.377517  0  -1.31708  0  -0.377716  -0.672266  0  2.398624  0
O  O97  1  0.04167013  0.66428841  0.04227157  1  0  -0.721752  0  2.10634  0  0  -0.692546  0  2.390586  0  0  -0.719937  0  2.377469  0  -1.317227  0  -0.377802  -0.672329  0  2.398574  0
O  O98  1  0.04166885  0.83571102  0.54227226  1  0  -0.721711  0  2.106354  0  0  -0.692486  0  2.39059  0  0  -0.719874  0  2.377474  0  -1.317221  0  -0.377768  -0.672268  0  2.398575  0
O  O99  1  0.95833122  0.33571232  0.95772820  1  0  -0.72174  0  2.106332  0  0  -0.692513  0  2.390546  0  0  -0.719901  0  2.377429  0  -1.317218  0  -0.377782  -0.672299  0  2.398531  0
O  O100  1  0.00460674  0.21040785  0.28510818  1  0  -0.711333  0  2.074969  0  0  -0.680366  0  2.356775  0  0  -0.707898  0  2.343548  0  -1.318761  0  -0.375556  -0.660146  0  2.364953  0
O  O101  1  0.99539588  0.71040822  0.21489165  1  0  -0.71132  0  2.074988  0  0  -0.680339  0  2.356811  0  0  -0.707871  0  2.343581  0  -1.318724  0  -0.375534  -0.660116  0  2.36499  0
O  O102  1  0.99539205  0.78959288  0.71489222  1  0  -0.711336  0  2.07497  0  0  -0.680367  0  2.356776  0  0  -0.707903  0  2.343549  0  -1.318789  0  -0.375552  -0.660145  0  2.364956  0
O  O103  1  0.00460674  0.28959168  0.78510818  1  0  -0.711336  0  2.074974  0  0  -0.680369  0  2.356779  0  0  -0.707905  0  2.343551  0  -1.31876  0  -0.375565  -0.660146  0  2.364959  0
O  O104  1  0.80769575  0.06024009  0.32217744  1  0  -0.630816  0  1.976031  0  0  -0.582058  0  2.21534  0  0  -0.604538  0  2.203193  0  -1.31465  0  -0.294456  -0.565932  0  2.223192  0
O  O105  1  0.19230559  0.56024045  0.17782157  1  0  -0.630735  0  1.976029  0  0  -0.582005  0  2.215367  0  0  -0.60448  0  2.203209  0  -1.314676  0  -0.294427  -0.565878  0  2.223214  0
O  O106  1  0.19230176  0.93975981  0.67782139  1  0  -0.630758  0  1.976026  0  0  -0.582036  0  2.215359  0  0  -0.604513  0  2.203206  0  -1.314645  0  -0.294438  -0.565907  0  2.223203  0
O  O107  1  0.80769703  0.43975945  0.82217675  1  0  -0.630797  0  1.976044  0  0  -0.582051  0  2.215359  0  0  -0.604521  0  2.203192  0  -1.314646  0  -0.294455  -0.565923  0  2.223206  0
O  O108  1  0.93338048  0.10384005  0.65424616  1  0  -0.859187  0  1.962664  0  0  -0.835539  0  2.179774  0  0  -0.864228  0  2.149834  0  -1.263206  0  -0.625538  -0.814425  0  2.200311  0
O  O109  1  0.06662086  0.60384208  0.84575360  1  0  -0.859221  0  1.96256  0  0  -0.835581  0  2.179683  0  0  -0.86427  0  2.149743  0  -1.263223  0  -0.625544  -0.814466  0  2.200227  0
O  O110  1  0.06662214  0.89615735  0.34575366  1  0  -0.859229  0  1.962526  0  0  -0.835595  0  2.179705  0  0  -0.86428  0  2.149767  0  -1.263205  0  -0.625555  -0.814479  0  2.200248  0
O  O111  1  0.93338048  0.39615948  0.15424616  1  0  -0.859193  0  1.962638  0  0  -0.835541  0  2.179753  0  0  -0.864228  0  2.149815  0  -1.263201  0  -0.625535  -0.81443  0  2.200284  0
