# generated using pymatgen
data_AlH12(C2O)12
_symmetry_space_group_name_H-M   'P 1'
_cell_length_a   4.21313185
_cell_length_b   24.44967710
_cell_length_c   24.44961035
_cell_angle_alpha   120.00010164
_cell_angle_beta   89.99998075
_cell_angle_gamma   89.99989911
_symmetry_Int_Tables_number   1
_chemical_formula_structural   AlH12(C2O)12
_chemical_formula_sum   'Al2 H24 C48 O24'
_cell_volume   2181.12375228
_cell_formula_units_Z   2
loop_
 _symmetry_equiv_pos_site_id
 _symmetry_equiv_pos_as_xyz
  1  'x, y, z'
loop_
 _atom_site_type_symbol
 _atom_site_label
 _atom_site_symmetry_multiplicity
 _atom_site_fract_x
 _atom_site_fract_y
 _atom_site_fract_z
 _atom_site_occupancy
 _atom_site_pbe_bader_charge
 _atom_site_pbe_bader_spin_density
 _atom_site_pbe_cm5_charge
 _atom_site_pbe_ddec_charge
 _atom_site_pbe_ddec_spin_density
 _atom_site_pbe_ddec_sum_bond_order
 _atom_site_pbe_magmom
Al  Al0  1  0.04888221  0.49999887  0.50000168  1  2.518621  0  0.450527  1.639667  0  2.516229  0
Al  Al1  1  0.04822376  0.16666600  0.83333473  1  2.51837  0  0.449812  1.638327  0  2.518265  0
H  H2  1  0.31754708  0.43442029  0.72454384  1  0.098899  0  0.108043  0.111524  0  0.994171  0
H  H3  1  0.31754585  0.23221764  0.60877842  1  0.098774  0  0.107978  0.111494  0  0.99402  0
H  H4  1  0.77276706  0.33135379  0.82495547  1  0.101439  0  0.114281  0.122016  0  0.97709  0
H  H5  1  0.75317093  0.39201253  0.76784822  1  0.049648  0  0.106175  0.107799  0  0.993481  0
H  H6  1  0.77299046  0.33532629  0.50838729  1  0.101115  0  0.114377  0.121981  0  0.97736  0
H  H7  1  0.75316223  0.27463456  0.56545966  1  0.049359  0  0.106113  0.107677  0  0.993315  0
H  H8  1  0.31751692  0.79011848  0.56557952  1  0.092079  0  0.108002  0.111505  0  0.994215  0
H  H9  1  0.31752104  0.87655832  0.76778269  1  0.093752  0  0.108062  0.111627  0  0.993947  0
H  H10  1  0.77278044  0.99359801  0.66864764  1  0.104061  0  0.114279  0.121991  0  0.977112  0
H  H11  1  0.75317098  0.87583231  0.60798854  1  0.090035  0  0.106187  0.107817  0  0.993492  0
H  H12  1  0.77301469  0.67306054  0.66467277  1  0.102959  0  0.114346  0.121942  0  0.977374  0
H  H13  1  0.75317843  0.79082509  0.72536330  1  0.090016  0  0.106137  0.107717  0  0.993331  0
H  H14  1  0.31754601  0.27545633  0.20987880  1  0.092901  0  0.108064  0.111576  0  0.994091  0
H  H15  1  0.31755974  0.39122319  0.12344274  1  0.092551  0  0.107996  0.11151  0  0.993991  0
H  H16  1  0.77277577  0.17504393  0.00640120  1  0.134559  0  0.114276  0.122023  0  0.977049  0
H  H17  1  0.75317712  0.23215179  0.12416750  1  0.052468  0  0.106135  0.107734  0  0.993533  0
H  H18  1  0.77301357  0.49160967  0.32694267  1  0.12621  0  0.114363  0.122057  0  0.97732  0
H  H19  1  0.75318786  0.43453845  0.20917900  1  0.052273  0  0.106112  0.107664  0  0.993373  0
H  H20  1  0.69333110  0.54954062  0.69042386  1  0.669519  0  0.312681  0.380179  0  0.959171  0
H  H21  1  0.69312687  0.11712954  0.64298123  1  0.669639  0  0.31273  0.380058  0  0.959282  0
H  H22  1  0.69331425  0.64087860  0.45045764  1  0.669427  0  0.312717  0.380235  0  0.959077  0
H  H23  1  0.69311524  0.02584812  0.88286799  1  0.6702  0  0.312739  0.380095  0  0.95927  0
H  H24  1  0.69333977  0.30957540  0.35912074  1  0.66977  0  0.3127  0.380192  0  0.959128  0
H  H25  1  0.69315380  0.35701910  0.97415060  1  0.670469  0  0.312727  0.37998  0  0.959385  0
C  C26  1  0.55176498  0.45268712  0.40439056  1  1.582304  0  0.276252  0.663046  0  4.061678  0
C  C27  1  0.55176247  0.45169978  0.54731270  1  1.582224  0  0.276339  0.663104  0  4.06129  0
C  C28  1  0.55176173  0.59560938  0.54830156  1  1.5589  0  0.276302  0.663181  0  4.061252  0
C  C29  1  0.55118194  0.21501079  0.78607091  1  1.584926  0  0.276373  0.663283  0  4.061582  0
C  C30  1  0.55118031  0.07105738  0.78499006  1  1.558468  0  0.27638  0.66333  0  4.061458  0
C  C31  1  0.55118893  0.21392997  0.92894254  1  1.581433  0  0.276303  0.663146  0  4.061613  0
C  C32  1  0.55262658  0.41796386  0.58375805  1  0.048612  0  -0.005489  -0.062824  0  3.941079  0
C  C33  1  0.55234246  0.24871533  0.74959558  1  0.049879  0  -0.00546  -0.062242  0  3.942367  0
C  C34  1  0.42262095  0.44600042  0.64490507  1  -0.065014  0  -0.00025  -0.035452  0  3.957754  0
C  C35  1  0.41834399  0.41240931  0.67714746  1  -0.013123  0  -0.079023  -0.146538  0  3.938993  0
C  C36  1  0.42246303  0.22066555  0.68843816  1  -0.067137  0  -0.000193  -0.038571  0  3.96173  0
C  C37  1  0.41829022  0.25423784  0.65617695  1  -0.008312  0  -0.079014  -0.145683  0  3.939466  0
C  C38  1  0.67277984  0.31026486  0.77758191  1  -0.043436  0  -0.0727  -0.070744  0  3.961388  0
C  C39  1  0.66002909  0.34400204  0.74572598  1  0.027792  0  -0.083961  -0.129464  0  3.975258  0
C  C40  1  0.67296258  0.35640496  0.55575482  1  -0.042717  0  -0.072823  -0.070936  0  3.961751  0
C  C41  1  0.66006970  0.32265179  0.58759240  1  0.028005  0  -0.08375  -0.129131  0  3.975034  0
C  C42  1  0.53681202  0.35064962  0.64913234  1  -0.077299  0  0.000296  0.076691  0  4.009679  0
C  C43  1  0.53678605  0.31599334  0.68418554  1  0.020247  0  0.000477  0.077244  0  4.008799  0
C  C44  1  0.55262056  0.66579069  0.58203594  1  0.038416  0  -0.005521  -0.061921  0  3.941787  0
C  C45  1  0.55233898  0.00087768  0.75128516  1  0.036331  0  -0.00547  -0.063172  0  3.941574  0
C  C46  1  0.42261499  0.69890052  0.55400009  1  -0.050517  0  -0.000193  -0.038517  0  3.962008  0
C  C47  1  0.41832328  0.76473477  0.58759067  1  0.002884  0  -0.078982  -0.145535  0  3.939673  0
C  C48  1  0.42244013  0.96777073  0.77933486  1  -0.050606  0  -0.00021  -0.035384  0  3.957416  0
C  C49  1  0.41827021  0.90193699  0.74576178  1  0.00134  0  -0.079129  -0.146982  0  3.9386  0
C  C50  1  0.67278605  0.96731377  0.68973606  1  0.046072  0  -0.072561  -0.070578  0  3.961479  0
C  C51  1  0.66002394  0.90172155  0.65599834  1  -0.082158  0  -0.084062  -0.129705  0  3.975375  0
C  C52  1  0.67297023  0.69934813  0.64359335  1  0.045423  0  -0.072849  -0.070882  0  3.961461  0
C  C53  1  0.66007684  0.76493980  0.67734799  1  -0.082723  0  -0.083753  -0.129202  0  3.974923  0
C  C54  1  0.53679548  0.79848005  0.64934962  1  -0.088854  0  0.000348  0.076885  0  4.009217  0
C  C55  1  0.53677373  0.86818906  0.68400539  1  0.02124  0  0.000486  0.077325  0  4.008999  0
C  C56  1  0.55264106  0.41624110  0.33421065  1  0.026709  0  -0.005554  -0.062818  0  3.940884  0
C  C57  1  0.55235645  0.25040513  0.99912278  1  0.02642  0  -0.005504  -0.06221  0  3.942361  0
C  C58  1  0.42264073  0.35509426  0.30109760  1  -0.115145  0  -0.000228  -0.035341  0  3.957304  0
C  C59  1  0.41834724  0.32285190  0.23526304  1  0.06491  0  -0.079094  -0.146722  0  3.938783  0
C  C60  1  0.42248218  0.31156310  0.03222966  1  -0.114083  0  -0.00015  -0.038555  0  3.961652  0
C  C61  1  0.41830454  0.34382367  0.09806401  1  0.062297  0  -0.079125  -0.145865  0  3.93955  0
C  C62  1  0.67279287  0.22241811  0.03268544  1  -0.089139  0  -0.072622  -0.070682  0  3.961311  0
C  C63  1  0.66003966  0.25427363  0.09827862  1  -0.008827  0  -0.083908  -0.129484  0  3.9752  0
C  C64  1  0.67297899  0.44424184  0.30065296  1  -0.0814  0  -0.072919  -0.071297  0  3.961739  0
C  C65  1  0.66009094  0.41240617  0.23506121  1  -0.008483  0  -0.083681  -0.128928  0  3.974934  0
C  C66  1  0.53681957  0.35086851  0.20152097  1  0.077407  0  0.000362  0.076792  0  4.009557  0
C  C67  1  0.53679133  0.31581432  0.13181101  1  -0.030448  0  0.000462  0.077346  0  4.008856  0
C  C68  1  0.28076174  0.51116562  0.67746247  1  1.583777  0  0.251769  0.623832  0  4.083784  0
C  C69  1  0.28051674  0.15549622  0.65589644  1  1.585025  0  0.251678  0.625159  0  4.083117  0
C  C70  1  0.28073265  0.66629197  0.48883362  1  1.581813  0  0.251816  0.624699  0  4.084217  0
C  C71  1  0.28054583  0.00039870  0.84450218  1  1.581273  0  0.251561  0.624257  0  4.082462  0
C  C72  1  0.28074880  0.32253449  0.33370587  1  1.57567  0  0.25177  0.62371  0  4.084071  0
C  C73  1  0.28053918  0.34410488  0.99960271  1  1.577974  0  0.251828  0.625415  0  4.083059  0
O  O74  1  0.78348735  0.56826292  0.55853038  1  -1.260104  0  -0.237766  -0.600721  0  2.343165  0
O  O75  1  0.78348549  0.49026360  0.43173854  1  -1.258964  0  -0.237763  -0.60068  0  2.343326  0
O  O76  1  0.78349041  0.44147084  0.50973702  1  -1.258135  0  -0.23776  -0.600678  0  2.343254  0
O  O77  1  0.31520867  0.56860279  0.51194522  1  -1.256523  0  -0.233501  -0.607258  0  2.393463  0
O  O78  1  0.31520429  0.48805583  0.55666209  1  -1.258494  0  -0.233592  -0.607315  0  2.393405  0
O  O79  1  0.31520701  0.44333788  0.43139671  1  -1.257382  0  -0.23342  -0.607206  0  2.393561  0
O  O80  1  0.78277934  0.17632713  0.90156351  1  -1.258252  0  -0.237855  -0.600333  0  2.343206  0
O  O81  1  0.78277679  0.22523426  0.82367233  1  -1.259775  0  -0.237942  -0.600431  0  2.343237  0
O  O82  1  0.78277511  0.09843537  0.77476636  1  -1.259046  0  -0.237913  -0.600486  0  2.343122  0
O  O83  1  0.31449800  0.22328267  0.90196909  1  -1.257154  0  -0.233226  -0.607183  0  2.394221  0
O  O84  1  0.31449397  0.09803239  0.82131761  1  -1.256845  0  -0.233255  -0.607267  0  2.394252  0
O  O85  1  0.31449835  0.17868246  0.77671849  1  -1.259456  0  -0.233253  -0.607251  0  2.39431  0
O  O86  1  0.45918456  0.56118219  0.69330611  1  -1.164208  0  -0.325395  -0.467454  0  2.247397  0
O  O87  1  0.99622946  0.51672894  0.69147632  1  -1.172492  0  -0.281767  -0.511333  0  2.263201  0
O  O88  1  0.45903267  0.10549321  0.64010701  1  -1.163376  0  -0.325554  -0.467566  0  2.246566  0
O  O89  1  0.99611983  0.14992304  0.64186247  1  -1.17423  0  -0.281547  -0.511134  0  2.263598  0
O  O90  1  0.45917020  0.63212005  0.43881675  1  -1.165804  0  -0.325449  -0.467463  0  2.247135  0
O  O91  1  0.99622173  0.67473998  0.48327207  1  -1.172184  0  -0.28181  -0.511252  0  2.262954  0
O  O92  1  0.45900668  0.03461161  0.89450575  1  -1.167026  0  -0.325532  -0.467557  0  2.246946  0
O  O93  1  0.99607259  0.99193599  0.85007902  1  -1.171248  0  -0.281497  -0.511378  0  2.263276  0
O  O94  1  0.45920042  0.30669318  0.36787965  1  -1.162916  0  -0.32541  -0.467502  0  2.247312  0
O  O95  1  0.99625936  0.30852361  0.32525561  1  -1.168771  0  -0.281722  -0.511162  0  2.263689  0
O  O96  1  0.45905953  0.35989293  0.96538798  1  -1.163976  0  -0.325631  -0.467632  0  2.246548  0
O  O97  1  0.99614548  0.35814000  0.00806335  1  -1.171097  0  -0.281618  -0.511224  0  2.263698  0
