# generated using pymatgen
data_Mn2H20C16O15
_symmetry_space_group_name_H-M   'P 1'
_cell_length_a   7.15995775
_cell_length_b   11.62062730
_cell_length_c   29.24371878
_cell_angle_alpha   92.17440233
_cell_angle_beta   90.08896635
_cell_angle_gamma   107.95282073
_symmetry_Int_Tables_number   1
_chemical_formula_structural   Mn2H20C16O15
_chemical_formula_sum   'Mn8 H80 C64 O60'
_cell_volume   2312.81021195
_cell_formula_units_Z   4
loop_
 _symmetry_equiv_pos_site_id
 _symmetry_equiv_pos_as_xyz
  1  'x, y, z'
loop_
 _atom_site_type_symbol
 _atom_site_label
 _atom_site_symmetry_multiplicity
 _atom_site_fract_x
 _atom_site_fract_y
 _atom_site_fract_z
 _atom_site_occupancy
 _atom_site_pbe_bader_charge
 _atom_site_pbe_bader_spin_density
 _atom_site_pbe_cm5_charge
 _atom_site_pbe_ddec_charge
 _atom_site_pbe_ddec_spin_density
 _atom_site_pbe_ddec_sum_bond_order
 _atom_site_pbe_magmom
Mn  Mn0  1  0.75383326  0.99935383  0.74997228  1  1.5422  4.510019  0.614971  1.083519  4.634858  2.300562  4.445
Mn  Mn1  1  0.24616331  0.00065478  0.25002877  1  1.542191  4.510043  0.614952  1.083589  4.634852  2.300332  4.445
Mn  Mn2  1  0.47229283  0.05307234  0.64366316  1  1.521555  4.600394  0.592035  1.117846  4.712855  2.108228  4.519
Mn  Mn3  1  0.42056903  0.94627268  0.85635314  1  1.517748  4.601848  0.591714  1.116827  4.710465  2.108469  4.52
Mn  Mn4  1  0.52767880  0.94691989  0.35634203  1  1.521443  4.60044  0.592022  1.117851  4.713061  2.108108  4.519
Mn  Mn5  1  0.57944481  0.05373417  0.14364515  1  1.517483  4.601886  0.591718  1.116753  4.71049  2.108638  4.52
Mn  Mn6  1  0.50000554  0.50000207  0.49999895  1  1.546424  4.559047  0.592967  1.099317  4.690305  2.176614  4.484
Mn  Mn7  1  0.99999933  0.49999627  0.00000360  1  1.545132  4.55931  0.593165  1.098815  4.690467  2.178918  4.485
H  H8  1  0.43637944  0.67319594  0.61617002  1  0.13991  0.000202  0.115634  0.125648  -0.000607  0.994113  0.0
H  H9  1  0.76395409  0.32670890  0.88379480  1  0.143734  0.000204  0.115995  0.125315  -0.000603  0.99533  0.0
H  H10  1  0.56362681  0.32681805  0.38383352  1  0.139841  0.000201  0.115602  0.125702  -0.000607  0.994048  0.0
H  H11  1  0.23604432  0.67330059  0.11620729  1  0.14376  0.000204  0.116006  0.125366  -0.000603  0.995291  0.0
H  H12  1  0.38044353  0.35089347  0.68949151  1  0.070078  0.00043  0.10444  0.10724  -0.000157  1.031904  0.0
H  H13  1  0.02960925  0.64869284  0.81027580  1  0.082252  0.000379  0.104366  0.106997  -0.000181  1.031478  0.0
H  H14  1  0.61959338  0.64912597  0.31051145  1  0.069916  0.000429  0.104412  0.107213  -0.000157  1.031846  0.0
H  H15  1  0.97040282  0.35130767  0.18972237  1  0.082383  0.000379  0.10436  0.106967  -0.000181  1.031397  0.0
H  H16  1  0.39287716  0.68257449  0.76283947  1  0.089634  0.000285  0.105449  0.109297  -0.000399  1.023384  0.0
H  H17  1  0.71064213  0.31642973  0.73709508  1  0.080552  0.000303  0.105135  0.108751  -0.000399  1.024275  0.0
H  H18  1  0.60711244  0.31743133  0.23716563  1  0.089442  0.000284  0.105477  0.10929  -0.000399  1.023352  0.0
H  H19  1  0.28935410  0.68356983  0.26290547  1  0.080446  0.000303  0.105149  0.108763  -0.000399  1.024443  0.0
H  H20  1  0.53306808  0.60481452  0.81544029  1  0.052703  0.000497  0.101408  0.095244  0.000144  1.033389  0.0
H  H21  1  0.92742507  0.39417238  0.68444355  1  0.084964  0.000497  0.100945  0.094086  0.000151  1.033597  0.0
H  H22  1  0.46693644  0.39519041  0.18456378  1  0.052643  0.000497  0.101405  0.095206  0.000144  1.033374  0.0
H  H23  1  0.07259312  0.60582079  0.31555928  1  0.085091  0.000498  0.100897  0.094051  0.000151  1.033543  0.0
H  H24  1  0.25491293  0.29420001  0.89365840  1  0.124618  0.000103  0.11405  0.122432  -8.2e-05  0.988881  0.0
H  H25  1  0.95840474  0.70445664  0.60609449  1  0.121403  0.000109  0.114103  0.122628  -8.3e-05  0.988498  0.0
H  H26  1  0.74508623  0.70579146  0.10633893  1  0.124583  0.000103  0.114042  0.122362  -8.2e-05  0.989014  0.0
H  H27  1  0.04158492  0.29551582  0.39390215  1  0.12123  0.000109  0.114124  0.122678  -8.3e-05  0.98836  0.0
H  H28  1  0.17349965  0.27605455  0.74757933  1  0.07249  0.00053  0.101504  0.102087  -5.2e-05  1.035171  0.0
H  H29  1  0.89581549  0.72275555  0.75212175  1  0.071036  0.000536  0.10166  0.102073  -4.8e-05  1.034965  0.0
H  H30  1  0.82654580  0.72395687  0.25241699  1  0.072209  0.00053  0.101495  0.102082  -5.2e-05  1.035157  0.0
H  H31  1  0.10418873  0.27724043  0.24787703  1  0.070095  0.000536  0.101743  0.10215  -4.8e-05  1.035017  0.0
H  H32  1  0.84440955  0.01600893  0.65990064  1  0.631242  0.000734  0.295929  0.370838  0.000222  0.983717  0.001
H  H33  1  0.82940236  0.98307915  0.84000630  1  0.637742  0.000706  0.296539  0.371906  0.000229  0.982344  0.001
H  H34  1  0.15556588  0.98398258  0.34009463  1  0.631412  0.000734  0.295927  0.370917  0.000222  0.983627  0.001
H  H35  1  0.17060416  0.01691865  0.15999148  1  0.637741  0.000706  0.296527  0.371884  0.000228  0.982366  0.001
H  H36  1  0.86131678  0.15724716  0.67106283  1  0.626631  0.00352  0.339131  0.421522  0.001555  0.846523  0.002
H  H37  1  0.70456106  0.84191003  0.82881803  1  0.62436  0.003477  0.339894  0.422296  0.001534  0.845225  0.002
H  H38  1  0.13866792  0.84274893  0.32892944  1  0.626595  0.003521  0.33914  0.421534  0.001555  0.84658  0.002
H  H39  1  0.29544874  0.15808879  0.17117396  1  0.624395  0.003475  0.339808  0.422249  0.001533  0.845307  0.002
H  H40  1  0.19330555  0.05231379  0.71419584  1  0.633617  0.002199  0.306141  0.390971  0.000744  0.936326  0.002
H  H41  1  0.14191929  0.94904578  0.78627754  1  0.619268  0.002225  0.304744  0.388798  0.000719  0.940485  0.002
H  H42  1  0.80669934  0.94772816  0.28581333  1  0.633326  0.002199  0.306074  0.390818  0.000743  0.936508  0.002
H  H43  1  0.85808366  0.05097277  0.21372438  1  0.618134  0.002235  0.304769  0.388797  0.00072  0.940462  0.002
H  H44  1  0.41184132  0.11215612  0.73154745  1  0.644881  0.001284  0.302258  0.395159  0.000587  0.938805  0.001
H  H45  1  0.29864884  0.88816244  0.76850077  1  0.649769  0.001272  0.302366  0.394689  0.000586  0.939116  0.001
H  H46  1  0.58817889  0.88786065  0.26845307  1  0.644958  0.001283  0.302206  0.395117  0.000586  0.938867  0.001
H  H47  1  0.70133339  0.11183986  0.23149880  1  0.649722  0.001272  0.302352  0.394715  0.000586  0.939082  0.001
H  H48  1  0.74433643  0.28393216  0.62503898  1  0.646508  0.001971  0.280739  0.377827  0.00138  0.980658  0.003
H  H49  1  0.46201847  0.71518052  0.87489406  1  0.647717  0.001967  0.280695  0.377348  0.001394  0.981224  0.003
H  H50  1  0.25565342  0.71605743  0.37496172  1  0.64639  0.001973  0.280716  0.377755  0.001381  0.980756  0.003
H  H51  1  0.53796801  0.28481628  0.12510883  1  0.647688  0.001968  0.280723  0.377382  0.001395  0.981128  0.003
H  H52  1  0.52014435  0.27746519  0.63012660  1  0.640661  0.001236  0.289321  0.372925  0.001451  0.985921  0.002
H  H53  1  0.24426565  0.72185222  0.86985685  1  0.638132  0.001227  0.288872  0.372056  0.001433  0.987263  0.002
H  H54  1  0.47984676  0.72253530  0.36987294  1  0.640505  0.001237  0.289339  0.372936  0.001451  0.985896  0.002
H  H55  1  0.75573188  0.27815553  0.13014110  1  0.638094  0.001227  0.28887  0.372061  0.001433  0.98725  0.002
H  H56  1  0.09892568  0.01115506  0.61164328  1  0.684033  0.001582  0.304091  0.400606  0.001633  0.924614  0.002
H  H57  1  0.08917482  0.98758055  0.88847808  1  0.638748  0.001755  0.304502  0.401712  0.001613  0.922843  0.002
H  H58  1  0.90105397  0.98883089  0.38835873  1  0.6843  0.001582  0.304056  0.400627  0.001634  0.924556  0.002
H  H59  1  0.91083628  0.01242361  0.11151844  1  0.638762  0.001755  0.304482  0.401715  0.001613  0.922839  0.002
H  H60  1  0.21708091  0.14816994  0.59933126  1  0.662561  0.002219  0.319315  0.416903  0.001477  0.883713  0.002
H  H61  1  0.07099283  0.85061236  0.90064195  1  0.648712  0.002238  0.318382  0.415334  0.001459  0.886303  0.002
H  H62  1  0.78286664  0.85181607  0.40066767  1  0.66659  0.002191  0.319312  0.41687  0.001477  0.88375  0.002
H  H63  1  0.92901912  0.14939628  0.09935705  1  0.648626  0.002239  0.318401  0.415372  0.001459  0.886233  0.002
H  H64  1  0.59250037  0.93226324  0.56580968  1  0.651375  0.002648  0.343311  0.427078  0.001577  0.84828  0.002
H  H65  1  0.66144467  0.06816613  0.93405226  1  0.64825  0.002596  0.343204  0.427015  0.001473  0.848703  0.002
H  H66  1  0.40748693  0.06774360  0.43418894  1  0.651698  0.002646  0.34336  0.427194  0.001577  0.84839  0.002
H  H67  1  0.33854988  0.93185521  0.06594560  1  0.648098  0.002597  0.343279  0.427085  0.001473  0.848432  0.002
H  H68  1  0.62165432  0.06517036  0.55130474  1  0.613399  0.003839  0.336356  0.409997  0.002668  0.87572  0.002
H  H69  1  0.55823833  0.93546089  0.94879934  1  0.616292  0.003622  0.336482  0.410829  0.002498  0.874151  0.002
H  H70  1  0.37833758  0.93484009  0.44869429  1  0.613524  0.003837  0.336411  0.410018  0.002666  0.875713  0.002
H  H71  1  0.44179534  0.06455768  0.05120155  1  0.616167  0.003623  0.336576  0.410939  0.002498  0.874008  0.002
H  H72  1  0.11141816  0.42471791  0.47320401  1  0.643669  0.001886  0.2924  0.383798  0.001246  0.954608  0.003
H  H73  1  0.68650578  0.57533386  0.02682158  1  0.634648  0.001934  0.292218  0.382906  0.001256  0.955566  0.003
H  H74  1  0.88863393  0.57528162  0.52679826  1  0.642985  0.001888  0.292402  0.383767  0.001245  0.954621  0.003
H  H75  1  0.31348465  0.42464854  0.97317660  1  0.634602  0.001934  0.292218  0.382967  0.001256  0.955498  0.003
H  H76  1  0.12698721  0.45298349  0.52643474  1  0.652178  0.001182  0.284787  0.3735  0.001048  0.977503  0.002
H  H77  1  0.67341598  0.54626375  0.97359213  1  0.650657  0.001167  0.28481  0.373063  0.001049  0.978199  0.002
H  H78  1  0.87304683  0.54700788  0.47356806  1  0.651665  0.001183  0.284856  0.373615  0.001046  0.977348  0.002
H  H79  1  0.32656479  0.45371050  0.02640625  1  0.650791  0.001165  0.284835  0.373123  0.001048  0.97813  0.002
H  H80  1  0.68279632  0.32527990  0.52247368  1  0.592111  0.001094  0.310283  0.388458  0.000719  0.9119  0.001
H  H81  1  0.35743264  0.67477667  0.97817581  1  0.59355  0.001081  0.31087  0.389052  0.000705  0.911213  0.001
H  H82  1  0.31720459  0.67472067  0.47752142  1  0.59213  0.001094  0.310259  0.388441  0.000719  0.911953  0.001
H  H83  1  0.64256813  0.32523196  0.02182387  1  0.593536  0.001081  0.310919  0.389103  0.000705  0.911168  0.001
H  H84  1  0.47744009  0.30236777  0.54490965  1  0.636773  0.000224  0.285789  0.366571  0.000581  0.980492  0.0
H  H85  1  0.17566871  0.69751569  0.95513972  1  0.639236  0.000213  0.286016  0.36618  0.000573  0.980746  0.0
H  H86  1  0.52256212  0.69763819  0.45508759  1  0.636717  0.000224  0.285885  0.36672  0.000582  0.980351  0.0
H  H87  1  0.82431878  0.30247755  0.04485968  1  0.639272  0.000213  0.286097  0.366308  0.000573  0.980549  0.0
C  C88  1  0.43503470  0.82171560  0.68982550  1  1.511185  0.030741  0.230217  0.603474  0.030207  4.147849  0.026
C  C89  1  0.61455707  0.17765982  0.81020428  1  1.510464  0.030832  0.231189  0.603481  0.030222  4.146082  0.026
C  C90  1  0.56496174  0.17830110  0.31017877  1  1.511205  0.030739  0.230102  0.60309  0.030204  4.148154  0.026
C  C91  1  0.38544607  0.82234517  0.18979636  1  1.509769  0.030831  0.23118  0.603379  0.030219  4.145843  0.026
C  C92  1  0.41633644  0.69123317  0.68966110  1  0.040075  -0.000252  -0.022186  -0.056089  -0.001389  4.027162  -0.001
C  C93  1  0.72587049  0.30822936  0.81030050  1  -0.006026  -8.8e-05  -0.022059  -0.056467  -0.001252  4.028282  -0.001
C  C94  1  0.58367216  0.30877993  0.31034174  1  0.039746  -0.000252  -0.022121  -0.055905  -0.00139  4.02702  -0.001
C  C95  1  0.27412705  0.69177559  0.18970219  1  -0.006159  -8.9e-05  -0.022087  -0.0563  -0.001253  4.027987  -0.001
C  C96  1  0.42173731  0.62804532  0.64846396  1  -0.000881  0.008259  -0.063603  -0.078983  0.005893  3.910798  0.005
C  C97  1  0.79444608  0.37164581  0.85147655  1  0.019329  0.007921  -0.064047  -0.078221  0.005642  3.911754  0.005
C  C98  1  0.57825970  0.37196414  0.35153949  1  -0.000372  0.00826  -0.063529  -0.07908  0.005893  3.910611  0.005
C  C99  1  0.20555370  0.62836640  0.14852559  1  0.019375  0.007924  -0.064037  -0.078384  0.005645  3.911455  0.005
C  C100  1  0.41068974  0.50580006  0.64842290  1  -0.035497  -0.000414  -0.016957  -0.044222  -0.001441  3.980037  -0.001
C  C101  1  0.90553080  0.49388910  0.85145341  1  -0.066464  -0.00034  -0.017502  -0.044752  -0.001379  3.978813  -0.001
C  C102  1  0.58930403  0.49420853  0.35157883  1  -0.035684  -0.000413  -0.016934  -0.044202  -0.001441  3.980194  -0.001
C  C103  1  0.09446680  0.50611320  0.14854616  1  -0.066378  -0.00034  -0.017462  -0.044599  -0.00138  3.978598  -0.001
C  C104  1  0.38894620  0.44627171  0.68974872  1  -0.036532  0.012109  -0.07172  -0.120736  0.00948  3.884916  0.007
C  C105  1  0.94292971  0.55320885  0.81007153  1  -0.060415  0.011554  -0.071534  -0.121067  0.009033  3.885027  0.007
C  C106  1  0.61106852  0.55373688  0.31025302  1  -0.036287  0.012111  -0.071715  -0.120735  0.009482  3.884729  0.007
C  C107  1  0.05708136  0.44679525  0.18992807  1  -0.060587  0.011557  -0.071583  -0.121141  0.009035  3.884611  0.007
C  C108  1  0.38376417  0.50922868  0.73156791  1  0.03012  -0.001976  -0.006958  0.066213  -0.002369  3.98809  -0.002
C  C109  1  0.87449778  0.49000245  0.76827484  1  0.020708  -0.001743  -0.006751  0.066189  -0.00212  3.992458  -0.002
C  C110  1  0.61626134  0.49077357  0.26843406  1  0.030263  -0.001976  -0.006894  0.066355  -0.002369  3.987833  -0.002
C  C111  1  0.12551648  0.51000521  0.23172825  1  0.020525  -0.001744  -0.006707  0.066219  -0.002121  3.992236  -0.002
C  C112  1  0.39971688  0.63228224  0.73097977  1  -0.096273  0.011074  -0.075326  -0.124671  0.008412  3.909843  0.007
C  C113  1  0.76778666  0.36692158  0.76893805  1  -0.023485  0.011212  -0.074548  -0.122871  0.00856  3.912755  0.007
C  C114  1  0.60029504  0.36772634  0.26902299  1  -0.096194  0.011071  -0.075435  -0.124701  0.008409  3.90994  0.007
C  C115  1  0.23221741  0.63308246  0.23106531  1  -0.023292  0.011208  -0.074531  -0.122903  0.008557  3.912973  0.007
C  C116  1  0.35549661  0.44880823  0.77574661  1  0.044273  -0.000109  -0.008821  0.063753  -0.000273  4.006491  0.0
C  C117  1  0.90581162  0.55017213  0.72405841  1  0.031763  -0.000168  -0.008608  0.062924  -0.000344  4.009315  0.0
C  C118  1  0.64452707  0.55119315  0.22425329  1  0.044216  -0.000107  -0.008801  0.06351  -0.000271  4.006744  0.0
C  C119  1  0.09420807  0.44981571  0.27593988  1  0.032096  -0.000168  -0.008577  0.062991  -0.000344  4.009194  0.0
C  C120  1  0.43682779  0.51203159  0.81651238  1  0.002305  0.004832  -0.074871  -0.12087  0.003746  3.928909  0.003
C  C121  1  0.92364998  0.48688138  0.68333172  1  -0.058175  0.004812  -0.074453  -0.118524  0.003708  3.928538  0.003
C  C122  1  0.56317910  0.48796973  0.18349128  1  0.003099  0.004826  -0.074915  -0.120742  0.003741  3.92903  0.003
C  C123  1  0.07635204  0.51310462  0.31666756  1  -0.057973  0.004816  -0.074385  -0.118489  0.003712  3.928177  0.003
C  C124  1  0.40203915  0.45775804  0.85879604  1  -0.109819  -6e-05  -0.018453  -0.044141  -0.000322  3.983717  0.0
C  C125  1  0.94243423  0.54105428  0.64103013  1  -0.029123  -2.3e-05  -0.018945  -0.04666  -0.000244  3.984312  0.0
C  C126  1  0.59794927  0.54223425  0.14120574  1  -0.110448  -5.9e-05  -0.01843  -0.044066  -0.000321  3.983642  0.0
C  C127  1  0.05756408  0.45892987  0.35897116  1  -0.028363  -2.3e-05  -0.018956  -0.046575  -0.000245  3.984186  0.0
C  C128  1  0.28307103  0.33729088  0.86087653  1  0.024028  0.004574  -0.0658  -0.080845  0.003249  3.901338  0.003
C  C129  1  0.94371854  0.66146022  0.63887556  1  0.029808  0.004428  -0.065046  -0.079202  0.003134  3.901051  0.003
C  C130  1  0.71691972  0.66270330  0.13912085  1  0.023499  0.00457  -0.06574  -0.080768  0.003246  3.90146  0.003
C  C131  1  0.05627153  0.33851587  0.36112080  1  0.029562  0.004432  -0.065208  -0.079514  0.003137  3.901385  0.003
C  C132  1  0.20227016  0.27263429  0.82053015  1  -0.01747  0.000511  -0.024355  -0.053237  -0.000281  4.009578  0.0
C  C133  1  0.92753246  0.72608856  0.67917439  1  -0.043361  0.000533  -0.02457  -0.05398  -0.000324  4.009759  0.0
C  C134  1  0.79773733  0.72736268  0.17946386  1  -0.017669  0.000513  -0.024284  -0.053044  -0.000279  4.00982  0.0
C  C135  1  0.07247136  0.27390387  0.32081988  1  -0.043785  0.000531  -0.024594  -0.053855  -0.000326  4.009908  0.0
C  C136  1  0.23974110  0.32827415  0.77836409  1  -0.02933  0.003974  -0.078477  -0.12519  0.002832  3.921454  0.002
C  C137  1  0.90987574  0.67054320  0.72136517  1  -0.052891  0.004228  -0.078819  -0.124845  0.003031  3.922838  0.002
C  C138  1  0.76027985  0.67172460  0.22163166  1  -0.02874  0.003969  -0.078546  -0.12526  0.002829  3.921754  0.002
C  C139  1  0.09013226  0.32944921  0.27863047  1  -0.052069  0.004229  -0.078864  -0.124953  0.003032  3.922934  0.002
C  C140  1  0.49596573  0.52771899  0.90167110  1  1.542653  0.001055  0.210238  0.576444  0.000886  4.204841  0.001
C  C141  1  0.96599225  0.47100506  0.59818405  1  1.53426  0.001059  0.210638  0.577326  0.000884  4.202652  0.001
C  C142  1  0.50399986  0.47227234  0.09833340  1  1.542955  0.001054  0.210237  0.576417  0.000886  4.204963  0.001
C  C143  1  0.03401406  0.52897275  0.40181714  1  1.533742  0.001059  0.210664  0.577326  0.000885  4.202951  0.001
C  C144  1  0.07275591  0.14522667  0.82046393  1  1.488298  0.016385  0.224002  0.58942  0.015721  4.148806  0.014
C  C145  1  0.92489832  0.85345214  0.67929428  1  1.496626  0.016652  0.224217  0.590073  0.01596  4.146273  0.014
C  C146  1  0.92725482  0.85477119  0.17953112  1  1.489188  0.016372  0.223988  0.58937  0.015708  4.148792  0.014
C  C147  1  0.07506514  0.14652940  0.32070115  1  1.496258  0.016674  0.224207  0.589997  0.015971  4.146695  0.014
C  C148  1  0.42987076  0.44565453  0.60318610  1  1.578364  0.014205  0.226815  0.599252  0.013439  4.157121  0.012
C  C149  1  0.98475361  0.55422633  0.89672079  1  1.587386  0.014262  0.227024  0.599723  0.013482  4.153326  0.012
C  C150  1  0.57013469  0.55435228  0.39681424  1  1.578806  0.014202  0.226883  0.599441  0.013444  4.157149  0.012
C  C151  1  0.01524904  0.44578050  0.10327852  1  1.587466  0.014268  0.227057  0.599826  0.01349  4.15326  0.012
O  O152  1  0.47748180  0.88307382  0.72833545  1  -1.230505  0.065645  -0.322016  -0.622006  0.046819  2.39675  0.026
O  O153  1  0.59558702  0.11622183  0.77170879  1  -1.229309  0.065295  -0.322845  -0.622556  0.046667  2.397329  0.026
O  O154  1  0.52248866  0.11693564  0.27166835  1  -1.230301  0.065657  -0.322063  -0.621955  0.046832  2.396936  0.026
O  O155  1  0.40442257  0.88378768  0.22829193  1  -1.229369  0.065278  -0.3228  -0.622489  0.046661  2.397078  0.026
O  O156  1  0.41388554  0.86909106  0.65248580  1  -1.187587  0.073949  -0.301446  -0.551767  0.049749  2.291262  0.03
O  O157  1  0.54651108  0.13033085  0.84755400  1  -1.185766  0.074067  -0.302347  -0.552421  0.049975  2.291163  0.031
O  O158  1  0.58612270  0.13091573  0.34751556  1  -1.187679  0.073945  -0.301414  -0.551673  0.049741  2.291073  0.03
O  O159  1  0.45350468  0.86967144  0.15244591  1  -1.185038  0.074049  -0.302346  -0.552435  0.049973  2.291115  0.031
O  O160  1  0.49907445  0.51650379  0.57116186  1  -1.198951  0.058017  -0.305375  -0.552972  0.0387  2.326778  0.02
O  O161  1  0.98197278  0.48351165  0.92887295  1  -1.195541  0.057736  -0.305005  -0.552182  0.038518  2.327289  0.02
O  O162  1  0.50096852  0.48351380  0.42884312  1  -1.199315  0.058042  -0.305414  -0.553058  0.038717  2.32692  0.02
O  O163  1  0.01805358  0.51649790  0.07112641  1  -1.195759  0.057779  -0.305038  -0.552194  0.038528  2.327331  0.02
O  O164  1  0.38272105  0.32971536  0.59901609  1  -1.216885  0.009947  -0.31781  -0.585594  0.005961  2.228597  0.007
O  O165  1  0.05453081  0.67015099  0.90081525  1  -1.222231  0.009848  -0.317695  -0.585422  0.005859  2.228527  0.007
O  O166  1  0.61727419  0.67028779  0.40098623  1  -1.217136  0.009953  -0.317853  -0.585685  0.005965  2.228704  0.007
O  O167  1  0.94545875  0.32986036  0.09918448  1  -1.222106  0.009853  -0.3177  -0.58556  0.005863  2.22856  0.007
O  O168  1  0.02704179  0.09035884  0.78092165  1  -1.219407  0.061013  -0.331021  -0.617042  0.043467  2.393055  0.026
O  O169  1  0.93347720  0.90785431  0.71886986  1  -1.216175  0.061557  -0.331705  -0.615742  0.043793  2.39218  0.026
O  O170  1  0.97296578  0.90963271  0.21907157  1  -1.219987  0.061007  -0.331029  -0.61706  0.043462  2.392917  0.026
O  O171  1  0.06644681  0.09211816  0.28112609  1  -1.215483  0.061541  -0.331521  -0.615672  0.04378  2.392857  0.026
O  O172  1  0.00851045  0.09372150  0.85762455  1  -1.174482  0.014327  -0.306299  -0.546124  0.009037  2.18232  0.011
O  O173  1  0.91225305  0.90524361  0.64216029  1  -1.174035  0.014756  -0.306643  -0.546552  0.009385  2.181534  0.011
O  O174  1  0.99149530  0.90626642  0.14236895  1  -1.174613  0.014319  -0.306287  -0.54613  0.009032  2.182261  0.011
O  O175  1  0.08771600  0.09473794  0.35783480  1  -1.174325  0.014761  -0.306786  -0.546688  0.009389  2.181417  0.011
O  O176  1  0.50909788  0.46602710  0.93597163  1  -1.195899  0.00217  -0.31261  -0.55858  0.000633  2.220922  0.001
O  O177  1  0.04137437  0.53262753  0.56394608  1  -1.194336  0.002181  -0.313071  -0.559178  0.00064  2.222216  0.001
O  O178  1  0.49088235  0.53395165  0.06402786  1  -1.195899  0.002169  -0.31252  -0.558523  0.000633  2.220905  0.001
O  O179  1  0.95864541  0.46735207  0.43605650  1  -1.194905  0.00218  -0.313128  -0.559218  0.000639  2.222197  0.001
O  O180  1  0.56000433  0.64302072  0.90203007  1  -1.151058  0.003166  -0.340827  -0.575281  0.001448  2.174227  0.002
O  O181  1  0.91363461  0.35566059  0.59774350  1  -1.146902  0.003098  -0.340564  -0.575634  0.001382  2.174322  0.002
O  O182  1  0.43993096  0.35697144  0.09797820  1  -1.151326  0.003166  -0.340978  -0.575434  0.001448  2.174228  0.002
O  O183  1  0.08638383  0.64431354  0.40226104  1  -1.146169  0.003099  -0.340461  -0.575498  0.001382  2.174709  0.002
O  O184  1  0.78295326  0.07457659  0.67696771  1  -1.261423  0.092262  -0.532994  -0.765964  0.072948  2.2053  0.045
O  O185  1  0.70893190  0.92462648  0.82297709  1  -1.26666  0.09253  -0.533742  -0.766612  0.073069  2.204901  0.045
O  O186  1  0.21703282  0.92541944  0.32302798  1  -1.261588  0.092255  -0.532949  -0.765953  0.072944  2.205302  0.045
O  O187  1  0.29106435  0.07537313  0.17702106  1  -1.266691  0.092514  -0.533659  -0.766585  0.073061  2.205026  0.045
O  O188  1  0.32321969  0.10251512  0.70450730  1  -1.27296  0.059864  -0.565366  -0.767311  0.043695  2.100904  0.028
O  O189  1  0.22075974  0.89788106  0.79566116  1  -1.263112  0.060112  -0.565119  -0.765456  0.043894  2.101087  0.028
O  O190  1  0.67679121  0.89749979  0.29549557  1  -1.272671  0.05984  -0.56531  -0.767156  0.043688  2.100928  0.028
O  O191  1  0.77922668  0.10212123  0.20433909  1  -1.26187  0.060103  -0.565078  -0.765383  0.043894  2.101205  0.028
O  O192  1  0.61711472  0.23849856  0.64179165  1  -1.310204  0.067759  -0.594137  -0.811816  0.047794  2.148045  0.031
O  O193  1  0.38016135  0.76082149  0.85824706  1  -1.30614  0.067758  -0.593937  -0.810935  0.048049  2.149489  0.031
O  O194  1  0.38287593  0.76150099  0.35820924  1  -1.309912  0.067783  -0.594112  -0.811779  0.047806  2.148259  0.031
O  O195  1  0.61983859  0.23917991  0.14175181  1  -1.305929  0.067731  -0.593962  -0.810908  0.048052  2.149465  0.031
O  O196  1  0.22619813  0.06598274  0.60147263  1  -1.321832  0.063724  -0.564008  -0.774173  0.045505  2.032991  0.027
O  O197  1  0.16197579  0.93297244  0.89867170  1  -1.262151  0.063088  -0.564156  -0.774096  0.045296  2.033198  0.027
O  O198  1  0.77376794  0.93400956  0.39852813  1  -1.325967  0.063748  -0.563942  -0.774101  0.045509  2.033064  0.027
O  O199  1  0.83803285  0.06703797  0.10132973  1  -1.262093  0.063086  -0.564154  -0.774122  0.045304  2.033277  0.027
O  O200  1  0.62293513  0.01589299  0.57744320  1  -1.230344  0.048808  -0.540427  -0.751021  0.035477  2.034117  0.02
O  O201  1  0.60895228  0.98433379  0.92259272  1  -1.229062  0.04855  -0.539905  -0.750937  0.035391  2.033274  0.02
O  O202  1  0.37703400  0.98411382  0.42255678  1  -1.230691  0.048797  -0.540527  -0.751155  0.035485  2.034299  0.02
O  O203  1  0.39105812  0.01568573  0.07740614  1  -1.228806  0.048561  -0.540054  -0.751095  0.035389  2.032861  0.02
O  O204  1  0.18853810  0.41778184  0.50061124  1  -1.30001  0.063557  -0.584032  -0.779449  0.045502  2.090817  0.028
O  O205  1  0.77025554  0.58186694  0.99944358  1  -1.290072  0.063476  -0.584601  -0.779367  0.045532  2.091791  0.028
O  O206  1  0.81151433  0.58222672  0.49939221  1  -1.298743  0.063506  -0.584163  -0.779612  0.045487  2.090499  0.028
O  O207  1  0.22973256  0.41811635  0.00055530  1  -1.290032  0.063472  -0.584606  -0.779478  0.045532  2.091708  0.028
O  O208  1  0.54344393  0.30559321  0.51463239  1  -1.238511  0.047356  -0.573259  -0.757786  0.034955  1.965818  0.023
O  O209  1  0.23750391  0.69445720  0.98559719  1  -1.241738  0.047711  -0.572918  -0.757123  0.035292  1.966949  0.023
O  O210  1  0.45655463  0.69440822  0.48536477  1  -1.238478  0.047359  -0.573348  -0.757972  0.034957  1.965605  0.023
O  O211  1  0.76248407  0.30553422  0.01440286  1  -1.241831  0.047727  -0.573024  -0.757251  0.035296  1.966827  0.023
