# generated using pymatgen
data_AgH6C9S2N4O5F3
_symmetry_space_group_name_H-M   'P 1'
_cell_length_a   7.99578808
_cell_length_b   12.16149106
_cell_length_c   14.48181262
_cell_angle_alpha   89.99999732
_cell_angle_beta   90.00001089
_cell_angle_gamma   89.99999828
_symmetry_Int_Tables_number   1
_chemical_formula_structural   AgH6C9S2N4O5F3
_chemical_formula_sum   'Ag4 H24 C36 S8 N16 O20 F12'
_cell_volume   1408.22167309
_cell_formula_units_Z   4
loop_
 _symmetry_equiv_pos_site_id
 _symmetry_equiv_pos_as_xyz
  1  'x, y, z'
loop_
 _atom_site_type_symbol
 _atom_site_label
 _atom_site_symmetry_multiplicity
 _atom_site_fract_x
 _atom_site_fract_y
 _atom_site_fract_z
 _atom_site_occupancy
 _atom_site_hle17_bader_spin_density
 _atom_site_hle17_ddec_charge
 _atom_site_hle17_ddec_spin_density
 _atom_site_hle17_ddec_sum_bond_order
 _atom_site_hle17_magmom
 _atom_site_hse06_10hf_bader_spin_density
 _atom_site_hse06_10hf_ddec_charge
 _atom_site_hse06_10hf_ddec_spin_density
 _atom_site_hse06_10hf_ddec_sum_bond_order
 _atom_site_hse06_10hf_magmom
 _atom_site_hse06_bader_spin_density
 _atom_site_hse06_ddec_charge
 _atom_site_hse06_ddec_spin_density
 _atom_site_hse06_ddec_sum_bond_order
 _atom_site_hse06_magmom
 _atom_site_pbe_bader_spin_density
 _atom_site_pbe_cm5_charge
 _atom_site_pbe_ddec_charge
 _atom_site_pbe_ddec_spin_density
 _atom_site_pbe_ddec_sum_bond_order
 _atom_site_pbe_magmom
Ag  Ag0  1  0.94464745  0.56917113  0.68164606  1  0  0.550978  0  1.35608  0  0  0.40937  0  1.781504  0  0  0.433215  0  1.73902  0  0  0.474933  0.394851  0  1.810167  0
Ag  Ag1  1  0.05535291  0.43082874  0.18164576  1  0  0.550954  0  1.356105  0  0  0.409352  0  1.781518  0  0  0.433193  0  1.739048  0  0  0.474927  0.394833  0  1.810182  0
Ag  Ag2  1  0.55535125  0.06917159  0.68164605  1  0  0.550948  0  1.356116  0  0  0.409349  0  1.781518  0  0  0.433195  0  1.739027  0  0  0.474935  0.39483  0  1.810181  0
Ag  Ag3  1  0.44464786  0.93082829  0.18164509  1  0  0.55094  0  1.356123  0  0  0.409339  0  1.781534  0  0  0.433182  0  1.73907  0  0  0.474929  0.394821  0  1.810197  0
H  H4  1  0.96107355  0.30041462  0.37705298  1  0  0.114844  0  0.917663  0  0  0.122042  0  0.978111  0  0  0.125212  0  0.97554  0  0  0.128984  0.119675  0  0.980172  0
H  H5  1  0.03892563  0.69958524  0.87705249  1  0  0.114823  0  0.917684  0  0  0.122019  0  0.978134  0  0  0.125187  0  0.975564  0  0  0.128981  0.119652  0  0.980195  0
H  H6  1  0.53892629  0.80041417  0.37705226  1  0  0.11483  0  0.917643  0  0  0.122028  0  0.978092  0  0  0.125199  0  0.975531  0  0  0.128973  0.119661  0  0.980153  0
H  H7  1  0.46107290  0.19958569  0.87705321  1  0  0.114846  0  0.91766  0  0  0.122038  0  0.978113  0  0  0.125208  0  0.975538  0  0  0.128983  0.119672  0  0.980174  0
H  H8  1  0.92024081  0.68159321  0.47856927  1  0  0.098803  0  0.930993  0  0  0.100804  0  1.000193  0  0  0.104203  0  0.997351  0  0  0.120831  0.098343  0  1.002359  0
H  H9  1  0.07975840  0.31840747  0.97856949  1  0  0.098818  0  0.930984  0  0  0.100818  0  1.000192  0  0  0.104116  0  0.997552  0  0  0.120827  0.098357  0  1.002358  0
H  H10  1  0.57975907  0.18159202  0.47856926  1  0  0.098826  0  0.930981  0  0  0.100818  0  1.000185  0  0  0.104116  0  0.997553  0  0  0.120837  0.098357  0  1.002352  0
H  H11  1  0.42024140  0.81840701  0.97856950  1  0  0.09882  0  0.931007  0  0  0.100807  0  1.000214  0  0  0.104105  0  0.997575  0  0  0.120825  0.098346  0  1.00238  0
H  H12  1  0.96479674  0.63448139  0.31205559  1  0  0.10356  0  0.964186  0  0  0.106803  0  1.031246  0  0  0.109494  0  1.029391  0  0  0.120277  0.104761  0  1.032829  0
H  H13  1  0.03520367  0.36551848  0.81205580  1  0  0.103564  0  0.964218  0  0  0.106816  0  1.03126  0  0  0.109507  0  1.029396  0  0  0.120294  0.104775  0  1.032842  0
H  H14  1  0.53520308  0.13448103  0.31205558  1  0  0.10356  0  0.96418  0  0  0.106804  0  1.031243  0  0  0.109495  0  1.029382  0  0  0.12028  0.104763  0  1.032826  0
H  H15  1  0.46479733  0.86551884  0.81205581  1  0  0.10357  0  0.964169  0  0  0.106809  0  1.031234  0  0  0.109501  0  1.029376  0  0  0.120284  0.104768  0  1.032817  0
H  H16  1  0.21897789  0.14860018  0.58037763  1  0  0.110501  0  0.9273  0  0  0.113027  0  0.995451  0  0  0.116835  0  0.992125  0  0  0.123871  0.110314  0  0.997873  0
H  H17  1  0.78102119  0.85140053  0.08037809  1  0  0.110511  0  0.927286  0  0  0.113034  0  0.99545  0  0  0.116837  0  0.992126  0  0  0.123873  0.110323  0  0.997865  0
H  H18  1  0.28102304  0.64859890  0.58037763  1  0  0.110495  0  0.927294  0  0  0.113023  0  0.995452  0  0  0.116822  0  0.99215  0  0  0.123865  0.110314  0  0.997861  0
H  H19  1  0.71897854  0.35140098  0.08037809  1  0  0.11051  0  0.927285  0  0  0.113035  0  0.995451  0  0  0.116838  0  0.992126  0  0  0.123872  0.110327  0  0.997861  0
H  H20  1  0.58036692  0.33411279  0.71811731  1  0  0.119076  0  0.933826  0  0  0.126154  0  0.994008  0  0  0.129447  0  0.990946  0  0  0.128164  0.123646  0  0.996488  0
H  H21  1  0.41963220  0.66588709  0.21811704  1  0  0.119063  0  0.933832  0  0  0.126136  0  0.99402  0  0  0.12943  0  0.99096  0  0  0.128165  0.123629  0  0.9965  0
H  H22  1  0.91963303  0.83411233  0.71811663  1  0  0.119071  0  0.933811  0  0  0.126143  0  0.994003  0  0  0.129449  0  0.990908  0  0  0.128162  0.123636  0  0.996483  0
H  H23  1  0.08036860  0.16588755  0.21811772  1  0  0.119049  0  0.933821  0  0  0.126111  0  0.994023  0  0  0.129404  0  0.990965  0  0  0.128156  0.123603  0  0.996504  0
H  H24  1  0.38925880  0.49915176  0.71454454  1  0  0.099567  0  0.959258  0  0  0.102088  0  1.029665  0  0  0.105436  0  1.027372  0  0  0.118501  0.099592  0  1.031515  0
H  H25  1  0.61074032  0.50084811  0.21454430  1  0  0.099576  0  0.959257  0  0  0.102087  0  1.029674  0  0  0.105434  0  1.027381  0  0  0.11851  0.099593  0  1.031521  0
H  H26  1  0.11074090  0.99915131  0.71454452  1  0  0.099587  0  0.959235  0  0  0.102111  0  1.029634  0  0  0.105467  0  1.027318  0  0  0.118516  0.099615  0  1.031484  0
H  H27  1  0.88926072  0.00084857  0.21454432  1  0  0.099546  0  0.959288  0  0  0.102062  0  1.029689  0  0  0.105408  0  1.027406  0  0  0.118498  0.099567  0  1.031535  0
C  C28  1  0.95241650  0.38580136  0.39891143  1  0  0.104663  0  3.65294  0  0  0.064771  0  3.911794  0  0  0.070227  0  3.927735  0  0  0.066788  0.060971  0  3.901584  0
C  C29  1  0.04758269  0.61419933  0.89891164  1  0  0.104588  0  3.652854  0  0  0.064746  0  3.911736  0  0  0.070206  0  3.927672  0  0  0.066753  0.060943  0  3.901528  0
C  C30  1  0.54758334  0.88580090  0.39891140  1  0  0.104686  0  3.65288  0  0  0.064798  0  3.911742  0  0  0.070295  0  3.927573  0  0  0.0668  0.060995  0  3.901532  0
C  C31  1  0.45241709  0.11419896  0.89891167  1  0  0.104572  0  3.652867  0  0  0.064721  0  3.911738  0  0  0.070177  0  3.927673  0  0  0.066748  0.06092  0  3.901529  0
C  C32  1  0.93372042  0.41417205  0.49145648  1  0  0.005518  0  3.71179  0  0  0.011172  0  3.975377  0  0  0.007264  0  3.99677  0  0  0.109367  0.013331  0  3.961614  0
C  C33  1  0.06627880  0.58582863  0.99145668  1  0  0.005762  0  3.711418  0  0  0.011257  0  3.975202  0  0  0.007353  0  3.996584  0  0  0.109406  0.013416  0  3.961441  0
C  C34  1  0.56627820  0.91417160  0.49145645  1  0  0.00557  0  3.711648  0  0  0.011184  0  3.9753  0  0  0.007439  0  3.996285  0  0  0.109377  0.013343  0  3.961536  0
C  C35  1  0.43372102  0.08582826  0.99145671  1  0  0.005675  0  3.711595  0  0  0.011203  0  3.975352  0  0  0.007302  0  3.996727  0  0  0.109375  0.013363  0  3.961589  0
C  C36  1  0.93008349  0.59632735  0.45638973  1  0  0.116775  0  3.61456  0  0  0.087387  0  3.874772  0  0  0.089844  0  3.888531  0  0  0.068042  0.085401  0  3.86594  0
C  C37  1  0.06991571  0.40367251  0.95638994  1  0  0.116716  0  3.614593  0  0  0.087313  0  3.874819  0  0  0.089751  0  3.888617  0  0  0.068  0.085325  0  3.865988  0
C  C38  1  0.56991638  0.09632781  0.45638972  1  0  0.116672  0  3.614584  0  0  0.087315  0  3.874768  0  0  0.089765  0  3.88856  0  0  0.068003  0.08533  0  3.865933  0
C  C39  1  0.43008408  0.90367205  0.95638995  1  0  0.116649  0  3.614637  0  0  0.087293  0  3.874803  0  0  0.089731  0  3.888603  0  0  0.067999  0.085305  0  3.865976  0
C  C40  1  0.95317439  0.56959543  0.36332265  1  0  0.113326  0  3.60365  0  0  0.083875  0  3.853583  0  0  0.089756  0  3.867343  0  0  0.069234  0.079794  0  3.84478  0
C  C41  1  0.04682479  0.43040526  0.86332286  1  0  0.113349  0  3.603686  0  0  0.083893  0  3.853613  0  0  0.089775  0  3.867348  0  0  0.06923  0.079813  0  3.844809  0
C  C42  1  0.54682546  0.06959507  0.36332264  1  0  0.113372  0  3.603641  0  0  0.083893  0  3.853575  0  0  0.089776  0  3.867337  0  0  0.069226  0.079809  0  3.844774  0
C  C43  1  0.45317372  0.93040480  0.86332287  1  0  0.113373  0  3.603629  0  0  0.083905  0  3.853559  0  0  0.089786  0  3.867306  0  0  0.069237  0.079824  0  3.844757  0
C  C44  1  0.15074947  0.31615776  0.61644839  1  0  0.017979  0  3.726585  0  0  0.029084  0  3.984332  0  0  0.025229  0  4.005575  0  0  0.11645  0.031251  0  3.970612  0
C  C45  1  0.84925088  0.68384294  0.11644816  1  0  0.017959  0  3.726623  0  0  0.029069  0  3.98436  0  0  0.025215  0  4.005605  0  0  0.116448  0.031235  0  3.970642  0
C  C46  1  0.34925146  0.81615648  0.61644770  1  0  0.017964  0  3.726591  0  0  0.029054  0  3.984365  0  0  0.025223  0  4.005595  0  0  0.116453  0.03122  0  3.970647  0
C  C47  1  0.65075013  0.18384258  0.11644816  1  0  0.01799  0  3.726522  0  0  0.02911  0  3.984262  0  0  0.025256  0  4.005502  0  0  0.116474  0.031276  0  3.970543  0
C  C48  1  0.25670650  0.22572970  0.61245373  1  0  0.105798  0  3.638433  0  0  0.069089  0  3.891424  0  0  0.074087  0  3.907686  0  0  0.06684  0.065614  0  3.880951  0
C  C49  1  0.74329384  0.77427018  0.11245418  1  0  0.105792  0  3.638439  0  0  0.069083  0  3.89143  0  0  0.074079  0  3.907686  0  0  0.066838  0.065608  0  3.88096  0
C  C50  1  0.24329318  0.72572925  0.61245372  1  0  0.105818  0  3.638455  0  0  0.069099  0  3.891467  0  0  0.074129  0  3.907657  0  0  0.066847  0.065625  0  3.880997  0
C  C51  1  0.75670716  0.27427063  0.11245419  1  0  0.105795  0  3.638413  0  0  0.069075  0  3.89142  0  0  0.07407  0  3.90767  0  0  0.066845  0.0656  0  3.880951  0
C  C52  1  0.45579133  0.32885028  0.68809482  1  0  0.10951  0  3.592166  0  0  0.075488  0  3.849725  0  0  0.081672  0  3.862594  0  0  0.067495  0.071126  0  3.841582  0
C  C53  1  0.54420779  0.67114878  0.18809456  1  0  0.109539  0  3.592199  0  0  0.075525  0  3.849755  0  0  0.081709  0  3.86262  0  0  0.067492  0.071162  0  3.841613  0
C  C54  1  0.04420837  0.82885065  0.68809479  1  0  0.10953  0  3.592161  0  0  0.075512  0  3.849723  0  0  0.081872  0  3.862181  0  0  0.067495  0.071149  0  3.84158  0
C  C55  1  0.95579324  0.17115005  0.18809529  1  0  0.109534  0  3.5922  0  0  0.075539  0  3.849738  0  0  0.081724  0  3.862609  0  0  0.067498  0.071177  0  3.841596  0
C  C56  1  0.34902011  0.42007182  0.68711980  1  0  0.106767  0  3.632491  0  0  0.078846  0  3.897492  0  0  0.080312  0  3.911668  0  0  0.064034  0.07754  0  3.888481  0
C  C57  1  0.65098025  0.57992805  0.18711956  1  0  0.106711  0  3.632508  0  0  0.078801  0  3.897516  0  0  0.080269  0  3.911691  0  0  0.064021  0.077495  0  3.888504  0
C  C58  1  0.15098084  0.92007055  0.68711978  1  0  0.10671  0  3.632506  0  0  0.078789  0  3.897513  0  0  0.080384  0  3.911354  0  0  0.064003  0.077483  0  3.8885  0
C  C59  1  0.84902078  0.07992851  0.18712027  1  0  0.106751  0  3.632526  0  0  0.078842  0  3.89753  0  0  0.08031  0  3.911714  0  0  0.064032  0.077536  0  3.888518  0
C  C60  1  0.54494330  0.53768568  0.91912667  1  0  0.599766  0  3.643609  0  0  0.526941  0  4.015851  0  0  0.556298  0  3.986502  0  0  0.284967  0.506187  0  4.036505  0
C  C61  1  0.45505589  0.46231418  0.41912642  1  0  0.599838  0  3.643394  0  0  0.52693  0  4.015787  0  0  0.556204  0  3.986589  0  0  0.284954  0.506178  0  4.036439  0
C  C62  1  0.95505548  0.03768531  0.91912671  1  0  0.599821  0  3.64352  0  0  0.526927  0  4.015873  0  0  0.556263  0  3.986563  0  0  0.284965  0.506175  0  4.036524  0
C  C63  1  0.04494371  0.96231538  0.41912708  1  0  0.599728  0  3.643615  0  0  0.52689  0  4.015872  0  0  0.556877  0  3.985432  0  0  0.284948  0.506138  0  4.036523  0
S  S64  1  0.93720977  0.30845722  0.57812312  1  0  1.017792  0  5.218071  0  0  0.942753  0  5.706713  0  0  0.982623  0  5.695358  0  0  0.488184  0.914957  0  5.714842  0
S  S65  1  0.06279056  0.69154267  0.07812281  1  0  1.017721  0  5.218171  0  0  0.942745  0  5.706811  0  0  0.982613  0  5.695454  0  0  0.488164  0.914947  0  5.714942  0
S  S66  1  0.56279013  0.80845759  0.57812309  1  0  1.017785  0  5.218131  0  0  0.942764  0  5.706779  0  0  0.982692  0  5.695255  0  0  0.48816  0.914966  0  5.714911  0
S  S67  1  0.43721020  0.19154230  0.07812353  1  0  1.017779  0  5.218156  0  0  0.942751  0  5.706826  0  0  0.982619  0  5.695463  0  0  0.488176  0.914954  0  5.714959  0
S  S68  1  0.59135897  0.63880404  0.82540636  1  0  1.112381  0  5.851974  0  0  1.01181  0  6.393388  0  0  1.056092  0  6.37338  0  0  0.476392  0.981364  0  6.406027  0
S  S69  1  0.40864019  0.36119501  0.32540679  1  0  1.112418  0  5.851935  0  0  1.01187  0  6.393354  0  0  1.05618  0  6.373348  0  0  0.476402  0.981425  0  6.405993  0
S  S70  1  0.90863978  0.13880449  0.82540708  1  0  1.112366  0  5.851948  0  0  1.011813  0  6.393371  0  0  1.056106  0  6.373359  0  0  0.476416  0.981369  0  6.406007  0
S  S71  1  0.09136064  0.86119538  0.32540815  1  0  1.112385  0  5.851934  0  0  1.011841  0  6.393321  0  0  1.056383  0  6.372666  0  0  0.476421  0.981397  0  6.405958  0
N  N72  1  0.96253056  0.46512305  0.33453966  1  0  -0.236916  0  3.195719  0  0  -0.174036  0  3.478947  0  0  -0.187072  0  3.4916  0  0  -0.30136  -0.165465  0  3.470691  0
N  N73  1  0.03746986  0.53487682  0.83453986  1  0  -0.236942  0  3.195736  0  0  -0.174057  0  3.478953  0  0  -0.187097  0  3.491608  0  0  -0.30137  -0.165482  0  3.470694  0
N  N74  1  0.53747051  0.96512342  0.33453962  1  0  -0.236962  0  3.195726  0  0  -0.174057  0  3.478936  0  0  -0.187091  0  3.491609  0  0  -0.30137  -0.165482  0  3.470678  0
N  N75  1  0.46252991  0.03487727  0.83453989  1  0  -0.236922  0  3.195746  0  0  -0.174036  0  3.478953  0  0  -0.187076  0  3.491616  0  0  -0.30136  -0.165462  0  3.470696  0
N  N76  1  0.92124260  0.51822673  0.52117996  1  0  -0.242987  0  3.228133  0  0  -0.193017  0  3.507549  0  0  -0.201123  0  3.520734  0  0  -0.29562  -0.187531  0  3.498967  0
N  N77  1  0.07875771  0.48177398  0.02117966  1  0  -0.243052  0  3.22795  0  0  -0.193023  0  3.5074  0  0  -0.201131  0  3.520564  0  0  -0.295594  -0.187536  0  3.498819  0
N  N78  1  0.57875730  0.01822554  0.52117995  1  0  -0.242958  0  3.227978  0  0  -0.192982  0  3.507383  0  0  -0.201004  0  3.520289  0  0  -0.29558  -0.187495  0  3.4988  0
N  N79  1  0.42124301  0.98177352  0.02118036  1  0  -0.242961  0  3.228096  0  0  -0.192954  0  3.507509  0  0  -0.201063  0  3.520676  0  0  -0.295559  -0.187467  0  3.498927  0
N  N80  1  0.41045996  0.23276338  0.64985928  1  0  -0.247815  0  3.201505  0  0  -0.185043  0  3.49332  0  0  -0.198013  0  3.505309  0  0  -0.305785  -0.176544  0  3.485504  0
N  N81  1  0.58953914  0.76723650  0.14985971  1  0  -0.247804  0  3.201515  0  0  -0.185043  0  3.493334  0  0  -0.19801  0  3.50532  0  0  -0.305782  -0.176546  0  3.48552  0
N  N82  1  0.08954099  0.73276292  0.64985925  1  0  -0.247842  0  3.201482  0  0  -0.185063  0  3.493297  0  0  -0.197946  0  3.505019  0  0  -0.305791  -0.176566  0  3.485482  0
N  N83  1  0.91046062  0.26723695  0.14985974  1  0  -0.24783  0  3.201534  0  0  -0.185075  0  3.493358  0  0  -0.198041  0  3.505339  0  0  -0.3058  -0.176578  0  3.485543  0
N  N84  1  0.19495399  0.41296743  0.65212072  1  0  -0.269357  0  3.18005  0  0  -0.234556  0  3.456684  0  0  -0.241424  0  3.471601  0  0  -0.292451  -0.229816  0  3.446883  0
N  N85  1  0.80504636  0.58703245  0.15212049  1  0  -0.269312  0  3.180032  0  0  -0.234518  0  3.456664  0  0  -0.241386  0  3.471581  0  0  -0.292448  -0.229778  0  3.446864  0
N  N86  1  0.30504694  0.91296698  0.65212071  1  0  -0.269288  0  3.17998  0  0  -0.234483  0  3.456614  0  0  -0.241315  0  3.471431  0  0  -0.292418  -0.229742  0  3.446812  0
N  N87  1  0.69495466  0.08703290  0.15212050  1  0  -0.269318  0  3.179983  0  0  -0.234535  0  3.456624  0  0  -0.241403  0  3.471541  0  0  -0.292456  -0.229794  0  3.446824  0
O  O88  1  0.83380284  0.34341099  0.65480757  1  0  -0.540109  0  1.995261  0  0  -0.492635  0  2.249227  0  0  -0.51298  0  2.237145  0  0  -0.286865  -0.478522  0  2.257288  0
O  O89  1  0.16619751  0.65658889  0.15480728  1  0  -0.540102  0  1.99532  0  0  -0.492612  0  2.249261  0  0  -0.512957  0  2.237184  0  0  -0.286832  -0.478498  0  2.257323  0
O  O90  1  0.66619709  0.84341053  0.65480686  1  0  -0.540122  0  1.995354  0  0  -0.492626  0  2.249301  0  0  -0.512915  0  2.237055  0  0  -0.286845  -0.478513  0  2.257362  0
O  O91  1  0.33380452  0.15658852  0.15480729  1  0  -0.540067  0  1.995389  0  0  -0.492559  0  2.249336  0  0  -0.512905  0  2.237254  0  0  -0.286825  -0.478446  0  2.257398  0
O  O92  1  0.91095470  0.20382531  0.53329862  1  0  -0.537751  0  1.962285  0  0  -0.502108  0  2.209203  0  0  -0.521448  0  2.198463  0  0  -0.297101  -0.488537  0  2.216167  0
O  O93  1  0.08904562  0.79617457  0.03329900  1  0  -0.537724  0  1.962305  0  0  -0.502105  0  2.209219  0  0  -0.521472  0  2.198559  0  0  -0.297103  -0.488533  0  2.216182  0
O  O94  1  0.58904645  0.70382486  0.53329859  1  0  -0.537759  0  1.962259  0  0  -0.502142  0  2.209187  0  0  -0.521497  0  2.19849  0  0  -0.297125  -0.488572  0  2.216151  0
O  O95  1  0.41095386  0.29617503  0.03329902  1  0  -0.537802  0  1.962273  0  0  -0.50215  0  2.209179  0  0  -0.521518  0  2.198518  0  0  -0.29712  -0.48858  0  2.216144  0
O  O96  1  0.66476761  0.56900503  0.75348305  1  0  -0.612071  0  2.066271  0  0  -0.563977  0  2.346486  0  0  -0.584261  0  2.330073  0  0  -0.343011  -0.549676  0  2.357158  0
O  O97  1  0.33523403  0.43099402  0.25348209  1  0  -0.612101  0  2.066234  0  0  -0.563988  0  2.346425  0  0  -0.584276  0  2.330002  0  0  -0.343017  -0.549689  0  2.357098  0
O  O98  1  0.83523237  0.06900549  0.75348307  1  0  -0.612059  0  2.066284  0  0  -0.563968  0  2.346496  0  0  -0.58425  0  2.330064  0  0  -0.343002  -0.549668  0  2.357168  0
O  O99  1  0.16476802  0.93099521  0.25348345  1  0  -0.612039  0  2.066198  0  0  -0.563952  0  2.346409  0  0  -0.584239  0  2.329953  0  0  -0.342998  -0.549653  0  2.357082  0
O  O100  1  0.42493134  0.68044121  0.80261225  1  0  -0.612737  0  1.96612  0  0  -0.579005  0  2.215765  0  0  -0.599747  0  2.207407  0  0  -0.345793  -0.564151  0  2.220934  0
O  O101  1  0.57506781  0.31955784  0.30261270  1  0  -0.612743  0  1.966097  0  0  -0.579021  0  2.215763  0  0  -0.599764  0  2.207396  0  0  -0.345786  -0.564172  0  2.220942  0
O  O102  1  0.07506716  0.18044166  0.80261293  1  0  -0.612722  0  1.966096  0  0  -0.579012  0  2.21578  0  0  -0.599754  0  2.207417  0  0  -0.345788  -0.564164  0  2.22096  0
O  O103  1  0.92493200  0.81955903  0.30261340  1  0  -0.61275  0  1.966062  0  0  -0.579058  0  2.215744  0  0  -0.599692  0  2.20708  0  0  -0.345815  -0.564207  0  2.220919  0
O  O104  1  0.70472116  0.71668511  0.86912879  1  0  -0.600982  0  1.953856  0  0  -0.573001  0  2.204728  0  0  -0.592421  0  2.194291  0  0  -0.343243  -0.559061  0  2.211286  0
O  O105  1  0.29527552  0.28331557  0.36912853  1  0  -0.600985  0  1.953909  0  0  -0.573024  0  2.204784  0  0  -0.592436  0  2.194325  0  0  -0.343234  -0.559083  0  2.211342  0
O  O106  1  0.79527510  0.21668557  0.86912881  1  0  -0.601008  0  1.953855  0  0  -0.573025  0  2.204729  0  0  -0.592447  0  2.194287  0  0  -0.343282  -0.559085  0  2.211287  0
O  O107  1  0.20472408  0.78331512  0.36912920  1  0  -0.600949  0  1.953948  0  0  -0.572977  0  2.20482  0  0  -0.592317  0  2.194122  0  0  -0.343235  -0.559037  0  2.211377  0
F  F108  1  0.44516577  0.45554197  0.88777908  1  0  -0.230531  0  1.234162  0  0  -0.180381  0  1.402196  0  0  -0.191765  0  1.388839  0  0  -0.0888  -0.172124  0  1.411377  0
F  F109  1  0.55483467  0.54445707  0.38777883  1  0  -0.230545  0  1.234109  0  0  -0.180372  0  1.402173  0  0  -0.191738  0  1.388849  0  0  -0.088791  -0.172115  0  1.411354  0
F  F110  1  0.05483275  0.95554234  0.88777836  1  0  -0.230529  0  1.234141  0  0  -0.180365  0  1.402202  0  0  -0.191745  0  1.38885  0  0  -0.08879  -0.172108  0  1.411382  0
F  F111  1  0.94516644  0.04445834  0.38777954  1  0  -0.230508  0  1.234192  0  0  -0.180362  0  1.402238  0  0  -0.191437  0  1.388581  0  0  -0.088785  -0.172105  0  1.411417  0
F  F112  1  0.46468231  0.58754387  0.99092500  1  0  -0.241306  0  1.205729  0  0  -0.193875  0  1.370435  0  0  -0.204808  0  1.357128  0  0  -0.099191  -0.185953  0  1.379617  0
F  F113  1  0.53531441  0.41245598  0.49092544  1  0  -0.241348  0  1.205688  0  0  -0.193895  0  1.370425  0  0  -0.204811  0  1.357151  0  0  -0.099216  -0.185973  0  1.379607  0
F  F114  1  0.03531626  0.08754433  0.99092499  1  0  -0.241338  0  1.20571  0  0  -0.193886  0  1.370433  0  0  -0.204817  0  1.357134  0  0  -0.099196  -0.185964  0  1.379615  0
F  F115  1  0.96468296  0.91245717  0.49092615  1  0  -0.241331  0  1.205731  0  0  -0.193891  0  1.370436  0  0  -0.207631  0  1.360083  0  0  -0.099208  -0.18597  0  1.379618  0
F  F116  1  0.68721071  0.49133939  0.95315695  1  0  -0.235036  0  1.214541  0  0  -0.189851  0  1.383217  0  0  -0.202008  0  1.370831  0  0  -0.094128  -0.181318  0  1.391871  0
F  F117  1  0.31278850  0.50866047  0.45315599  1  0  -0.235043  0  1.214478  0  0  -0.189836  0  1.383181  0  0  -0.201972  0  1.370828  0  0  -0.094116  -0.181303  0  1.391834  0
F  F118  1  0.81278807  0.99133975  0.95315695  1  0  -0.235039  0  1.214527  0  0  -0.189828  0  1.383225  0  0  -0.20198  0  1.370847  0  0  -0.094128  -0.181295  0  1.391878  0
F  F119  1  0.18721239  0.00866093  0.45315737  1  0  -0.235027  0  1.214507  0  0  -0.189833  0  1.383179  0  0  -0.201672  0  1.37049  0  0  -0.094136  -0.181299  0  1.391833  0
