# generated using pymatgen
data_NaDyH20C24(NO)8
_symmetry_space_group_name_H-M   'P 1'
_cell_length_a   8.05963542
_cell_length_b   13.26333369
_cell_length_c   13.43532574
_cell_angle_alpha   85.10660334
_cell_angle_beta   72.54579892
_cell_angle_gamma   73.47753716
_symmetry_Int_Tables_number   1
_chemical_formula_structural   NaDyH20C24(NO)8
_chemical_formula_sum   'Na2 Dy2 H40 C48 N16 O16'
_cell_volume   1313.50458093
_cell_formula_units_Z   2
loop_
 _symmetry_equiv_pos_site_id
 _symmetry_equiv_pos_as_xyz
  1  'x, y, z'
loop_
 _atom_site_type_symbol
 _atom_site_label
 _atom_site_symmetry_multiplicity
 _atom_site_fract_x
 _atom_site_fract_y
 _atom_site_fract_z
 _atom_site_occupancy
 _atom_site_hle17_bader_spin_density
 _atom_site_hle17_ddec_charge
 _atom_site_hle17_ddec_spin_density
 _atom_site_hle17_ddec_sum_bond_order
 _atom_site_hle17_magmom
 _atom_site_hse06_10hf_bader_spin_density
 _atom_site_hse06_10hf_ddec_charge
 _atom_site_hse06_10hf_ddec_spin_density
 _atom_site_hse06_10hf_ddec_sum_bond_order
 _atom_site_hse06_10hf_magmom
 _atom_site_hse06_bader_spin_density
 _atom_site_hse06_ddec_charge
 _atom_site_hse06_ddec_spin_density
 _atom_site_hse06_ddec_sum_bond_order
 _atom_site_hse06_magmom
 _atom_site_pbe_bader_charge
 _atom_site_pbe_bader_spin_density
 _atom_site_pbe_cm5_charge
 _atom_site_pbe_ddec_charge
 _atom_site_pbe_ddec_spin_density
 _atom_site_pbe_ddec_sum_bond_order
 _atom_site_pbe_magmom
Na  Na0  1  0.87565469  0.75095188  0.24839110  1  0  0.931128  0  0.288809  0  0  0.886239  0  0.41738  0  0  0.902776  0  0.391136  0  0.892314  0  0.6252  0.873353  0  0.436999  0
Na  Na1  1  0.12434383  0.24904746  0.75161021  1  0  0.931122  0  0.288808  0  0  0.886236  0  0.417372  0  0  0.902775  0  0.391126  0  0.892342  0  0.625194  0.873355  0  0.436993  0
Dy  Dy2  1  0.37592681  0.74959001  0.24928056  1  0  1.976262  0  1.920335  0  0  1.859479  0  2.283419  0  0  1.915244  0  2.23914  0  2.113934  0  1.500781  1.817785  0  2.317561  0
Dy  Dy3  1  0.62407316  0.25040958  0.75071996  1  0  1.976294  0  1.920383  0  0  1.859499  0  2.283496  0  0  1.915269  0  2.2392  0  2.113905  0  1.500829  1.817866  0  2.317547  0
H  H4  1  0.44546691  0.60287946  0.86502843  1  0  0.109496  0  0.936462  0  0  0.120763  0  0.993586  0  0  0.124411  0  0.991441  0  0.079909  0  0.109037  0.118083  0  0.995273  0
H  H5  1  0.54617794  0.86276597  0.89749149  1  0  0.110449  0  0.940202  0  0  0.120817  0  0.998279  0  0  0.124413  0  0.996199  0  0.084431  0  0.108866  0.118186  0  0.999901  0
H  H6  1  0.91868987  0.89723987  0.63251424  1  0  0.109367  0  0.93613  0  0  0.120419  0  0.993184  0  0  0.124102  0  0.990985  0  0.106863  0  0.108856  0.117717  0  0.994891  0
H  H7  1  0.31999005  0.63493404  0.60138694  1  0  0.109199  0  0.938213  0  0  0.120215  0  0.995583  0  0  0.123729  0  0.993681  0  0.06959  0  0.108651  0.11763  0  0.997114  0
H  H8  1  0.55452651  0.39711490  0.13497210  1  0  0.109506  0  0.936527  0  0  0.120742  0  0.993682  0  0  0.124391  0  0.991534  0  0.079989  0  0.109046  0.118062  0  0.995368  0
H  H9  1  0.45383037  0.13723340  0.10250592  1  0  0.110541  0  0.940107  0  0  0.120938  0  0.998157  0  0  0.124535  0  0.996075  0  0.084393  0  0.108913  0.118306  0  0.999779  0
H  H10  1  0.08130484  0.10276669  0.36748550  1  0  0.109352  0  0.936158  0  0  0.120414  0  0.993195  0  0  0.124101  0  0.990997  0  0.107375  0  0.108864  0.117711  0  0.994903  0
H  H11  1  0.68001689  0.36505909  0.39860734  1  0  0.109174  0  0.938149  0  0  0.120181  0  0.995534  0  0  0.123697  0  0.99363  0  0.069892  0  0.108609  0.117597  0  0.997063  0
H  H12  1  0.78269226  0.55645344  0.79025815  1  0  0.105505  0  0.981416  0  0  0.11572  0  1.04281  0  0  0.118825  0  1.041873  0  0.10475  0  0.106911  0.113507  0  1.043582  0
H  H13  1  0.83660038  0.78865316  0.94365539  1  0  0.104829  0  0.984046  0  0  0.115365  0  1.045237  0  0  0.118372  0  1.044407  0  0.090164  0  0.10664  0.113224  0  1.045914  0
H  H14  1  0.13725219  0.94180400  0.70914772  1  0  0.10813  0  0.97665  0  0  0.117951  0  1.038986  0  0  0.121131  0  1.037861  0  0.09733  0  0.107646  0.115677  0  1.039871  0
H  H15  1  0.58542532  0.71083476  0.55519105  1  0  0.105733  0  0.983539  0  0  0.115088  0  1.046984  0  0  0.118247  0  1.045859  0  0.091335  0  0.106728  0.112858  0  1.047813  0
H  H16  1  0.21730566  0.44354715  0.20973926  1  0  0.105519  0  0.981428  0  0  0.115703  0  1.042855  0  0  0.118807  0  1.041921  0  0.104781  0  0.106926  0.11349  0  1.043626  0
H  H17  1  0.16340530  0.21134843  0.05634279  1  0  0.104846  0  0.983963  0  0  0.115407  0  1.045133  0  0  0.118415  0  1.044299  0  0.090141  0  0.106663  0.113266  0  1.04581  0
H  H18  1  0.86274130  0.05820678  0.29085125  1  0  0.108105  0  0.976561  0  0  0.117901  0  1.038946  0  0  0.121082  0  1.037826  0  0.097387  0  0.107661  0.115626  0  1.03983  0
H  H19  1  0.41457864  0.28915886  0.44480558  1  0  0.105749  0  0.983539  0  0  0.115115  0  1.046984  0  0  0.118261  0  1.045866  0  0.0915  0  0.106731  0.112892  0  1.047791  0
H  H20  1  0.80992812  0.64719133  0.08495619  1  0  0.086635  0  0.95459  0  0  0.088135  0  1.031338  0  0  0.092999  0  1.026355  0  0.104397  0  0.12146  0.084631  0  1.035006  0
H  H21  1  0.95885787  0.08536407  0.85061445  1  0  0.08557  0  0.954974  0  0  0.087192  0  1.032163  0  0  0.092151  0  1.027037  0  0.082864  0  0.121374  0.083627  0  1.035908  0
H  H22  1  0.54755712  0.84897426  0.41586058  1  0  0.087876  0  0.952212  0  0  0.089285  0  1.029205  0  0  0.094221  0  1.024076  0  0.113029  0  0.121951  0.085699  0  1.032994  0
H  H23  1  0.89557568  0.41597230  0.64977139  1  0  0.088524  0  0.952478  0  0  0.089994  0  1.029279  0  0  0.094837  0  1.024306  0  0.112461  0  0.122597  0.086467  0  1.032945  0
H  H24  1  0.19006652  0.35280626  0.91504590  1  0  0.086612  0  0.95457  0  0  0.088119  0  1.031325  0  0  0.092982  0  1.026339  0  0.104705  0  0.121496  0.084618  0  1.034988  0
H  H25  1  0.04114299  0.91464025  0.14938530  1  0  0.085547  0  0.95502  0  0  0.087157  0  1.03223  0  0  0.092117  0  1.027098  0  0.082917  0  0.12136  0.083586  0  1.035974  0
H  H26  1  0.45243901  0.15102932  0.58414229  1  0  0.087823  0  0.952235  0  0  0.089236  0  1.029222  0  0  0.094192  0  1.024072  0  0.11297  0  0.121923  0.085651  0  1.03301  0
H  H27  1  0.10442766  0.58402432  0.35022836  1  0  0.088501  0  0.952311  0  0  0.089983  0  1.029106  0  0  0.094826  0  1.024132  0  0.112478  0  0.12257  0.086456  0  1.032773  0
H  H28  1  0.06480018  0.55474292  0.81620784  1  0  0.321619  0  0.935548  0  0  0.306921  0  0.995086  0  0  0.313553  0  0.990641  0  0.511616  0  0.295831  0.302232  0  0.998192  0
H  H29  1  0.11682058  0.81544292  0.94515266  1  0  0.321841  0  0.93715  0  0  0.306871  0  0.997195  0  0  0.313552  0  0.992686  0  0.508665  0  0.295206  0.302136  0  1.000378  0
H  H30  1  0.44383335  0.94172821  0.68450335  1  0  0.322459  0  0.935988  0  0  0.307402  0  0.995668  0  0  0.314001  0  0.99131  0  0.506955  0  0.296741  0.302742  0  0.998708  0
H  H31  1  0.89048217  0.68609984  0.55624904  1  0  0.320754  0  0.935315  0  0  0.305932  0  0.995341  0  0  0.312377  0  0.991186  0  0.497213  0  0.296543  0.301375  0  0.998249  0
H  H32  1  0.93519657  0.44525766  0.18379191  1  0  0.321675  0  0.935427  0  0  0.306976  0  0.994966  0  0  0.31361  0  0.990518  0  0.511618  0  0.295861  0.302287  0  0.998072  0
H  H33  1  0.88318341  0.18455892  0.05484319  1  0  0.321774  0  0.937285  0  0  0.306801  0  0.997334  0  0  0.313483  0  0.992824  0  0.508135  0  0.295164  0.302066  0  1.000516  0
H  H34  1  0.55616218  0.05827660  0.31549562  1  0  0.322544  0  0.935818  0  0  0.307484  0  0.995507  0  0  0.314083  0  0.991148  0  0.506977  0  0.296753  0.302824  0  0.99855  0
H  H35  1  0.10951443  0.31389776  0.44374915  1  0  0.320761  0  0.93527  0  0  0.305938  0  0.995304  0  0  0.312385  0  0.991147  0  0.497206  0  0.296537  0.301381  0  0.998213  0
H  H36  1  0.07905863  0.60041000  0.93251760  1  0  0.336469  0  0.935375  0  0  0.317499  0  1.001755  0  0  0.324985  0  0.995874  0  0.528432  0  0.296241  0.312197  0  1.005862  0
H  H37  1  0.17870375  0.93227997  0.89881554  1  0  0.337  0  0.939741  0  0  0.317747  0  1.006102  0  0  0.325321  0  1.000115  0  0.523072  0  0.295997  0.31239  0  1.01029  0
H  H38  1  0.61822604  0.89750223  0.56786824  1  0  0.336108  0  0.93674  0  0  0.3174  0  1.001923  0  0  0.324968  0  0.995949  0  0.527239  0  0.296784  0.312021  0  1.00617  0
H  H39  1  0.01732709  0.56946440  0.60229123  1  0  0.336219  0  0.9354  0  0  0.317593  0  1.00085  0  0  0.325112  0  0.994888  0  0.533072  0  0.296514  0.312269  0  1.005034  0
H  H40  1  0.92093590  0.39958785  0.06748683  1  0  0.336505  0  0.935347  0  0  0.31751  0  1.001743  0  0  0.325005  0  0.995872  0  0.528517  0  0.296227  0.312208  0  1.005854  0
H  H41  1  0.82130312  0.06771914  0.10118265  1  0  0.336929  0  0.939685  0  0  0.317602  0  1.006176  0  0  0.325176  0  1.000188  0  0.522853  0  0.295948  0.312245  0  1.010362  0
H  H42  1  0.38176543  0.10250208  0.43213463  1  0  0.336189  0  0.936646  0  0  0.317403  0  1.00195  0  0  0.324974  0  0.995971  0  0.527173  0  0.296795  0.312023  0  1.0062  0
H  H43  1  0.98267327  0.43053768  0.39770618  1  0  0.336241  0  0.935378  0  0  0.317618  0  1.000821  0  0  0.325138  0  0.994858  0  0.533051  0  0.296548  0.312294  0  1.005005  0
C  C44  1  0.25334997  0.67905552  0.06190272  1  0  0.632582  0  3.964033  0  0  0.582346  0  4.269176  0  0  0.616525  0  4.259176  0  1.545654  0  0.205487  0.559168  0  4.275179  0
C  C45  1  0.43228166  0.06047156  0.82066842  1  0  0.63137  0  3.964285  0  0  0.580756  0  4.270954  0  0  0.615002  0  4.260795  0  1.574853  0  0.204424  0.557539  0  4.277062  0
C  C46  1  0.99696792  0.82077328  0.43549041  1  0  0.632309  0  3.967051  0  0  0.582483  0  4.272484  0  0  0.616737  0  4.262338  0  1.542758  0  0.204985  0.559282  0  4.278578  0
C  C47  1  0.31697216  0.43734181  0.68033458  1  0  0.633526  0  3.961624  0  0  0.583676  0  4.267027  0  0  0.617902  0  4.256943  0  1.554045  0  0.205946  0.560483  0  4.273078  0
C  C48  1  0.74664652  0.32093984  0.93810015  1  0  0.6326  0  3.964348  0  0  0.582263  0  4.269542  0  0  0.616443  0  4.259542  0  1.545632  0  0.205441  0.559071  0  4.275561  0
C  C49  1  0.56772168  0.93952754  0.17932899  1  0  0.631308  0  3.964243  0  0  0.580724  0  4.270865  0  0  0.614973  0  4.260705  0  1.574689  0  0.204486  0.557506  0  4.276972  0
C  C50  1  0.00302626  0.17923029  0.56451637  1  0  0.632363  0  3.966615  0  0  0.582442  0  4.272204  0  0  0.616693  0  4.262062  0  1.54231  0  0.204926  0.559244  0  4.278294  0
C  C51  1  0.68302832  0.56265504  0.31966517  1  0  0.633694  0  3.961585  0  0  0.583793  0  4.266946  0  0  0.618017  0  4.256863  0  1.553991  0  0.206014  0.5606  0  4.272994  0
C  C52  1  0.45177161  0.64926284  0.01320306  1  0  0.02875  0  3.826115  0  0  0.033595  0  4.07749  0  0  0.028446  0  4.100387  0  0.403054  0  0.076596  0.036813  0  4.061968  0
C  C53  1  0.60073548  0.01210495  0.85022278  1  0  0.027561  0  3.825933  0  0  0.031166  0  4.079098  0  0  0.025937  0  4.101946  0  0.464174  0  0.075532  0.034433  0  4.063617  0
C  C54  1  0.11829497  0.84977167  0.48510293  1  0  0.028263  0  3.825948  0  0  0.031742  0  4.078824  0  0  0.026569  0  4.101634  0  0.455793  0  0.07458  0.034916  0  4.063455  0
C  C55  1  0.46857608  0.48669435  0.64979869  1  0  0.03177  0  3.821423  0  0  0.035049  0  4.07435  0  0  0.030002  0  4.097032  0  0.462674  0  0.076308  0.038186  0  4.058991  0
C  C56  1  0.54822343  0.35073227  0.98680059  1  0  0.028566  0  3.826293  0  0  0.033612  0  4.077465  0  0  0.028463  0  4.10036  0  0.40294  0  0.076575  0.036832  0  4.061948  0
C  C57  1  0.39926876  0.98789639  0.14977619  1  0  0.027587  0  3.826022  0  0  0.031188  0  4.079195  0  0  0.025954  0  4.102044  0  0.464219  0  0.075554  0.034455  0  4.063711  0
C  C58  1  0.88170352  0.15023191  0.51490306  1  0  0.028202  0  3.825918  0  0  0.031686  0  4.078863  0  0  0.026511  0  4.101675  0  0.45575  0  0.074575  0.034851  0  4.063512  0
C  C59  1  0.53142865  0.51330176  0.35019403  1  0  0.031638  0  3.821613  0  0  0.035116  0  4.074253  0  0  0.030072  0  4.096935  0  0.46255  0  0.076301  0.038254  0  4.05889  0
C  C60  1  0.53165928  0.61129028  0.91088337  1  0  -0.076231  0  3.759979  0  0  -0.102141  0  4.011944  0  0  -0.10071  0  4.030769  0  -0.007945  0  -0.079724  -0.10295  0  3.999251  0
C  C61  1  0.64151154  0.90924926  0.88854146  1  0  -0.078329  0  3.764352  0  0  -0.103103  0  4.016145  0  0  -0.101612  0  4.03495  0  -0.114596  0  -0.080558  -0.103958  0  4.003469  0
C  C62  1  0.05926743  0.88782233  0.58742160  1  0  -0.07766  0  3.762567  0  0  -0.102511  0  4.014438  0  0  -0.101095  0  4.03325  0  -0.011393  0  -0.0803  -0.103293  0  4.001758  0
C  C63  1  0.45014738  0.58929907  0.61068885  1  0  -0.077533  0  3.762278  0  0  -0.102504  0  4.014223  0  0  -0.101112  0  4.033161  0  -0.078431  0  -0.079694  -0.103305  0  4.001477  0
C  C64  1  0.46833614  0.38870732  0.08911716  1  0  -0.076174  0  3.760213  0  0  -0.102124  0  4.012126  0  0  -0.100694  0  4.030951  0  -0.008025  0  -0.079727  -0.102932  0  3.999429  0
C  C65  1  0.35849078  0.09075283  0.11145985  1  0  -0.078461  0  3.764235  0  0  -0.103274  0  4.016057  0  0  -0.101781  0  4.03486  0  -0.115069  0  -0.080651  -0.104128  0  4.003382  0
C  C66  1  0.94073624  0.11217778  0.41258362  1  0  -0.077589  0  3.762554  0  0  -0.102415  0  4.014408  0  0  -0.101006  0  4.033228  0  -0.011057  0  -0.080251  -0.103195  0  4.00173  0
C  C67  1  0.54985919  0.41069729  0.38930231  1  0  -0.077421  0  3.76216  0  0  -0.102426  0  4.014039  0  0  -0.101036  0  4.032974  0  -0.07875  0  -0.079638  -0.103228  0  4.0013  0
C  C68  1  0.71733154  0.58549155  0.86965676  1  0  -0.145282  0  3.681694  0  0  -0.162082  0  3.925837  0  0  -0.167514  0  3.944449  0  -0.008207  0  -0.086024  -0.158496  0  3.913358  0
C  C69  1  0.80124232  0.86834720  0.91411040  1  0  -0.146624  0  3.687535  0  0  -0.163176  0  3.930929  0  0  -0.168609  0  3.949566  0  0.050932  0  -0.086427  -0.159594  0  3.918438  0
C  C70  1  0.17926200  0.91258471  0.62970932  1  0  -0.148225  0  3.679826  0  0  -0.165194  0  3.924507  0  0  -0.170454  0  3.942874  0  -0.031114  0  -0.086726  -0.161711  0  3.912182  0
C  C71  1  0.59611828  0.63119434  0.58509261  1  0  -0.146068  0  3.68457  0  0  -0.163277  0  3.928554  0  0  -0.168525  0  3.946994  0  0.031905  0  -0.086393  -0.159799  0  3.916182  0
C  C72  1  0.28266494  0.41450879  0.13034143  1  0  -0.145304  0  3.681739  0  0  -0.16207  0  3.925914  0  0  -0.167503  0  3.944525  0  -0.008104  0  -0.086041  -0.158485  0  3.91344  0
C  C73  1  0.19876524  0.13165290  0.08588701  1  0  -0.146636  0  3.687302  0  0  -0.163202  0  3.930713  0  0  -0.168634  0  3.949349  0  0.051343  0  -0.086416  -0.159619  0  3.918221  0
C  C74  1  0.82073424  0.08742608  0.37029199  1  0  -0.148106  0  3.679804  0  0  -0.165102  0  3.924518  0  0  -0.170367  0  3.942893  0  -0.031901  0  -0.086714  -0.161618  0  3.912191  0
C  C75  1  0.40389190  0.36879855  0.41490090  1  0  -0.14613  0  3.684602  0  0  -0.163395  0  3.928587  0  0  -0.16864  0  3.947033  0  0.030419  0  -0.086403  -0.159908  0  3.916204  0
C  C76  1  0.82510832  0.59845406  0.93081436  1  0  0.298584  0  3.845092  0  0  0.29354  0  4.091348  0  0  0.305221  0  4.109981  0  0.536237  0  0.118778  0.285538  0  4.078617  0
C  C77  1  0.92310775  0.93021705  0.90046573  1  0  0.30007  0  3.84834  0  0  0.294297  0  4.095931  0  0  0.306109  0  4.114549  0  0.498814  0  0.118669  0.28621  0  4.083195  0
C  C78  1  0.36103125  0.89871676  0.56926641  1  0  0.302114  0  3.841221  0  0  0.29581  0  4.088796  0  0  0.307474  0  4.107491  0  0.449411  0  0.119743  0.287824  0  4.076003  0
C  C79  1  0.76229380  0.57043188  0.59959397  1  0  0.298691  0  3.848417  0  0  0.29372  0  4.094656  0  0  0.305439  0  4.11312  0  0.499903  0  0.118696  0.285687  0  4.082039  0
C  C80  1  0.17488878  0.40154826  0.06918383  1  0  0.298668  0  3.845021  0  0  0.293569  0  4.091334  0  0  0.305252  0  4.109967  0  0.536234  0  0.118805  0.285567  0  4.078604  0
C  C81  1  0.07689692  0.06978255  0.09953324  1  0  0.300128  0  3.848354  0  0  0.294329  0  4.095939  0  0  0.30614  0  4.11456  0  0.498817  0  0.118689  0.286243  0  4.083203  0
C  C82  1  0.63896703  0.10128806  0.43073490  1  0  0.302005  0  3.841397  0  0  0.295761  0  4.088923  0  0  0.307427  0  4.107619  0  0.449456  0  0.119751  0.287773  0  4.076131  0
C  C83  1  0.23771587  0.42956375  0.40040031  1  0  0.298654  0  3.848537  0  0  0.293789  0  4.094637  0  0  0.305509  0  4.113095  0  0.500714  0  0.118731  0.285755  0  4.082026  0
C  C84  1  0.73291235  0.63636178  0.03436370  1  0  0.02538  0  3.667261  0  0  -0.008625  0  3.937647  0  0  -0.006786  0  3.95182  0  0.514057  0  0.044192  -0.009879  0  3.927975  0
C  C85  1  0.87022313  0.03415912  0.86191609  1  0  0.026534  0  3.667873  0  0  -0.00812  0  3.939566  0  0  -0.006469  0  3.953854  0  0.512698  0  0.043986  -0.00923  0  3.929803  0
C  C86  1  0.40911808  0.86057518  0.46572746  1  0  0.025979  0  3.66645  0  0  -0.007596  0  3.936718  0  0  -0.005743  0  3.950929  0  0.525426  0  0.044418  -0.008804  0  3.92697  0
C  C87  1  0.76999455  0.46645135  0.63812722  1  0  0.025824  0  3.670386  0  0  -0.008852  0  3.941418  0  0  -0.006927  0  3.955492  0  0.495129  0  0.044123  -0.010097  0  3.931809  0
C  C88  1  0.26708241  0.36363556  0.96563605  1  0  0.025439  0  3.667166  0  0  -0.008563  0  3.937596  0  0  -0.00672  0  3.951765  0  0.513619  0  0.044189  -0.009819  0  3.927931  0
C  C89  1  0.12977888  0.96584197  0.13808522  1  0  0.026595  0  3.66787  0  0  -0.008017  0  3.939512  0  0  -0.006362  0  3.953797  0  0.512712  0  0.044061  -0.009121  0  3.929744  0
C  C90  1  0.59087841  0.13942764  0.53427619  1  0  0.026125  0  3.666492  0  0  -0.007472  0  3.936755  0  0  -0.005632  0  3.950953  0  0.52557  0  0.044454  -0.008687  0  3.927024  0
C  C91  1  0.23000965  0.53354426  0.36187018  1  0  0.025848  0  3.670312  0  0  -0.008891  0  3.941363  0  0  -0.006965  0  3.955436  0  0.49513  0  0.044118  -0.01014  0  3.931756  0
N  N92  1  0.55363246  0.66115096  0.07336977  1  0  -0.400411  0  3.31349  0  0  -0.355984  0  3.581068  0  0  -0.367814  0  3.603321  0  -1.279502  0  -0.38494  -0.34731  0  3.565692  0
N  N93  1  0.71561721  0.07295852  0.83759865  1  0  -0.399965  0  3.314997  0  0  -0.354356  0  3.582305  0  0  -0.366156  0  3.604688  0  -1.272855  0  -0.384164  -0.345717  0  3.566849  0
N  N94  1  0.29233851  0.83668940  0.42586782  1  0  -0.400961  0  3.315415  0  0  -0.355882  0  3.582897  0  0  -0.367708  0  3.605081  0  -1.26434  0  -0.385636  -0.347215  0  3.567581  0
N  N95  1  0.62833422  0.42687538  0.66263583  1  0  -0.403055  0  3.320841  0  0  -0.357571  0  3.588917  0  0  -0.369521  0  3.611122  0  -1.26607  0  -0.389757  -0.348835  0  3.573562  0
N  N96  1  0.44636144  0.33884738  0.92663232  1  0  -0.400399  0  3.313467  0  0  -0.356027  0  3.580985  0  0  -0.367857  0  3.603237  0  -1.27943  0  -0.384941  -0.347359  0  3.565613  0
N  N97  1  0.28438698  0.92704456  0.16239954  1  0  -0.399999  0  3.315086  0  0  -0.354415  0  3.582401  0  0  -0.366214  0  3.604784  0  -1.272879  0  -0.384199  -0.345769  0  3.566944  0
N  N98  1  0.70765923  0.16331243  0.57413271  1  0  -0.401025  0  3.315618  0  0  -0.355937  0  3.58313  0  0  -0.367762  0  3.605321  0  -1.264535  0  -0.385671  -0.347273  0  3.56782  0
N  N99  1  0.37167045  0.57311924  0.33736002  1  0  -0.402993  0  3.320817  0  0  -0.357563  0  3.588831  0  0  -0.369514  0  3.611037  0  -1.265882  0  -0.389734  -0.348821  0  3.573477  0
N  N100  1  0.00639466  0.57692649  0.89256901  1  0  -0.644405  0  3.146885  0  0  -0.605461  0  3.367351  0  0  -0.629366  0  3.37092  0  -1.362964  0  -0.576006  -0.58863  0  3.364451  0
N  N101  1  0.08195250  0.89223743  0.92253221  1  0  -0.646531  0  3.150009  0  0  -0.606725  0  3.370856  0  0  -0.630846  0  3.374342  0  -1.328753  0  -0.576808  -0.589758  0  3.368025  0
N  N102  1  0.48367593  0.91973048  0.60807898  1  0  -0.645991  0  3.150204  0  0  -0.605536  0  3.370733  0  0  -0.629663  0  3.374301  0  -1.334701  0  -0.576659  -0.588569  0  3.367858  0
N  N103  1  0.90650173  0.60937035  0.57885700  1  0  -0.643977  0  3.149659  0  0  -0.60451  0  3.369259  0  0  -0.628464  0  3.372988  0  -1.329341  0  -0.576555  -0.587672  0  3.366275  0
N  N104  1  0.99360860  0.42307112  0.10743152  1  0  -0.644555  0  3.146898  0  0  -0.605576  0  3.367383  0  0  -0.629495  0  3.370941  0  -1.363131  0  -0.576043  -0.588746  0  3.364484  0
N  N105  1  0.91805240  0.10776417  0.07746754  1  0  -0.646418  0  3.150062  0  0  -0.606544  0  3.37096  0  0  -0.630666  0  3.374453  0  -1.327912  0  -0.576768  -0.589577  0  3.368125  0
N  N106  1  0.51631682  0.08027856  0.39192233  1  0  -0.646191  0  3.15006  0  0  -0.605688  0  3.370646  0  0  -0.629815  0  3.374211  0  -1.334603  0  -0.576717  -0.588721  0  3.367776  0
N  N107  1  0.09349933  0.39063025  0.42114197  1  0  -0.643981  0  3.149577  0  0  -0.604548  0  3.369136  0  0  -0.628499  0  3.372859  0  -1.328822  0  -0.576588  -0.58771  0  3.366154  0
O  O108  1  0.19728344  0.70732088  0.15865600  1  0  -0.770492  0  2.107684  0  0  -0.724288  0  2.374158  0  0  -0.750583  0  2.361817  0  -1.212849  0  -0.457226  -0.705389  0  2.381836  0
O  O109  1  0.40463051  0.15799799  0.79258012  1  0  -0.76963  0  2.105258  0  0  -0.723097  0  2.371721  0  0  -0.749367  0  2.359252  0  -1.217515  0  -0.457605  -0.70423  0  2.379491  0
O  O110  1  0.06597749  0.79131512  0.33913504  1  0  -0.772468  0  2.108232  0  0  -0.725669  0  2.374009  0  0  -0.75203  0  2.361635  0  -1.215273  0  -0.458277  -0.70668  0  2.381608  0
O  O111  1  0.35495273  0.34040095  0.71017762  1  0  -0.77281  0  2.105901  0  0  -0.726306  0  2.372092  0  0  -0.752621  0  2.359605  0  -1.210714  0  -0.458456  -0.707365  0  2.379791  0
O  O112  1  0.80271627  0.29267349  0.84134765  1  0  -0.770505  0  2.10783  0  0  -0.724297  0  2.374353  0  0  -0.750594  0  2.362012  0  -1.212781  0  -0.457237  -0.705402  0  2.382046  0
O  O113  1  0.59537514  0.84199788  0.20741651  1  0  -0.769621  0  2.105143  0  0  -0.723102  0  2.371599  0  0  -0.74937  0  2.359125  0  -1.217587  0  -0.457659  -0.704224  0  2.379372  0
O  O114  1  0.93400995  0.20868943  0.66087017  1  0  -0.772471  0  2.108043  0  0  -0.725641  0  2.373889  0  0  -0.751998  0  2.361512  0  -1.214688  0  -0.458243  -0.706685  0  2.381545  0
O  O115  1  0.64504572  0.65959691  0.28982681  1  0  -0.772904  0  2.105864  0  0  -0.726407  0  2.372069  0  0  -0.752722  0  2.359582  0  -1.210634  0  -0.458508  -0.707467  0  2.379793  0
O  O116  1  0.14718994  0.67891694  0.00932532  1  0  -0.633479  0  1.979872  0  0  -0.584841  0  2.208585  0  0  -0.605144  0  2.196763  0  -1.20792  0  -0.318453  -0.570792  0  2.216339  0
O  O117  1  0.32588991  0.00666443  0.82053812  1  0  -0.632281  0  1.982734  0  0  -0.583089  0  2.211574  0  0  -0.603406  0  2.199736  0  -1.210335  0  -0.317664  -0.569061  0  2.219365  0
O  O118  1  0.83698307  0.82233882  0.48709096  1  0  -0.633952  0  1.975223  0  0  -0.585893  0  2.204302  0  0  -0.60632  0  2.192582  0  -1.218855  0  -0.319196  -0.571773  0  2.211986  0
O  O119  1  0.15964306  0.48949941  0.67941547  1  0  -0.63412  0  1.96976  0  0  -0.585818  0  2.197643  0  0  -0.606127  0  2.18576  0  -1.213457  0  -0.319795  -0.57179  0  2.205447  0
O  O120  1  0.85280259  0.32107766  0.99067911  1  0  -0.633458  0  1.980019  0  0  -0.584776  0  2.208748  0  0  -0.605084  0  2.19693  0  -1.207779  0  -0.318418  -0.570726  0  2.216517  0
O  O121  1  0.67411585  0.99333617  0.17945929  1  0  -0.632268  0  1.982742  0  0  -0.583052  0  2.211557  0  0  -0.603368  0  2.199717  0  -1.210204  0  -0.317685  -0.569022  0  2.219345  0
O  O122  1  0.16301691  0.17766078  0.51291737  1  0  -0.63396  0  1.974988  0  0  -0.585845  0  2.204114  0  0  -0.606279  0  2.19241  0  -1.21915  0  -0.319196  -0.571723  0  2.211797  0
O  O123  1  0.84035761  0.51050118  0.32058428  1  0  -0.634158  0  1.969735  0  0  -0.585865  0  2.197634  0  0  -0.606175  0  2.185752  0  -1.213497  0  -0.319819  -0.571837  0  2.205441  0
