# generated using pymatgen
data_CuH16(C5N2)4
_symmetry_space_group_name_H-M   'P 1'
_cell_length_a   3.87444570
_cell_length_b   15.35511784
_cell_length_c   15.35880801
_cell_angle_alpha   89.10438839
_cell_angle_beta   82.80292390
_cell_angle_gamma   82.78565847
_symmetry_Int_Tables_number   1
_chemical_formula_structural   CuH16(C5N2)4
_chemical_formula_sum   'Cu2 H32 C40 N16'
_cell_volume   899.35895656
_cell_formula_units_Z   2
loop_
 _symmetry_equiv_pos_site_id
 _symmetry_equiv_pos_as_xyz
  1  'x, y, z'
loop_
 _atom_site_type_symbol
 _atom_site_label
 _atom_site_symmetry_multiplicity
 _atom_site_fract_x
 _atom_site_fract_y
 _atom_site_fract_z
 _atom_site_occupancy
 _atom_site_pbe_cm5_charge
 _atom_site_pbe_ddec_charge
 _atom_site_pbe_ddec_spin_density
 _atom_site_pbe_ddec_sum_bond_order
 _atom_site_pbe_magmom
Cu  Cu0  1  0.37534201  0.74984678  0.24993452  1  0.753244  0.804392  -0.033585  2.628093  -0.017
Cu  Cu1  1  0.62463156  0.25015155  0.75006654  1  0.753111  0.804133  -0.03363  2.628135  -0.017
H  H2  1  0.75298850  0.55181517  0.35448270  1  0.108889  0.131624  0.000245  1.016049  0.0
H  H3  1  0.80588245  0.35450929  0.94837563  1  0.108607  0.131401  0.000277  1.016199  0.0
H  H4  1  0.66134972  0.94821961  0.14542199  1  0.108413  0.131202  0.00025  1.016332  0.0
H  H5  1  0.10998213  0.14552908  0.55161475  1  0.109152  0.132639  0.00013  1.015241  0.0
H  H6  1  0.24697782  0.44818031  0.64552295  1  0.108885  0.131592  0.000244  1.016132  0.0
H  H7  1  0.19416604  0.64549349  0.05162281  1  0.108571  0.131396  0.000277  1.016219  0.0
H  H8  1  0.33864076  0.05178459  0.85457514  1  0.108438  0.131249  0.000249  1.016293  0.0
H  H9  1  0.89004507  0.85447840  0.44838566  1  0.10912  0.132616  0.000131  1.015363  0.0
H  H10  1  0.81855986  0.60478437  0.66724333  1  0.095072  0.137175  -0.000462  1.023755  0.0
H  H11  1  0.92169168  0.66733271  0.89511621  1  0.095082  0.137698  -0.00052  1.02243  0.0
H  H12  1  0.08885371  0.89535000  0.83290006  1  0.095062  0.137551  -0.000481  1.023247  0.0
H  H13  1  0.48297260  0.83276938  0.60507419  1  0.094768  0.137438  -0.000326  1.021961  0.0
H  H14  1  0.18145050  0.39520315  0.33276299  1  0.09508  0.137274  -0.000462  1.023504  0.0
H  H15  1  0.07831849  0.33267134  0.10487304  1  0.095088  0.137725  -0.00052  1.022496  0.0
H  H16  1  0.91115593  0.10466497  0.16709969  1  0.095086  0.137577  -0.000481  1.023379  0.0
H  H17  1  0.51703965  0.16723223  0.39492622  1  0.094782  0.137442  -0.000326  1.021934  0.0
H  H18  1  0.41058541  0.66542010  0.65578698  1  0.096104  0.138108  -0.00046  1.00536  0.0
H  H19  1  0.57429407  0.65544272  0.83449743  1  0.095881  0.137628  -0.00052  1.006242  0.0
H  H20  1  0.73033346  0.83455895  0.84419284  1  0.096063  0.138377  -0.000514  1.005498  0.0
H  H21  1  0.06352125  0.84453749  0.66560472  1  0.096408  0.138691  -0.000336  1.005714  0.0
H  H22  1  0.58943427  0.33456849  0.34422458  1  0.096088  0.138071  -0.00046  1.00528  0.0
H  H23  1  0.42569699  0.34455537  0.16549509  1  0.09585  0.137558  -0.00052  1.006399  0.0
H  H24  1  0.26971188  0.16544830  0.15579773  1  0.096151  0.138514  -0.000514  1.005485  0.0
H  H25  1  0.93647685  0.15546233  0.33439634  1  0.096404  0.138669  -0.000336  1.005671  0.0
H  H26  1  0.42734111  0.56647733  0.71888667  1  0.091909  0.131561  6.4e-05  1.026337  0.0
H  H27  1  0.49193919  0.71880758  0.93329565  1  0.091525  0.131302  6.7e-05  1.027142  0.0
H  H28  1  0.71111291  0.93351649  0.78107583  1  0.091506  0.131159  7.2e-05  1.027517  0.0
H  H29  1  0.14299111  0.78115938  0.56678519  1  0.092117  0.131982  5e-05  1.02699  0.0
H  H30  1  0.57265689  0.43351117  0.28112161  1  0.091955  0.131714  6.4e-05  1.026339  0.0
H  H31  1  0.50806504  0.28119427  0.06669426  1  0.091565  0.131327  6.7e-05  1.027164  0.0
H  H32  1  0.28890325  0.06649327  0.21892130  1  0.091543  0.131195  7.2e-05  1.027587  0.0
H  H33  1  0.85703819  0.21883947  0.43321784  1  0.092102  0.131953  5e-05  1.026995  0.0
C  C34  1  0.97492633  0.68061492  0.41918630  1  0.303504  0.435564  0.002445  4.223258  0.004
C  C35  1  0.15506726  0.41926998  0.81951558  1  0.302881  0.435306  0.002742  4.228438  0.004
C  C36  1  0.07436812  0.81937928  0.08068842  1  0.303893  0.4363  0.002601  4.223282  0.004
C  C37  1  0.39392249  0.08085189  0.68061266  1  0.302975  0.432957  0.001776  4.224145  0.003
C  C38  1  0.02508189  0.31937603  0.58082789  1  0.303495  0.435592  0.002441  4.223928  0.004
C  C39  1  0.84483872  0.58072603  0.18047957  1  0.30299  0.435167  0.00274  4.228407  0.004
C  C40  1  0.92565025  0.18062502  0.91929952  1  0.303743  0.436078  0.002595  4.223838  0.004
C  C41  1  0.60600248  0.91914755  0.31938971  1  0.302973  0.433102  0.001776  4.224173  0.003
C  C42  1  0.67090683  0.57612730  0.49439915  1  0.131635  0.21483  -0.021624  4.032871  -0.011
C  C43  1  0.74655516  0.49439671  0.92393753  1  0.130819  0.212127  -0.023424  4.037453  -0.012
C  C44  1  0.74120901  0.92389431  0.00551186  1  0.131992  0.214879  -0.021503  4.034336  -0.011
C  C45  1  0.16499426  0.00559667  0.57614557  1  0.13288  0.214745  -0.014294  4.034102  -0.008
C  C46  1  0.32907185  0.42386721  0.50560453  1  0.131616  0.214905  -0.021617  4.032998  -0.011
C  C47  1  0.25349763  0.50560826  0.07606354  1  0.130859  0.211972  -0.023426  4.037681  -0.012
C  C48  1  0.25877423  0.07610835  0.99448724  1  0.132032  0.214987  -0.021495  4.034333  -0.011
C  C49  1  0.83502213  0.99440502  0.42385156  1  0.132889  0.214675  -0.014297  4.034055  -0.008
C  C50  1  0.52168709  0.54707039  0.57925362  1  0.00414  0.119397  -0.012  3.939133  -0.007
C  C51  1  0.56796562  0.57921651  0.95288884  1  0.00458  0.119805  -0.013538  3.939243  -0.008
C  C52  1  0.64668070  0.95293483  0.92071673  1  0.003867  0.117716  -0.01226  3.941358  -0.007
C  C53  1  0.09939408  0.92075468  0.54716798  1  0.005072  0.120091  -0.007909  3.942844  -0.004
C  C54  1  0.47828119  0.45292379  0.42075072  1  0.004237  0.119401  -0.012007  3.938916  -0.007
C  C55  1  0.43207808  0.42078879  0.04710895  1  0.004505  0.119734  -0.013538  3.939678  -0.008
C  C56  1  0.35330563  0.04707059  0.07928105  1  0.003904  0.117774  -0.012268  3.940845  -0.007
C  C57  1  0.90061784  0.07924759  0.45283178  1  0.005049  0.120097  -0.007909  3.942914  -0.004
C  C58  1  0.64192052  0.52732137  0.41753171  1  -0.089078  -0.229872  -0.007776  3.913895  -0.004
C  C59  1  0.66975425  0.41754398  0.97275223  1  -0.089209  -0.228775  -0.00806  3.915272  -0.004
C  C60  1  0.58816677  0.97274316  0.08241983  1  -0.088696  -0.228668  -0.00745  3.914222  -0.003
C  C61  1  0.06097190  0.08247286  0.52721073  1  -0.089426  -0.230469  -0.005253  3.916256  -0.002
C  C62  1  0.35806198  0.47267258  0.58247066  1  -0.088952  -0.229734  -0.007781  3.913926  -0.004
C  C63  1  0.33027792  0.58245886  0.02724227  1  -0.089163  -0.228686  -0.008057  3.914988  -0.004
C  C64  1  0.41181867  0.02726088  0.91757729  1  -0.088673  -0.22869  -0.007457  3.914426  -0.003
C  C65  1  0.93901148  0.91753127  0.47279558  1  -0.089413  -0.230399  -0.00525  3.916464  -0.002
C  C66  1  0.54478919  0.59824260  0.66000925  1  -0.240088  -0.417672  9.3e-05  3.956907  0.0
C  C67  1  0.64154578  0.65992967  0.90163407  1  -0.240323  -0.418432  0.000121  3.956407  0.0
C  C68  1  0.80136956  0.90177916  0.83999296  1  -0.240111  -0.418269  0.000104  3.958393  0.0
C  C69  1  0.20201543  0.84007278  0.59848199  1  -0.240034  -0.418529  1.1e-05  3.957177  0.0
C  C70  1  0.45522401  0.40174436  0.33999772  1  -0.240114  -0.417827  9.3e-05  3.956567  0.0
C  C71  1  0.35846845  0.34007520  0.09835583  1  -0.240305  -0.418352  0.000121  3.956722  0.0
C  C72  1  0.19863773  0.09823100  0.16000547  1  -0.240261  -0.418498  0.000104  3.958626  0.0
C  C73  1  0.79799965  0.15992697  0.40152170  1  -0.240004  -0.418433  1e-05  3.957169  0.0
N  N74  1  0.10765180  0.71843566  0.35894073  1  -0.39958  -0.529787  -0.02564  3.300247  -0.02
N  N75  1  0.32440518  0.35898833  0.78145250  1  -0.399848  -0.530642  -0.027449  3.302239  -0.021
N  N76  1  0.18438618  0.78157665  0.14099974  1  -0.399414  -0.53005  -0.024007  3.301104  -0.019
N  N77  1  0.46511049  0.14118124  0.71864684  1  -0.398075  -0.526693  -0.016575  3.300262  -0.013
N  N78  1  0.89230577  0.28156209  0.64105705  1  -0.399573  -0.529787  -0.025618  3.30122  -0.02
N  N79  1  0.67563063  0.64101607  0.21854725  1  -0.399865  -0.530543  -0.027437  3.302667  -0.021
N  N80  1  0.81556493  0.21841972  0.85900854  1  -0.399341  -0.529815  -0.023979  3.301906  -0.019
N  N81  1  0.53488404  0.85881173  0.28135422  1  -0.398087  -0.526787  -0.016574  3.300312  -0.013
N  N82  1  0.83289712  0.64892656  0.49151976  1  -0.291176  -0.332423  -0.033281  3.388938  -0.026
N  N83  1  0.98113844  0.49156478  0.85116225  1  -0.291129  -0.331705  -0.036206  3.391911  -0.028
N  N84  1  0.97249624  0.85102704  0.00833897  1  -0.291112  -0.331869  -0.033101  3.387325  -0.025
N  N85  1  0.32354769  0.00847979  0.64899589  1  -0.290821  -0.329849  -0.022479  3.388014  -0.017
N  N86  1  0.16704922  0.35107494  0.50848261  1  -0.291153  -0.332447  -0.033294  3.388901  -0.026
N  N87  1  0.01891776  0.50844101  0.14884079  1  -0.291168  -0.331569  -0.036205  3.391606  -0.028
N  N88  1  0.02746075  0.14896738  0.99166143  1  -0.291041  -0.33182  -0.033112  3.387245  -0.025
N  N89  1  0.67647846  0.99151279  0.35099993  1  -0.290919  -0.330041  -0.022477  3.388052  -0.017
