# generated using pymatgen
data_CuH13C11N5O4
_symmetry_space_group_name_H-M   'P 1'
_cell_length_a   7.86168198
_cell_length_b   8.54726867
_cell_length_c   11.22892678
_cell_angle_alpha   69.43164252
_cell_angle_beta   77.38509414
_cell_angle_gamma   66.19961682
_symmetry_Int_Tables_number   1
_chemical_formula_structural   CuH13C11N5O4
_chemical_formula_sum   'Cu2 H26 C22 N10 O8'
_cell_volume   643.77058223
_cell_formula_units_Z   2
loop_
 _symmetry_equiv_pos_site_id
 _symmetry_equiv_pos_as_xyz
  1  'x, y, z'
loop_
 _atom_site_type_symbol
 _atom_site_label
 _atom_site_symmetry_multiplicity
 _atom_site_fract_x
 _atom_site_fract_y
 _atom_site_fract_z
 _atom_site_occupancy
 _atom_site_hle17_ddec_charge
 _atom_site_hle17_ddec_spin_density
 _atom_site_hle17_ddec_sum_bond_order
 _atom_site_hle17_magmom
 _atom_site_hse06_10hf_ddec_charge
 _atom_site_hse06_10hf_ddec_spin_density
 _atom_site_hse06_10hf_ddec_sum_bond_order
 _atom_site_hse06_10hf_magmom
 _atom_site_hse06_ddec_charge
 _atom_site_hse06_ddec_spin_density
 _atom_site_hse06_ddec_sum_bond_order
 _atom_site_hse06_magmom
 _atom_site_pbe_cm5_charge
 _atom_site_pbe_ddec_charge
 _atom_site_pbe_ddec_spin_density
 _atom_site_pbe_ddec_sum_bond_order
 _atom_site_pbe_magmom
Cu  Cu0  1  0.50360351  0.86029277  0.60074157  1  0.849989  -0.658869  1.895019  -0.478  0.83803  -0.79574  2.3079  -0.633  0.961571  -0.887455  2.186054  -0.735  0.679703  0.768825  -0.687461  2.369984  -0.536
Cu  Cu1  1  0.49639807  0.13971281  0.39925297  1  0.849774  0.658844  1.895056  0.478  0.837799  0.795728  2.307899  0.633  0.961418  0.88745  2.185936  0.735  0.679611  0.768602  0.687463  2.369909  0.536
H  H2  1  0.89861952  0.09457288  0.11108578  1  0.058496  4.6e-05  0.933013  0.0  0.067561  2.8e-05  0.999262  0.0  0.070406  4e-06  0.995145  0.0  0.117496  0.065436  5e-05  1.002222  0.0
H  H3  1  0.10137694  0.90542200  0.88891955  1  0.058402  -4.4e-05  0.933183  0.0  0.067477  -2.8e-05  0.99941  0.0  0.07032  -4e-06  0.995296  0.0  0.117425  0.065351  -5e-05  1.002362  0.0
H  H4  1  0.94418070  0.63663218  0.91126086  1  0.313722  -4e-06  0.947084  0.0  0.285571  3e-06  1.030987  0.0  0.295064  2e-06  1.022698  0.0  0.287192  0.278874  3e-06  1.036719  0.0
H  H5  1  0.05582048  0.36336404  0.08874606  1  0.313779  5e-06  0.94705  0.0  0.285635  -3e-06  1.030937  0.0  0.295128  -2e-06  1.022646  0.0  0.287238  0.278944  -3e-06  1.036666  0.0
H  H6  1  0.77863035  0.75144888  0.79536976  1  0.338536  -0.00013  0.932208  0.0  0.321395  -0.00012  0.991675  0.0  0.330301  -4.2e-05  0.984363  0.0  0.297456  0.315119  -0.000178  0.996892  0.0
H  H7  1  0.22136461  0.24855002  0.20463828  1  0.338522  0.00013  0.932335  0.0  0.321406  0.00012  0.99176  0.0  0.330314  4.2e-05  0.984447  0.0  0.29743  0.315133  0.000178  0.996978  0.0
H  H8  1  0.30380862  0.58204834  0.69049749  1  0.104385  -3.1e-05  0.929072  0.0  0.115666  -2e-06  0.98826  0.0  0.11969  1.6e-05  0.983219  0.0  0.138749  0.112642  -2.2e-05  0.992057  0.0
H  H9  1  0.69619777  0.41794788  0.30950328  1  0.104374  3.1e-05  0.929068  0.0  0.115644  2e-06  0.988271  0.0  0.119678  -1.6e-05  0.983216  0.0  0.138755  0.112625  2.2e-05  0.992066  0.0
H  H10  1  0.42635678  0.11408976  0.93987749  1  0.115413  -4e-06  0.960783  0.0  0.129396  -1e-06  1.034454  0.0  0.132197  -0.0  1.030783  0.0  0.110776  0.12731  -2e-06  1.03714  0.0
H  H11  1  0.57363948  0.88590913  0.06012501  1  0.115404  5e-06  0.960804  0.0  0.129418  1e-06  1.034456  0.0  0.13222  -0.0  1.03078  0.0  0.110758  0.127332  2e-06  1.037137  0.0
H  H12  1  0.38634708  0.18716146  0.77684933  1  0.111527  6.7e-05  0.951004  0.0  0.134093  3.3e-05  1.006662  0.0  0.135191  3.9e-05  1.00629  0.0  0.105961  0.133244  2.5e-05  1.006991  0.0
H  H13  1  0.61364907  0.81283074  0.22315498  1  0.111538  -6.6e-05  0.95101  0.0  0.1341  -3.3e-05  1.006688  0.0  0.135197  -3.9e-05  1.006316  0.0  0.105965  0.133251  -2.5e-05  1.007018  0.0
H  H14  1  0.21526371  0.29053470  0.88800034  1  0.106663  -5e-06  0.955275  0.0  0.123657  4e-06  1.02294  0.0  0.124622  3e-06  1.023102  0.0  0.104769  0.122814  5e-06  1.022981  0.0
H  H15  1  0.78473417  0.70946687  0.11200297  1  0.106669  5e-06  0.9553  0.0  0.12364  -5e-06  1.022998  0.0  0.124604  -3e-06  1.023162  0.0  0.104775  0.1228  -5e-06  1.023037  0.0
H  H16  1  0.99751727  0.55666516  0.37289258  1  0.114865  0.001467  0.932604  0.002  0.126954  0.000994  0.994119  0.001  0.129062  0.000624  0.993338  0.001  0.101185  0.12535  0.001203  0.994621  0.001
H  H17  1  0.00247789  0.44334710  0.62709315  1  0.114808  -0.001465  0.932569  -0.002  0.126871  -0.000993  0.994193  -0.001  0.128978  -0.000624  0.993417  -0.001  0.101145  0.125261  -0.001202  0.994694  -0.001
H  H18  1  0.99526640  0.74837356  0.23920444  1  0.101284  -0.001217  0.943378  -0.002  0.11329  -0.00081  1.006578  -0.001  0.113323  -0.000526  1.008948  -0.001  0.097969  0.113087  -0.000944  1.004966  -0.001
H  H19  1  0.00473318  0.25163737  0.76078986  1  0.101248  0.001219  0.943317  0.002  0.113329  0.00081  1.006474  0.001  0.113362  0.000526  1.008843  0.001  0.097964  0.113124  0.000945  1.004855  0.001
H  H20  1  0.26948726  0.61086663  0.38133881  1  0.080749  0.000135  0.948589  0.0  0.093163  8.3e-05  1.014357  0.0  0.092772  3.6e-05  1.016024  0.0  0.094193  0.09368  0.000118  1.013018  0.0
H  H21  1  0.73051431  0.38913894  0.61864862  1  0.08059  -0.000131  0.948573  0.0  0.093008  -8.3e-05  1.014374  0.0  0.092618  -3.6e-05  1.01604  0.0  0.094135  0.093518  -0.000118  1.013035  0.0
H  H22  1  0.10751627  0.68422098  0.50263846  1  0.068243  -0.00025  0.930512  0.0  0.08714  -0.000217  0.989041  0.0  0.0882  -0.000126  0.987962  0.0  0.091781  0.086488  -0.000276  0.989757  0.0
H  H23  1  0.89249471  0.31576987  0.49735147  1  0.068183  0.000253  0.930462  0.0  0.087043  0.000217  0.989036  0.0  0.088103  0.000126  0.987958  0.0  0.091745  0.086384  0.000277  0.989763  0.0
H  H24  1  0.01251176  0.00415894  0.35217501  1  0.120371  -0.000217  0.918378  0.0  0.137475  -0.00015  0.970682  0.0  0.139584  -0.000127  0.970432  0.0  0.107343  0.136068  -0.000143  0.970721  0.0
H  H25  1  0.98748972  0.99583995  0.64782491  1  0.120386  0.000214  0.918335  0.0  0.137486  0.00015  0.970649  0.0  0.139594  0.000127  0.9704  0.0  0.107348  0.136074  0.000143  0.970689  0.0
H  H26  1  0.18841849  0.92805129  0.23732029  1  0.109389  -0.000649  0.924704  -0.001  0.124069  -0.000457  0.983287  0.0  0.125579  -0.000318  0.983449  0.0  0.103075  0.122854  -0.000504  0.983225  0.0
H  H27  1  0.81157639  0.07195831  0.76268133  1  0.109365  0.000648  0.924749  0.001  0.124078  0.000457  0.983288  0.0  0.12559  0.000318  0.983445  0.0  0.103063  0.122859  0.000505  0.983221  0.0
C  C28  1  0.82365497  0.20690764  0.03460205  1  0.307443  -1.5e-05  3.788785  0.0  0.257098  3.1e-05  4.081972  0.0  0.275203  -8e-06  4.089203  0.0  0.159815  0.245345  5.8e-05  4.076564  0.0
C  C29  1  0.17634260  0.79309125  0.96540381  1  0.30746  -5e-06  3.788883  0.0  0.257096  -2.9e-05  4.082069  0.0  0.275201  3e-06  4.0893  0.0  0.159876  0.24535  -5.8e-05  4.076639  0.0
C  C30  1  0.60312932  0.33243037  0.90122730  1  0.266085  0.000144  3.857752  0.0  0.231269  9e-05  4.12525  0.0  0.245328  6.2e-05  4.143221  0.0  0.212107  0.222153  0.000112  4.112924  0.0
C  C31  1  0.39687316  0.66756585  0.09877585  1  0.265981  -0.000155  3.857852  0.0  0.231135  -8.9e-05  4.125377  0.0  0.245204  -6.5e-05  4.143338  0.0  0.212066  0.222019  -0.000112  4.113055  0.0
C  C32  1  0.64095906  0.49186405  0.85051230  1  -0.056842  0.000928  3.78438  0.001  -0.045787  0.000175  4.03496  0.0  -0.052319  0.000133  4.059279  0.0  0.076086  -0.041926  0.000215  4.019585  0.0
C  C33  1  0.35904150  0.50812681  0.14948902  1  -0.056836  -0.000925  3.784443  -0.001  -0.045745  -0.000176  4.035003  0.0  -0.052278  -0.00013  4.059322  0.0  0.076111  -0.041888  -0.000215  4.019642  0.0
C  C34  1  0.78733474  0.49818809  0.90213886  1  0.456156  -4.5e-05  3.859274  0.0  0.418935  4e-06  4.132738  0.0  0.440749  -8e-06  4.144184  0.0  0.2376  0.404401  1e-05  4.124637  0.0
C  C35  1  0.21266313  0.50181349  0.09786534  1  0.456199  4.5e-05  3.859107  0.0  0.418906  -3e-06  4.132672  0.0  0.440718  5e-06  4.14412  0.0  0.237516  0.404374  -1e-05  4.124574  0.0
C  C36  1  0.41299696  0.52672020  0.75432826  1  0.191964  0.001023  3.638516  0.001  0.132117  0.000431  3.91616  0.0  0.148723  0.000388  3.926452  0.0  0.154771  0.12125  0.000464  3.91001  0.0
C  C37  1  0.58701272  0.47327066  0.24567344  1  0.192087  -0.001026  3.63815  -0.001  0.132222  -0.000431  3.915822  0.0  0.148823  -0.000384  3.926112  0.0  0.154776  0.121356  -0.000464  3.909678  0.0
C  C38  1  0.36487982  0.23125767  0.86118586  1  -0.157392  7e-05  3.610315  0.0  -0.25945  4.6e-05  3.855163  0.0  -0.254973  5e-05  3.860685  0.0  -0.129551  -0.262187  3.7e-05  3.851409  0.0
C  C39  1  0.63512036  0.76874123  0.13881871  1  -0.15734  -7.3e-05  3.610215  0.0  -0.259427  -4.6e-05  3.855098  0.0  -0.254946  -5e-05  3.860618  0.0  -0.129523  -0.262159  -3.8e-05  3.851335  0.0
C  C40  1  0.79452086  0.80661284  0.39592319  1  0.67603  -9.1e-05  3.830283  0.0  0.644204  -3.7e-05  4.131631  0.0  0.684509  -5.6e-05  4.12907  0.0  0.21038  0.616551  -1.5e-05  4.134838  0.0
C  C41  1  0.20547681  0.19339275  0.60407640  1  0.675957  8.6e-05  3.830246  0.0  0.644233  3.4e-05  4.13153  0.0  0.684538  5.4e-05  4.128972  0.0  0.21041  0.616581  1.9e-05  4.134735  0.0
C  C42  1  0.98298245  0.69769629  0.34381019  1  -0.259149  0.001105  3.645211  0.001  -0.301644  0.000767  3.897656  0.001  -0.310309  0.000481  3.907099  0.001  -0.164066  -0.294238  0.000901  3.890123  0.001
C  C43  1  0.01701322  0.30231464  0.65618294  1  -0.259  -0.001113  3.645015  -0.001  -0.301666  -0.000769  3.897633  -0.001  -0.310336  -0.000479  3.907083  -0.001  -0.164048  -0.294242  -0.000905  3.890041  -0.001
C  C44  1  0.13586235  0.71420248  0.39833410  1  -0.056342  0.001578  3.673246  0.002  -0.097382  0.000942  3.933493  0.001  -0.094748  0.000626  3.944862  0.001  -0.163419  -0.099311  0.001075  3.925197  0.001
C  C45  1  0.86413912  0.28579640  0.60165780  1  -0.055992  -0.001593  3.672856  -0.002  -0.096972  -0.000941  3.933141  -0.001  -0.094339  -0.000627  3.944516  -0.001  -0.163297  -0.098899  -0.001074  3.924846  -0.001
C  C46  1  0.14932405  0.89928609  0.34091568  1  -0.266444  -0.000651  3.657956  -0.001  -0.303166  -0.00038  3.905049  0.0  -0.31145  -0.000297  3.913194  0.0  -0.163749  -0.296254  -0.000388  3.89854  0.0
C  C47  1  0.85067532  0.10071146  0.65908581  1  -0.266538  0.000662  3.657982  0.001  -0.303254  0.000377  3.905052  0.0  -0.311546  0.000297  3.913194  0.0  -0.16376  -0.296341  0.000381  3.89853  0.0
C  C48  1  0.28479502  0.92895650  0.40020975  1  0.700309  0.001151  3.801078  0.001  0.660848  0.000509  4.105276  0.001  0.701244  0.000513  4.101031  0.001  0.220073  0.632984  0.000462  4.109617  0.001
C  C49  1  0.71520946  0.07103437  0.59979631  1  0.700227  -0.001163  3.80115  -0.001  0.660711  -0.000511  4.105435  -0.001  0.701132  -0.000514  4.101161  -0.001  0.219929  0.632844  -0.000458  4.10977  -0.001
N  N50  1  0.87487468  0.35082795  0.99637528  1  -0.50922  0.000194  3.068659  0.0  -0.455748  6e-05  3.336414  0.0  -0.476544  4.6e-05  3.346441  0.0  -0.340203  -0.441769  8.2e-05  3.329314  0.0
N  N51  1  0.12512339  0.64916961  0.00362819  1  -0.50918  -0.000185  3.068572  0.0  -0.455664  -6.2e-05  3.33631  0.0  -0.476459  -4.3e-05  3.34634  0.0  -0.340166  -0.44168  -8.1e-05  3.329196  0.0
N  N52  1  0.69105991  0.18517021  0.99190634  1  -0.436395  0.000501  3.022417  0.001  -0.405591  7.6e-05  3.305725  0.0  -0.421724  5.3e-05  3.315654  0.0  -0.344451  -0.394839  0.000108  3.298753  0.0
N  N53  1  0.30894176  0.81482467  0.00809552  1  -0.436282  -0.000485  3.02236  -0.001  -0.405454  -7.8e-05  3.305655  0.0  -0.421587  -5e-05  3.31558  0.0  -0.344411  -0.394701  -0.000108  3.298676  0.0
N  N54  1  0.84517486  0.63713139  0.86360938  1  -0.644268  0.000468  3.114834  0.0  -0.600699  -0.000184  3.35012  0.0  -0.62347  -9.1e-05  3.345127  0.0  -0.566246  -0.584811  -0.000223  3.35312  0.0
N  N55  1  0.15482000  0.36286081  0.13639602  1  -0.644343  -0.000473  3.114679  0.0  -0.600785  0.000185  3.34996  0.0  -0.623561  9e-05  3.344966  0.0  -0.566262  -0.584894  0.000223  3.352958  0.0
N  N56  1  0.51996014  0.61168445  0.75787570  1  -0.366737  0.001256  3.14842  0.0  -0.337019  0.000794  3.453661  0.0  -0.361114  0.000804  3.46649  0.0  -0.351782  -0.323318  0.00072  3.445938  0.0
N  N57  1  0.48004203  0.38830909  0.24212644  1  -0.366745  -0.001253  3.148252  0.0  -0.336998  -0.000793  3.453448  0.0  -0.361109  -0.000808  3.466279  0.0  -0.351739  -0.323289  -0.00072  3.445712  0.0
N  N58  1  0.45664378  0.35816738  0.83859163  1  -0.108827  -9.5e-05  3.514247  0.0  -0.010298  3.5e-05  3.737243  0.0  -0.027299  3.3e-05  3.759545  0.0  -0.242581  0.000994  3.4e-05  3.721645  0.0
N  N59  1  0.54335919  0.64182750  0.16140913  1  -0.108903  9.8e-05  3.51409  0.0  -0.010346  -3.6e-05  3.737094  0.0  -0.027354  -3.4e-05  3.759397  0.0  -0.242579  0.000951  -3.4e-05  3.721498  0.0
O  O60  1  0.72826101  0.72839359  0.50377202  1  -0.574511  -0.074762  2.080619  -0.099  -0.552794  -0.051406  2.359277  -0.075  -0.601885  -0.040555  2.353278  -0.062  -0.313336  -0.522973  -0.053721  2.363491  -0.075
O  O61  1  0.27174503  0.27162806  0.49623267  1  -0.574362  0.07478  2.080454  0.099  -0.552683  0.051415  2.359076  0.075  -0.60178  0.040559  2.353059  0.062  -0.313269  -0.522864  0.053726  2.363268  0.075
O  O62  1  0.72355253  0.97011674  0.33087291  1  -0.577248  0.07752  2.086875  0.103  -0.557522  0.05326  2.370443  0.078  -0.607697  0.041858  2.364226  0.065  -0.311272  -0.527069  0.055649  2.374911  0.078
O  O63  1  0.27644401  0.02988480  0.66910746  1  -0.57737  -0.077505  2.086858  -0.103  -0.557653  -0.053253  2.370368  -0.078  -0.607812  -0.041853  2.364155  -0.065  -0.311372  -0.527201  -0.05565  2.374856  -0.078
O  O64  1  0.33588442  0.82447576  0.50895666  1  -0.575393  -0.068006  2.090718  -0.09  -0.547065  -0.048815  2.366063  -0.071  -0.594495  -0.039003  2.35821  -0.06  -0.305204  -0.518044  -0.049984  2.371552  -0.07
O  O65  1  0.66414841  0.17551242  0.49103597  1  -0.575421  0.068017  2.090459  0.09  -0.547023  0.048817  2.365779  0.071  -0.59448  0.039003  2.357915  0.06  -0.305141  -0.517998  0.049984  2.371235  0.07
O  O66  1  0.33529160  0.06200318  0.33533585  1  -0.602803  0.063072  2.141934  0.084  -0.567715  0.047054  2.415535  0.068  -0.61527  0.038038  2.406251  0.058  -0.312586  -0.5387  0.047778  2.422125  0.067
O  O67  1  0.66467713  0.93801713  0.66467048  1  -0.602683  -0.063066  2.142182  -0.084  -0.567622  -0.047052  2.415845  -0.068  -0.615171  -0.038039  2.406556  -0.058  -0.312509  -0.538607  -0.047784  2.422454  -0.067
