# generated using pymatgen
data_Ag2H8C12N2O7
_symmetry_space_group_name_H-M   'P 1'
_cell_length_a   6.31655267
_cell_length_b   9.24651758
_cell_length_c   11.67917215
_cell_angle_alpha   90.27825299
_cell_angle_beta   99.04559037
_cell_angle_gamma   105.91783673
_symmetry_Int_Tables_number   1
_chemical_formula_structural   Ag2H8C12N2O7
_chemical_formula_sum   'Ag4 H16 C24 N4 O14'
_cell_volume   646.99409598
_cell_formula_units_Z   2
loop_
 _symmetry_equiv_pos_site_id
 _symmetry_equiv_pos_as_xyz
  1  'x, y, z'
loop_
 _atom_site_type_symbol
 _atom_site_label
 _atom_site_symmetry_multiplicity
 _atom_site_fract_x
 _atom_site_fract_y
 _atom_site_fract_z
 _atom_site_occupancy
 _atom_site_hle17_bader_spin_density
 _atom_site_hle17_ddec_charge
 _atom_site_hle17_ddec_spin_density
 _atom_site_hle17_ddec_sum_bond_order
 _atom_site_hle17_magmom
 _atom_site_hse06_10hf_bader_spin_density
 _atom_site_hse06_10hf_ddec_charge
 _atom_site_hse06_10hf_ddec_spin_density
 _atom_site_hse06_10hf_ddec_sum_bond_order
 _atom_site_hse06_10hf_magmom
 _atom_site_hse06_bader_spin_density
 _atom_site_hse06_ddec_charge
 _atom_site_hse06_ddec_spin_density
 _atom_site_hse06_ddec_sum_bond_order
 _atom_site_hse06_magmom
 _atom_site_pbe_bader_spin_density
 _atom_site_pbe_cm5_charge
 _atom_site_pbe_ddec_charge
 _atom_site_pbe_ddec_spin_density
 _atom_site_pbe_ddec_sum_bond_order
 _atom_site_pbe_magmom
Ag  Ag0  1  0.78680047  0.71131167  0.19308818  1  0  0.634873  0  1.235528  0  0  0.508754  0  1.657932  0  0  0.545108  0  1.602416  0  0  0.434742  0.483747  0  1.696262  0
Ag  Ag1  1  0.21320256  0.28868845  0.80691292  1  0  0.634878  0  1.235538  0  0  0.50877  0  1.657918  0  0  0.545121  0  1.602408  0  0  0.434759  0.483762  0  1.696243  0
Ag  Ag2  1  0.91280416  0.49977773  0.38068459  1  0  0.584946  0  1.440296  0  0  0.47779  0  1.897615  0  0  0.509876  0  1.838717  0  0  0.414828  0.455767  0  1.938617  0
Ag  Ag3  1  0.08718994  0.50022003  0.61932002  1  0  0.584952  0  1.440305  0  0  0.477787  0  1.897642  0  0  0.509875  0  1.838736  0  0  0.414805  0.455762  0  1.938643  0
H  H4  1  0.10311348  0.39969781  0.99914896  1  0  0.111484  0  0.9486  0  0  0.12064  0  1.012608  0  0  0.124401  0  1.008449  0  0  0.110674  0.117613  0  1.01628  0
H  H5  1  0.89687898  0.60030008  0.00084696  1  0  0.11146  0  0.948653  0  0  0.120614  0  1.012659  0  0  0.124373  0  1.0085  0  0  0.110661  0.117588  0  1.016331  0
H  H6  1  0.75430297  0.18048883  0.95975492  1  0  0.127412  0  0.946639  0  0  0.139962  0  0.998023  0  0  0.143967  0  0.995618  0  0  0.118838  0.136996  0  0.999905  0
H  H7  1  0.24569435  0.81950119  0.04024300  1  0  0.127431  0  0.946627  0  0  0.139956  0  0.998058  0  0  0.143982  0  0.995617  0  0  0.118821  0.13699  0  0.999939  0
H  H8  1  0.72152759  0.96088232  0.08841161  1  0  0.107771  0  0.958437  0  0  0.11392  0  1.030363  0  0  0.118397  0  1.024743  0  0  0.124357  0.11055  0  1.034773  0
H  H9  1  0.27847729  0.03911442  0.91159045  1  0  0.107762  0  0.958463  0  0  0.113915  0  1.030388  0  0  0.118391  0  1.024768  0  0  0.124356  0.110546  0  1.034794  0
H  H10  1  0.77158576  0.97347289  0.36109864  1  0  0.116947  0  0.967649  0  0  0.120457  0  1.035792  0  0  0.125266  0  1.031174  0  0  0.125538  0.11702  0  1.039131  0
H  H11  1  0.22841656  0.02652947  0.63890243  1  0  0.116982  0  0.967636  0  0  0.12045  0  1.035848  0  0  0.125256  0  1.031235  0  0  0.125555  0.117011  0  1.039187  0
H  H12  1  0.87395130  0.13199955  0.55058857  1  0  0.125292  0  0.941809  0  0  0.133551  0  1.00042  0  0  0.137403  0  0.998931  0  0  0.112797  0.130829  0  1.001729  0
H  H13  1  0.12604899  0.86800161  0.44941660  1  0  0.125335  0  0.941772  0  0  0.13353  0  1.000447  0  0  0.137381  0  0.998958  0  0  0.112801  0.130805  0  1.001758  0
H  H14  1  0.63192688  0.29597026  0.58822225  1  0  0.120046  0  0.977065  0  0  0.125902  0  1.044043  0  0  0.130836  0  1.038714  0  0  0.107794  0.122347  0  1.047924  0
H  H15  1  0.36806353  0.70402645  0.41177605  1  0  0.120116  0  0.976869  0  0  0.125838  0  1.044  0  0  0.130822  0  1.038615  0  0  0.107776  0.12228  0  1.047894  0
H  H16  1  0.26922048  0.79254047  0.22687617  1  0  0.404917  0  0.905842  0  0  0.371486  0  0.978637  0  0  0.381784  0  0.963803  0  0  0.281518  0.364464  0  0.988699  0
H  H17  1  0.73078871  0.20746310  0.77312206  1  0  0.404986  0  0.90576  0  0  0.371561  0  0.97854  0  0  0.381863  0  0.963699  0  0  0.281572  0.36454  0  0.988601  0
H  H18  1  0.25453619  0.62346554  0.19514097  1  0  0.42323  0  0.876277  0  0  0.395666  0  0.934264  0  0  0.405444  0  0.92021  0  0  0.287327  0.388791  0  0.944143  0
H  H19  1  0.74547346  0.37653914  0.80485817  1  0  0.423236  0  0.876278  0  0  0.395664  0  0.934278  0  0  0.405446  0  0.920218  0  0  0.28732  0.388786  0  0.94416  0
C  C20  1  0.46921095  0.41711010  0.16461457  1  0  0.66087  0  3.900354  0  0  0.606037  0  4.190443  0  0  0.640707  0  4.186099  0  0  0.205715  0.582701  0  4.192211  0
C  C21  1  0.53078724  0.58289005  0.83538271  1  0  0.661059  0  3.900115  0  0  0.606216  0  4.190221  0  0  0.640888  0  4.185877  0  0  0.205853  0.582888  0  4.19198  0
C  C22  1  0.25321590  0.29365288  0.14113281  1  0  -0.07174  0  3.693405  0  0  -0.056298  0  3.932338  0  0  -0.063529  0  3.948663  0  0  0.00567  -0.052046  0  3.921722  0
C  C23  1  0.74677794  0.70634832  0.85886755  1  0  -0.071828  0  3.693331  0  0  -0.056407  0  3.932264  0  0  -0.063647  0  3.948603  0  0  0.005604  -0.052157  0  3.921658  0
C  C24  1  0.08319865  0.30073029  0.05098384  1  0  -0.056386  0  3.716675  0  0  -0.088237  0  3.979373  0  0  -0.082632  0  3.99137  0  0  -0.076031  -0.092342  0  3.972386  0
C  C25  1  0.91679543  0.69926754  0.94901649  1  0  -0.056356  0  3.716756  0  0  -0.088179  0  3.979423  0  0  -0.082573  0  3.991431  0  0  -0.076003  -0.092285  0  3.972442  0
C  C26  1  0.88921729  0.18102459  0.03004807  1  0  -0.060736  0  3.727719  0  0  -0.076277  0  3.984662  0  0  -0.079637  0  4.000567  0  0  -0.07282  -0.074046  0  3.974201  0
C  C27  1  0.11077910  0.81897102  0.96995156  1  0  -0.06077  0  3.727835  0  0  -0.076319  0  3.984827  0  0  -0.079691  0  4.000717  0  0  -0.072825  -0.074088  0  3.974364  0
C  C28  1  0.86727005  0.05806893  0.09813049  1  0  0.017085  0  3.605996  0  0  -0.029437  0  3.875637  0  0  -0.022375  0  3.887686  0  0  0.038798  -0.034669  0  3.868041  0
C  C29  1  0.13273046  0.94192893  0.90187037  1  0  0.017127  0  3.606017  0  0  -0.029389  0  3.875646  0  0  -0.022337  0  3.887723  0  0  0.038792  -0.034616  0  3.868046  0
C  C30  1  0.22263461  0.16999583  0.21158845  1  0  0.10692  0  3.628478  0  0  0.08712  0  3.878717  0  0  0.096467  0  3.890412  0  0  0.129435  0.081577  0  3.870619  0
C  C31  1  0.77737297  0.83000775  0.78840879  1  0  0.10692  0  3.628607  0  0  0.087157  0  3.87879  0  0  0.096516  0  3.89046  0  0  0.129468  0.081605  0  3.870707  0
C  C32  1  0.38599990  0.15825349  0.31443808  1  0  0.09504  0  3.629152  0  0  0.075477  0  3.879165  0  0  0.085013  0  3.891717  0  0  0.122557  0.069471  0  3.870348  0
C  C33  1  0.61400148  0.84175449  0.68556300  1  0  0.094947  0  3.629376  0  0  0.075421  0  3.879401  0  0  0.084985  0  3.89195  0  0  0.122527  0.069402  0  3.870595  0
C  C34  1  0.68212051  0.05177269  0.38387737  1  0  0.024187  0  3.566761  0  0  -0.017826  0  3.829093  0  0  -0.010507  0  3.84036  0  0  0.036759  -0.022137  0  3.821422  0
C  C35  1  0.31787973  0.94822861  0.61611924  1  0  0.024102  0  3.566908  0  0  -0.01794  0  3.829313  0  0  -0.010624  0  3.840587  0  0  0.036651  -0.022247  0  3.821632  0
C  C36  1  0.73476443  0.14022077  0.48545337  1  0  -0.090568  0  3.765391  0  0  -0.105761  0  4.030844  0  0  -0.110748  0  4.048838  0  0  -0.083614  -0.103209  0  4.019674  0
C  C37  1  0.26523172  0.85977817  0.51454886  1  0  -0.09059  0  3.765593  0  0  -0.105671  0  4.030928  0  0  -0.110658  0  4.048929  0  0  -0.083581  -0.10312  0  4.019767  0
C  C38  1  0.60229380  0.23257040  0.50580299  1  0  -0.07253  0  3.759472  0  0  -0.105453  0  4.026757  0  0  -0.100159  0  4.03859  0  0  -0.084615  -0.10904  0  4.020106  0
C  C39  1  0.39770487  0.76743077  0.49420119  1  0  -0.072519  0  3.759229  0  0  -0.10529  0  4.026514  0  0  -0.100013  0  4.038337  0  0  -0.084552  -0.10889  0  4.019868  0
C  C40  1  0.42498801  0.24098029  0.42016486  1  0  -0.102799  0  3.711034  0  0  -0.086895  0  3.951828  0  0  -0.095876  0  3.970513  0  0  -0.006366  -0.081529  0  3.940228  0
C  C41  1  0.57500700  0.75901973  0.57983986  1  0  -0.102673  0  3.710704  0  0  -0.086906  0  3.951635  0  0  -0.095965  0  3.970428  0  0  -0.006352  -0.081509  0  3.939999  0
C  C42  1  0.27554325  0.33450468  0.44708220  1  0  0.652499  0  3.90174  0  0  0.601822  0  4.184288  0  0  0.636516  0  4.182409  0  0  0.207035  0.577904  0  4.185471  0
C  C43  1  0.72445590  0.66548980  0.55291850  1  0  0.652381  0  3.901596  0  0  0.601729  0  4.184168  0  0  0.636442  0  4.182296  0  0  0.207031  0.577804  0  4.185343  0
N  N44  1  0.03041755  0.05476380  0.18864042  1  0  0.240907  0  3.681506  0  0  0.285977  0  3.941742  0  0  0.286197  0  3.963846  0  0  -0.107433  0.285221  0  3.926626  0
N  N45  1  0.96958202  0.94523966  0.81136130  1  0  0.240879  0  3.681733  0  0  0.285935  0  3.941961  0  0  0.286152  0  3.964069  0  0  -0.107428  0.28518  0  3.926845  0
N  N46  1  0.50782589  0.05866595  0.30086849  1  0  0.25818  0  3.685856  0  0  0.306622  0  3.949079  0  0  0.307052  0  3.968831  0  0  -0.102042  0.30589  0  3.935751  0
N  N47  1  0.49217391  0.94133421  0.69912891  1  0  0.258177  0  3.68581  0  0  0.306632  0  3.949049  0  0  0.307062  0  3.968794  0  0  -0.102056  0.305899  0  3.935723  0
O  O48  1  0.45501199  0.55093090  0.14264077  1  0  -0.634718  0  2.074213  0  0  -0.549361  0  2.327753  0  0  -0.582793  0  2.316365  0  0  -0.322436  -0.525745  0  2.334248  0
O  O49  1  0.54499307  0.44907046  0.85735366  1  0  -0.63474  0  2.074214  0  0  -0.549372  0  2.327757  0  0  -0.582805  0  2.316367  0  0  -0.32245  -0.525757  0  2.334244  0
O  O50  1  0.64569112  0.38266337  0.20192353  1  0  -0.607903  0  1.994652  0  0  -0.548674  0  2.241034  0  0  -0.577727  0  2.233245  0  0  -0.316278  -0.528676  0  2.246084  0
O  O51  1  0.35430247  0.61733345  0.79806904  1  0  -0.607999  0  1.99464  0  0  -0.548761  0  2.241035  0  0  -0.577815  0  2.233242  0  0  -0.316349  -0.528766  0  2.246085  0
O  O52  1  0.00624137  0.94043544  0.25765344  1  0  -0.522178  0  1.91338  0  0  -0.461161  0  2.17501  0  0  -0.490541  0  2.174025  0  0  -0.233286  -0.440284  0  2.175308  0
O  O53  1  0.99376166  0.05956465  0.74234937  1  0  -0.52216  0  1.913509  0  0  -0.461116  0  2.17512  0  0  -0.490498  0  2.174136  0  0  -0.23328  -0.440242  0  2.175422  0
O  O54  1  0.45657413  0.97040938  0.20673338  1  0  -0.537366  0  1.775126  0  0  -0.503416  0  2.00749  0  0  -0.526784  0  2.007387  0  0  -0.230393  -0.486815  0  2.007351  0
O  O55  1  0.54344222  0.02959186  0.79327310  1  0  -0.537392  0  1.775016  0  0  -0.503456  0  2.007374  0  0  -0.526822  0  2.007267  0  0  -0.23039  -0.486853  0  2.007238  0
O  O56  1  0.15833032  0.37594234  0.36219396  1  0  -0.58331  0  2.102535  0  0  -0.508786  0  2.358621  0  0  -0.541404  0  2.352493  0  0  -0.309584  -0.486412  0  2.362451  0
O  O57  1  0.84166354  0.62405879  0.63781068  1  0  -0.583251  0  2.102565  0  0  -0.508706  0  2.358624  0  0  -0.541323  0  2.352489  0  0  -0.309566  -0.486331  0  2.362447  0
O  O58  1  0.28033048  0.36056219  0.55485650  1  0  -0.622526  0  2.099241  0  0  -0.549485  0  2.373388  0  0  -0.581629  0  2.36216  0  0  -0.323103  -0.52668  0  2.380492  0
O  O59  1  0.71966933  0.63943793  0.44514347  1  0  -0.622498  0  2.099297  0  0  -0.549442  0  2.373418  0  0  -0.581585  0  2.36219  0  0  -0.3231  -0.526635  0  2.380522  0
O  O60  1  0.17386852  0.68752352  0.22803113  1  0  -0.84988  0  1.921171  0  0  -0.784131  0  2.127671  0  0  -0.808112  0  2.093665  0  0  -0.596376  -0.767267  0  2.151046  0
O  O61  1  0.82614435  0.31248117  0.77196912  1  0  -0.849922  0  1.921126  0  0  -0.784205  0  2.127628  0  0  -0.808185  0  2.093603  0  0  -0.596426  -0.767341  0  2.151004  0
