# generated using pymatgen
data_CoH24C24(N3O2)2
_symmetry_space_group_name_H-M   'P 1'
_cell_length_a   5.03152183
_cell_length_b   9.19734770
_cell_length_c   11.56460654
_cell_angle_alpha   89.60681892
_cell_angle_beta   91.63536151
_cell_angle_gamma   80.67836713
_symmetry_Int_Tables_number   1
_chemical_formula_structural   CoH24C24(N3O2)2
_chemical_formula_sum   'Co1 H24 C24 N6 O4'
_cell_volume   527.85329616
_cell_formula_units_Z   1
loop_
 _symmetry_equiv_pos_site_id
 _symmetry_equiv_pos_as_xyz
  1  'x, y, z'
loop_
 _atom_site_type_symbol
 _atom_site_label
 _atom_site_symmetry_multiplicity
 _atom_site_fract_x
 _atom_site_fract_y
 _atom_site_fract_z
 _atom_site_occupancy
 _atom_site_pbe_cm5_charge
 _atom_site_pbe_ddec_charge
 _atom_site_pbe_ddec_spin_density
 _atom_site_pbe_ddec_sum_bond_order
 _atom_site_pbe_magmom
Co  Co0  1  0.99999512  0.50000266  0.00000101  1  0.640089  0.768807  -1.006331  2.809355  -0.944
H  H1  1  0.89377796  0.08621305  0.09395378  1  0.096085  0.088001  0.000106  1.066041  0.0
H  H2  1  0.10619546  0.91380096  0.90605125  1  0.096081  0.08801  0.000106  1.066046  0.0
H  H3  1  0.18275525  0.17232884  0.87521190  1  0.103845  0.109405  0.000165  1.033018  0.0
H  H4  1  0.81722943  0.82768747  0.12479488  1  0.103811  0.109397  0.000165  1.032858  0.0
H  H5  1  0.45043733  0.51728898  0.20168940  1  0.136382  0.113477  0.000299  1.070672  0.0
H  H6  1  0.54958060  0.48270231  0.79830205  1  0.136356  0.113485  0.000298  1.070608  0.0
H  H7  1  0.79655002  0.28583373  0.18723066  1  0.145148  0.113502  0.000165  1.028355  0.0
H  H8  1  0.20344363  0.71417275  0.81277188  1  0.14518  0.113527  0.000165  1.028366  0.0
H  H9  1  0.88033783  0.14918514  0.37837005  1  0.118514  0.102632  -1.5e-05  1.006352  0.0
H  H10  1  0.11967100  0.85081047  0.62162653  1  0.118493  0.102609  -1.5e-05  1.006363  0.0
H  H11  1  0.94612404  0.27916798  0.48131252  1  0.117321  0.107063  6.7e-05  0.982623  0.0
H  H12  1  0.05388164  0.72083092  0.51868231  1  0.117346  0.107105  6.7e-05  0.982495  0.0
H  H13  1  0.30500129  0.28379680  0.69736136  1  0.09311  0.136591  6.2e-05  1.007785  0.0
H  H14  1  0.69499716  0.71620089  0.30264038  1  0.093109  0.136635  6.2e-05  1.007778  0.0
H  H15  1  0.23106268  0.36713063  0.55841437  1  0.088459  0.122516  1.5e-05  1.034496  0.0
H  H16  1  0.76895060  0.63286389  0.44158483  1  0.08847  0.122577  1.5e-05  1.034435  0.0
H  H17  1  0.56120613  0.33914972  0.61456790  1  0.090926  0.125816  1.7e-05  1.025377  0.0
H  H18  1  0.43880584  0.66083704  0.38543392  1  0.090968  0.125866  1.7e-05  1.025297  0.0
H  H19  1  0.18778025  0.01397762  0.22961568  1  0.091243  0.127078  3e-05  1.022264  0.0
H  H20  1  0.81222758  0.98601573  0.77038610  1  0.091241  0.127058  3e-05  1.022297  0.0
H  H21  1  0.97067991  0.93259972  0.31874612  1  0.088905  0.122129  6e-06  1.035641  0.0
H  H22  1  0.02932747  0.06739475  0.68125393  1  0.08891  0.122137  6e-06  1.035577  0.0
H  H23  1  0.25869415  0.82439953  0.26142075  1  0.093916  0.136531  -1.3e-05  1.021474  0.0
H  H24  1  0.74130931  0.17559489  0.73858015  1  0.093921  0.13652  -1.3e-05  1.021414  0.0
C  C25  1  0.58499323  0.30146564  0.96079492  1  0.209968  0.552776  -0.004018  4.17261  -0.007
C  C26  1  0.41499712  0.69854522  0.03921019  1  0.210035  0.552759  -0.00402  4.172346  -0.007
C  C27  1  0.54288484  0.14592906  0.98261220  1  -0.019654  -0.036082  0.001828  3.973086  0.001
C  C28  1  0.45709881  0.85408395  0.01739201  1  -0.019621  -0.035963  0.001828  3.973014  0.001
C  C29  1  0.71889767  0.04865178  0.05438022  1  -0.093751  -0.109169  -0.000198  3.993879  0.0
C  C30  1  0.28109241  0.95136017  0.94562661  1  -0.093674  -0.10918  -0.000199  3.994054  0.0
C  C31  1  0.32280573  0.09554125  0.92832816  1  -0.087034  -0.091401  0.000687  3.967722  0.0
C  C32  1  0.67716712  0.90447389  0.07167254  1  -0.086927  -0.091288  0.000686  3.967441  0.0
C  C33  1  0.30434968  0.44940952  0.22773776  1  0.136775  0.112223  0.003619  3.96469  0.002
C  C34  1  0.69565974  0.55058389  0.77225624  1  0.136803  0.112088  0.003619  3.965016  0.002
C  C35  1  0.97263402  0.33099435  0.21506127  1  0.163797  0.083399  0.00661  3.85978  0.004
C  C36  1  0.02736450  0.66900888  0.78493784  1  0.163758  0.083354  0.006611  3.859925  0.004
C  C37  1  0.03763038  0.20795646  0.41268856  1  -0.042704  -0.122642  4.2e-05  3.895927  0.0
C  C38  1  0.96237840  0.79203915  0.58730716  1  -0.042772  -0.122759  4.2e-05  3.895866  0.0
C  C39  1  0.28130674  0.10200081  0.45783730  1  -0.019083  -0.035645  0.000102  3.937189  0.0
C  C40  1  0.71870708  0.89799259  0.54216537  1  -0.019116  -0.035671  0.000102  3.937084  0.0
C  C41  1  0.43476341  0.13948795  0.55380047  1  -0.013927  0.056387  5.5e-05  3.95428  0.0
C  C42  1  0.56523834  0.86050537  0.44619870  1  -0.013865  0.056578  5.5e-05  3.953821  0.0
C  C43  1  0.37740238  0.28919851  0.60876916  1  -0.245345  -0.41305  6.6e-05  3.969049  0.0
C  C44  1  0.62260175  0.71079371  0.39123089  1  -0.245396  -0.413266  6.6e-05  3.968959  0.0
C  C45  1  0.34715611  0.96480741  0.40306848  1  -0.015033  0.058881  1.8e-05  3.932915  0.0
C  C46  1  0.65284068  0.03518916  0.59693238  1  -0.015002  0.058912  1.8e-05  3.933001  0.0
C  C47  1  0.18329294  0.93155555  0.29839005  1  -0.244529  -0.405651  2.2e-05  3.944698  0.0
C  C48  1  0.81671079  0.06843778  0.70160912  1  -0.244539  -0.40559  2.2e-05  3.944606  0.0
N  N49  1  0.09800102  0.42360473  0.15469107  1  -0.347366  -0.260783  0.006841  3.601671  0.004
N  N50  1  0.90198916  0.57639953  0.84530714  1  -0.347418  -0.2608  0.006841  3.601867  0.004
N  N51  1  0.31380043  0.37694284  0.32782881  1  -0.230691  -0.275379  0.00033  3.117338  0.0
N  N52  1  0.68622173  0.62304185  0.67216441  1  -0.230666  -0.275191  0.00033  3.117486  0.0
N  N53  1  0.10143477  0.30247733  0.31815803  1  -0.133673  0.166436  0.001372  3.729904  0.001
N  N54  1  0.89857902  0.69751501  0.68183685  1  -0.133598  0.166467  0.001372  3.730006  0.001
O  O55  1  0.38831360  0.39313773  0.92150112  1  -0.303945  -0.551943  -0.012615  2.387401  -0.019
O  O56  1  0.61168307  0.60687868  0.07850744  1  -0.30396  -0.551918  -0.012614  2.387375  -0.019
O  O57  1  0.82770238  0.32615187  0.98092854  1  -0.297842  -0.517683  -0.0025  2.465532  -0.008
O  O58  1  0.17229540  0.67385463  0.01907747  1  -0.297837  -0.517677  -0.002501  2.465419  -0.008
