# generated using pymatgen
data_CuH12C7(SN2)2
_symmetry_space_group_name_H-M   'P 1'
_cell_length_a   8.32620635
_cell_length_b   9.62945115
_cell_length_c   13.48614735
_cell_angle_alpha   90.00031954
_cell_angle_beta   90.00011486
_cell_angle_gamma   89.99965355
_symmetry_Int_Tables_number   1
_chemical_formula_structural   CuH12C7(SN2)2
_chemical_formula_sum   'Cu4 H48 C28 S8 N16'
_cell_volume   1081.27610215
_cell_formula_units_Z   4
loop_
 _symmetry_equiv_pos_site_id
 _symmetry_equiv_pos_as_xyz
  1  'x, y, z'
loop_
 _atom_site_type_symbol
 _atom_site_label
 _atom_site_symmetry_multiplicity
 _atom_site_fract_x
 _atom_site_fract_y
 _atom_site_fract_z
 _atom_site_occupancy
 _atom_site_hle17_ddec_charge
 _atom_site_hle17_ddec_spin_density
 _atom_site_hle17_ddec_sum_bond_order
 _atom_site_hle17_magmom
 _atom_site_hse06_10hf_ddec_charge
 _atom_site_hse06_10hf_ddec_spin_density
 _atom_site_hse06_10hf_ddec_sum_bond_order
 _atom_site_hse06_10hf_magmom
 _atom_site_hse06_ddec_charge
 _atom_site_hse06_ddec_spin_density
 _atom_site_hse06_ddec_sum_bond_order
 _atom_site_hse06_magmom
 _atom_site_pbe_cm5_charge
 _atom_site_pbe_ddec_charge
 _atom_site_pbe_ddec_spin_density
 _atom_site_pbe_ddec_sum_bond_order
 _atom_site_pbe_magmom
Cu  Cu0  1  0.17361766  0.90820055  0.98412730  1  0.763629  -0.649864  1.998416  -0.438  0.740239  -0.750791  2.402755  -0.553  0.819553  -0.834503  2.33886  -0.639  0.751613  0.697204  -0.692724  2.443975  -0.5
Cu  Cu1  1  0.32638194  0.09179858  0.48413125  1  0.763587  -0.649873  1.998476  -0.438  0.740207  -0.750798  2.402783  -0.553  0.819545  -0.834519  2.338918  -0.639  0.751604  0.697226  -0.692731  2.443945  -0.5
Cu  Cu2  1  0.82637572  0.40819960  0.51586997  1  0.763526  0.649859  1.998621  0.438  0.740149  0.750789  2.402953  0.553  0.819489  0.834513  2.33909  0.639  0.751562  0.697121  0.692723  2.444086  0.5
Cu  Cu3  1  0.67362653  0.59180145  0.01587643  1  0.763598  0.649864  1.998464  0.438  0.740167  0.750789  2.402811  0.553  0.819505  0.834507  2.338916  0.639  0.751565  0.69708  0.692724  2.44411  0.5
H  H4  1  0.22980496  0.24068929  0.83691719  1  0.066536  -0.006376  0.957774  -0.008  0.079698  -0.004282  1.026082  -0.006  0.078216  -0.002958  1.027751  -0.004  0.094674  0.081012  -0.00519  1.023334  -0.007
H  H5  1  0.27020381  0.75930348  0.33691999  1  0.066485  -0.006379  0.957802  -0.008  0.079717  -0.004281  1.026015  -0.006  0.078209  -0.002958  1.02771  -0.004  0.094701  0.081026  -0.005189  1.023265  -0.007
H  H6  1  0.77019917  0.74069800  0.66307645  1  0.066508  0.006367  0.95782  0.008  0.079732  0.004281  1.026085  0.006  0.078224  0.002957  1.027782  0.004  0.094722  0.08104  0.005189  1.023335  0.007
H  H7  1  0.72980472  0.25930525  0.16308094  1  0.066507  0.00637  0.957848  0.008  0.07973  0.004281  1.026048  0.006  0.078257  0.002957  1.027712  0.004  0.094686  0.081041  0.005189  1.023299  0.007
H  H8  1  0.23925982  0.18249433  0.96114233  1  0.064147  -0.001501  0.938217  -0.002  0.078766  -0.001021  1.005859  -0.002  0.077371  -0.000692  1.006331  -0.001  0.103352  0.07905  -0.001232  1.006362  -0.002
H  H9  1  0.26075171  0.81749734  0.46114683  1  0.064134  -0.001504  0.938125  -0.003  0.078714  -0.00102  1.005824  -0.002  0.077318  -0.000692  1.006291  -0.001  0.103313  0.078998  -0.001231  1.006333  -0.002
H  H10  1  0.76074230  0.68249692  0.53885108  1  0.064119  0.001497  0.93824  0.002  0.078763  0.001021  1.005877  0.002  0.077363  0.000691  1.006354  0.001  0.10333  0.079045  0.001231  1.006375  0.002
H  H11  1  0.73926363  0.31750432  0.03885655  1  0.06408  0.001498  0.938335  0.002  0.078731  0.001021  1.00593  0.002  0.077333  0.000692  1.006407  0.001  0.103337  0.079017  0.001232  1.00643  0.002
H  H12  1  0.86458066  0.88666161  0.97713091  1  0.246528  0.000868  0.947426  0.002  0.235011  -0.000408  1.012769  0.001  0.238176  -1.5e-05  1.015214  0.001  0.278151  0.231888  -0.000691  1.013168  0.0
H  H13  1  0.63541815  0.11333892  0.47713618  1  0.246534  0.000867  0.947565  0.002  0.235005  -0.000408  1.012953  0.001  0.23817  -1.5e-05  1.015397  0.001  0.278141  0.231879  -0.000691  1.013354  0.0
H  H14  1  0.13541287  0.38665405  0.52286404  1  0.246571  -0.000868  0.947563  -0.002  0.235019  0.000408  1.012945  -0.001  0.238186  1.5e-05  1.015387  -0.001  0.278161  0.231892  0.00069  1.013345  0.0
H  H15  1  0.36458656  0.61334248  0.02286714  1  0.246592  -0.000868  0.94745  -0.002  0.235035  0.000408  1.012827  -0.001  0.238201  1.5e-05  1.015272  -0.001  0.278158  0.231915  0.000691  1.013225  0.0
H  H16  1  0.15242166  0.88431149  0.74593987  1  0.065461  -7.6e-05  0.974646  0.0  0.075429  -0.0001  1.048505  0.0  0.074959  -6.7e-05  1.049586  0.0  0.095576  0.075366  -0.000118  1.048081  0.0
H  H17  1  0.34757843  0.11567745  0.24594320  1  0.065551  -7e-05  0.974822  0.0  0.075534  -0.0001  1.048612  0.0  0.075054  -6.7e-05  1.049694  0.0  0.095607  0.075477  -0.000118  1.048195  0.0
H  H18  1  0.84757909  0.38432270  0.75405953  1  0.065428  7.2e-05  0.974707  0.0  0.075429  0.0001  1.04854  0.0  0.074954  6.7e-05  1.049621  0.0  0.095564  0.075369  0.000118  1.048123  0.0
H  H19  1  0.65241306  0.61567504  0.25406606  1  0.065551  7.9e-05  0.974851  0.0  0.075533  0.0001  1.048617  0.0  0.075052  6.6e-05  1.049698  0.0  0.095599  0.075476  0.000118  1.048202  0.0
H  H20  1  0.07215981  0.05203886  0.72536891  1  0.070227  -0.005012  0.961825  -0.007  0.084277  -0.003709  1.024695  -0.005  0.081945  -0.002609  1.027326  -0.004  0.096939  0.08554  -0.00442  1.023064  -0.006
H  H21  1  0.42784503  0.94795200  0.22537416  1  0.070263  -0.005009  0.961814  -0.007  0.084266  -0.003709  1.024716  -0.005  0.081927  -0.002609  1.027344  -0.004  0.096925  0.085541  -0.00442  1.023084  -0.006
H  H22  1  0.92784560  0.55205071  0.77462546  1  0.070236  0.005013  0.961787  0.007  0.084245  0.00371  1.024728  0.005  0.081913  0.002609  1.027355  0.004  0.096936  0.085519  0.004421  1.023098  0.006
H  H23  1  0.57215141  0.44794823  0.27462752  1  0.070295  0.005017  0.961777  0.007  0.084264  0.003709  1.024705  0.005  0.081925  0.002608  1.02733  0.004  0.09693  0.085538  0.00442  1.02307  0.006
H  H24  1  0.32032356  0.00786269  0.83609965  1  0.25868  0.001335  0.915792  0.002  0.246639  -0.000302  0.979761  0.001  0.251277  5.9e-05  0.97959  0.001  0.286017  0.24284  -0.000515  0.981032  0.0
H  H25  1  0.17968160  0.99212592  0.33610252  1  0.258695  0.001338  0.915743  0.002  0.246622  -0.000301  0.97981  0.001  0.251263  6e-05  0.979642  0.001  0.286031  0.242818  -0.000514  0.981083  0.0
H  H26  1  0.67967494  0.50787397  0.66389900  1  0.25869  -0.001337  0.915702  -0.002  0.246604  0.000301  0.979783  -0.001  0.251248  -6e-05  0.979614  -0.001  0.285997  0.2428  0.000515  0.981055  0.0
H  H27  1  0.82032174  0.49213033  0.16390823  1  0.258639  -0.001335  0.915746  -0.002  0.2466  0.000301  0.979717  -0.001  0.251241  -5.9e-05  0.979551  -0.001  0.286019  0.242797  0.000515  0.980985  0.0
H  H28  1  0.93081376  0.10886681  0.04502260  1  0.066201  -0.000971  0.95916  -0.002  0.076398  -0.000674  1.035193  -0.001  0.075812  -0.000448  1.03535  -0.001  0.094112  0.076334  -0.000841  1.035319  -0.001
H  H29  1  0.56919218  0.89113344  0.54502437  1  0.066137  -0.000973  0.95917  -0.002  0.076345  -0.000674  1.035201  -0.001  0.075757  -0.000448  1.035358  -0.001  0.094112  0.07628  -0.000841  1.035331  -0.001
H  H30  1  0.06918257  0.60885978  0.45497255  1  0.066172  0.000973  0.959248  0.002  0.076404  0.000674  1.035266  0.001  0.075814  0.000447  1.035427  0.001  0.094139  0.076345  0.000841  1.035392  0.001
H  H31  1  0.43082054  0.39113912  0.95497357  1  0.066216  0.000974  0.959177  0.002  0.076448  0.000674  1.035194  0.001  0.075857  0.000447  1.03535  0.001  0.09415  0.07639  0.000841  1.03532  0.001
H  H32  1  0.77392972  0.11365717  0.95564358  1  0.067638  -0.007009  0.911843  -0.008  0.085069  -0.004807  0.970046  -0.006  0.083175  -0.003322  0.971817  -0.004  0.102347  0.085847  -0.005728  0.969409  -0.006
H  H33  1  0.72607383  0.88634838  0.45564682  1  0.067615  -0.007012  0.911797  -0.008  0.085053  -0.004807  0.970011  -0.006  0.083158  -0.003322  0.97178  -0.004  0.102355  0.085831  -0.005728  0.969375  -0.006
H  H34  1  0.22606926  0.61364710  0.54434882  1  0.067593  0.007011  0.911845  0.008  0.085077  0.004808  0.970012  0.006  0.083182  0.003322  0.971779  0.004  0.102343  0.08586  0.005729  0.969377  0.006
H  H35  1  0.27393383  0.38634648  0.04434942  1  0.067572  0.007011  0.911898  0.008  0.085046  0.004807  0.970087  0.006  0.083146  0.003322  0.971857  0.004  0.102341  0.085832  0.005728  0.969451  0.006
H  H36  1  0.94098009  0.20347131  0.82764141  1  0.07349  4.4e-05  0.963255  0.0  0.089085  -2.4e-05  1.029119  0.0  0.089996  -5e-06  1.029472  0.0  0.091662  0.088388  -4.4e-05  1.028915  0.0
H  H37  1  0.55903029  0.79652909  0.32764334  1  0.07334  4.6e-05  0.96332  0.0  0.088981  -2.4e-05  1.029173  0.0  0.089885  -4e-06  1.029523  0.0  0.091618  0.088283  -4.4e-05  1.028969  0.0
H  H38  1  0.05902549  0.70347041  0.67235283  1  0.073394  -4.5e-05  0.963204  0.0  0.089065  2.4e-05  1.029048  0.0  0.089968  4e-06  1.029398  0.0  0.091651  0.088367  4.4e-05  1.028847  0.0
H  H39  1  0.44097919  0.29652314  0.17235255  1  0.07339  -4.7e-05  0.963302  0.0  0.089044  2.4e-05  1.029148  0.0  0.089946  4e-06  1.0295  0.0  0.091658  0.088346  4.4e-05  1.028943  0.0
H  H40  1  0.98265555  0.30419698  0.93320106  1  0.095317  0.000437  0.932969  0.0  0.115194  0.000276  0.986196  0.0  0.114601  0.000225  0.988229  0.0  0.10013  0.115417  0.000311  0.985114  0.0
H  H41  1  0.51735995  0.69580217  0.43320254  1  0.095311  0.000437  0.932854  0.0  0.115204  0.000276  0.98609  0.0  0.114604  0.000225  0.988121  0.0  0.100157  0.115423  0.000311  0.985009  0.0
H  H42  1  0.01734935  0.80419444  0.56679060  1  0.095243  -0.000437  0.932915  0.0  0.115214  -0.000276  0.986106  0.0  0.114614  -0.000225  0.988135  0.0  0.100151  0.115438  -0.000311  0.985026  0.0
H  H43  1  0.48265862  0.19580452  0.06678999  1  0.095302  -0.000439  0.932875  0.0  0.115198  -0.000276  0.986135  0.0  0.114593  -0.000225  0.988172  0.0  0.100176  0.11542  -0.000311  0.985053  0.0
H  H44  1  0.82890477  0.97828616  0.79781893  1  0.067916  -0.004616  0.946454  -0.006  0.076765  -0.00349  1.019512  -0.004  0.076007  -0.002458  1.020298  -0.003  0.095005  0.076963  -0.004149  1.018919  -0.005
H  H45  1  0.67109831  0.02171192  0.29782536  1  0.067962  -0.004618  0.946367  -0.006  0.076878  -0.003489  1.019392  -0.004  0.076123  -0.002458  1.020179  -0.003  0.095038  0.077077  -0.004149  1.018796  -0.005
H  H46  1  0.17109654  0.47828813  0.70217343  1  0.067958  0.004614  0.946382  0.006  0.07687  0.003489  1.019409  0.004  0.076118  0.002457  1.020192  0.003  0.095045  0.077068  0.004149  1.018815  0.005
H  H47  1  0.32889982  0.52171189  0.20217686  1  0.067942  0.004614  0.946325  0.006  0.076822  0.003489  1.019361  0.004  0.076068  0.002457  1.020146  0.003  0.09503  0.077021  0.004148  1.018763  0.005
H  H48  1  0.91578407  0.81316653  0.82038848  1  0.072709  -0.000147  0.947504  0.0  0.086549  -0.000139  1.012291  0.0  0.085151  -0.000102  1.014761  0.0  0.10162  0.08711  -0.000172  1.011098  0.0
H  H49  1  0.58421428  0.18683173  0.32039323  1  0.072751  -0.000149  0.947495  0.0  0.086638  -0.000139  1.012278  0.0  0.085242  -0.000102  1.014747  0.0  0.101635  0.087199  -0.000172  1.011081  0.0
H  H50  1  0.08421356  0.31316672  0.67960841  1  0.072723  0.000145  0.947511  0.0  0.086584  0.000139  1.012333  0.0  0.085185  0.000102  1.014809  0.0  0.101627  0.087145  0.000172  1.011138  0.0
H  H51  1  0.41578273  0.68683209  0.17961261  1  0.072799  0.000145  0.947439  0.0  0.086563  0.000139  1.012315  0.0  0.085166  0.000102  1.014784  0.0  0.10161  0.087124  0.000172  1.01112  0.0
C  C52  1  0.17516815  0.16842489  0.89059283  1  0.025472  0.003206  3.609791  0.006  -0.031174  -0.000171  3.874144  0.002  -0.02454  0.00092  3.888667  0.003  -0.076541  -0.034862  -0.001216  3.86364  0.001
C  C53  1  0.32483597  0.83156831  0.39059525  1  0.025419  0.003227  3.60959  0.006  -0.031219  -0.000172  3.873943  0.002  -0.024577  0.000921  3.888484  0.003  -0.076546  -0.034907  -0.001216  3.863454  0.001
C  C54  1  0.82483286  0.66842976  0.60940053  1  0.025436  -0.003188  3.609739  -0.006  -0.03126  0.000172  3.8742  -0.002  -0.024618  -0.000919  3.888743  -0.003  -0.076549  -0.034926  0.001215  3.863674  -0.001
C  C55  1  0.67517207  0.33157203  0.10940671  1  0.025359  -0.003193  3.609866  -0.006  -0.03125  0.000172  3.874116  -0.002  -0.024636  -0.00092  3.888648  -0.003  -0.076558  -0.034945  0.001216  3.863617  -0.001
C  C56  1  0.09223794  0.97193881  0.78197327  1  -0.009338  0.001288  3.609488  0.005  -0.063166  -0.002188  3.86519  0.001  -0.058062  -0.000982  3.881102  0.002  -0.080275  -0.065992  -0.00309  3.854629  0.0
C  C57  1  0.40775505  0.02805665  0.28197337  1  -0.009495  0.001265  3.609623  0.005  -0.063226  -0.002188  3.865244  0.001  -0.058091  -0.000982  3.881136  0.002  -0.08028  -0.066109  -0.003091  3.854753  0.0
C  C58  1  0.90775501  0.47194421  0.71802573  1  -0.0093  -0.001284  3.609483  -0.005  -0.063101  0.002186  3.86519  -0.001  -0.058008  0.000983  3.881151  -0.002  -0.080247  -0.065981  0.00309  3.854689  0.0
C  C59  1  0.59223824  0.52805532  0.21803258  1  -0.009665  -0.001311  3.609738  -0.005  -0.063323  0.002187  3.865169  -0.001  -0.058205  0.000983  3.881098  -0.002  -0.080325  -0.066208  0.00309  3.854675  0.0
C  C60  1  0.90398782  0.09611692  0.96570581  1  0.019217  0.002465  3.629752  0.005  -0.03764  -0.000815  3.900518  0.001  -0.031193  0.000293  3.914779  0.002  -0.076528  -0.041322  -0.001711  3.891379  0.001
C  C61  1  0.59601696  0.90388352  0.46570895  1  0.019358  0.00247  3.629449  0.005  -0.037501  -0.000816  3.900252  0.001  -0.031064  0.000293  3.914511  0.002  -0.076505  -0.041167  -0.001711  3.891108  0.001
C  C62  1  0.09600768  0.59611370  0.53428875  1  0.019231  -0.002469  3.629864  -0.005  -0.037675  0.000814  3.900717  -0.001  -0.03123  -0.000291  3.914958  -0.002  -0.076586  -0.041382  0.00171  3.891619  -0.001
C  C63  1  0.40399179  0.40388396  0.03429033  1  0.019264  -0.002474  3.629815  -0.005  -0.037679  0.000815  3.900716  -0.001  -0.03122  -0.000293  3.914938  -0.002  -0.076575  -0.041389  0.001711  3.89162  -0.001
C  C64  1  0.99650370  0.19963738  0.90161141  1  -0.154085  -0.000417  3.654987  -0.001  -0.18823  -0.000275  3.902563  -0.001  -0.190353  -0.000103  3.916531  0.0  -0.164352  -0.186137  -0.000445  3.892477  -0.001
C  C65  1  0.50350209  0.80035841  0.40161328  1  -0.153981  -0.000423  3.654612  -0.001  -0.188194  -0.000275  3.90224  -0.001  -0.190288  -0.000103  3.916161  0.0  -0.16439  -0.186097  -0.000444  3.892163  -0.001
C  C66  1  0.00349590  0.69963620  0.59838132  1  -0.153937  0.000415  3.654649  0.001  -0.188283  0.000275  3.902481  0.001  -0.190371  0.000102  3.916394  0.0  -0.164411  -0.186183  0.000444  3.892399  0.001
C  C67  1  0.49650616  0.30035989  0.09838410  1  -0.153946  0.000427  3.654715  0.001  -0.188256  0.000275  3.902503  0.001  -0.190349  0.000103  3.916423  0.0  -0.164431  -0.186148  0.000444  3.892419  0.001
C  C68  1  0.93333071  0.92497560  0.83057250  1  -0.003199  0.000581  3.59389  0.003  -0.054547  -0.002345  3.849109  0.0  -0.049833  -0.001175  3.864913  0.001  -0.076392  -0.057081  -0.00323  3.838885  0.0
C  C69  1  0.56666767  0.07502171  0.33057826  1  -0.003256  0.000592  3.593727  0.003  -0.054767  -0.002347  3.849081  0.0  -0.050071  -0.001175  3.864886  0.001  -0.076388  -0.057281  -0.003232  3.838868  0.0
C  C70  1  0.06666376  0.42497891  0.66942335  1  -0.003246  -0.000568  3.593784  -0.003  -0.054738  0.002346  3.849149  0.0  -0.050032  0.001177  3.864951  -0.001  -0.076413  -0.057252  0.00323  3.838931  0.0
C  C71  1  0.43333010  0.57502189  0.16942639  1  -0.003152  -0.000566  3.593731  -0.003  -0.054531  0.002345  3.84892  0.0  -0.049835  0.001175  3.864728  -0.001  -0.076344  -0.057037  0.003229  3.838694  0.0
C  C72  1  0.02353227  0.60400901  0.94583175  1  0.292316  0.000705  4.004624  0.002  0.288654  0.006286  4.304792  0.009  0.31601  0.004945  4.313216  0.007  0.148883  0.270382  0.007367  4.299949  0.01
C  C73  1  0.47646360  0.39598774  0.44583043  1  0.292387  0.000695  4.004393  0.002  0.288734  0.006288  4.304538  0.009  0.316092  0.004946  4.312963  0.007  0.148947  0.270456  0.007368  4.299701  0.01
C  C74  1  0.97647398  0.10401587  0.55417173  1  0.292268  -0.000691  4.004585  -0.002  0.288611  -0.006286  4.304754  -0.009  0.315966  -0.004943  4.31318  -0.007  0.14886  0.270337  -0.007366  4.299922  -0.01
C  C75  1  0.52352478  0.89599172  0.05417104  1  0.292294  -0.000714  4.004529  -0.002  0.288641  -0.006286  4.304684  -0.009  0.315996  -0.004945  4.313115  -0.007  0.148909  0.270369  -0.007367  4.299842  -0.01
C  C76  1  0.06019315  0.76152368  0.17411205  1  0.312593  0.004271  4.021757  0.001  0.309424  -0.001977  4.321391  -0.005  0.337192  -0.000812  4.332356  -0.004  0.141969  0.291293  -0.002938  4.312544  -0.006
C  C77  1  0.43978150  0.23849585  0.67410804  1  0.312913  0.004294  4.021575  0.001  0.309757  -0.001978  4.321166  -0.005  0.337528  -0.000812  4.332127  -0.004  0.142168  0.291629  -0.002939  4.31232  -0.006
C  C78  1  0.93978053  0.26150172  0.32589259  1  0.312824  -0.004275  4.021442  -0.001  0.309654  0.001979  4.321064  0.005  0.337427  0.000816  4.332034  0.004  0.142098  0.291519  0.002941  4.312205  0.006
C  C79  1  0.56022504  0.73849555  0.82589894  1  0.312822  -0.004285  4.021335  -0.001  0.309657  0.001977  4.320957  0.005  0.337426  0.000814  4.331913  0.004  0.142114  0.29153  0.002939  4.312104  0.006
S  S80  1  0.18735933  0.65460522  0.89135013  1  -0.314708  0.021231  2.21403  0.019  -0.3037  0.009969  2.550555  0.009  -0.317606  0.006714  2.539563  0.006  -0.107355  -0.293547  0.013268  2.556896  0.011
S  S81  1  0.31263999  0.34538591  0.39134987  1  -0.314749  0.021226  2.214136  0.019  -0.303727  0.009969  2.550667  0.009  -0.317613  0.006714  2.539634  0.006  -0.10739  -0.293582  0.013267  2.557001  0.011
S  S82  1  0.81264418  0.15461338  0.60865059  1  -0.314655  -0.021228  2.214073  -0.019  -0.303641  -0.009968  2.550619  -0.009  -0.317532  -0.006713  2.539597  -0.006  -0.107326  -0.293487  -0.013267  2.556945  -0.011
S  S83  1  0.68735354  0.84539048  0.10865140  1  -0.314689  -0.021228  2.214082  -0.019  -0.303687  -0.009968  2.550645  -0.009  -0.317568  -0.006714  2.539592  -0.006  -0.107322  -0.293528  -0.013267  2.556985  -0.011
S  S84  1  0.99208501  0.66001105  0.26003917  1  -0.34076  -0.016646  2.019062  -0.016  -0.331358  -0.00383  2.309002  -0.004  -0.343757  -0.001531  2.301463  -0.002  -0.154406  -0.320769  -0.00632  2.313613  -0.006
S  S85  1  0.50785911  0.34005008  0.76002608  1  -0.340939  -0.016654  2.018722  -0.016  -0.331519  -0.003834  2.308643  -0.004  -0.343919  -0.001534  2.301098  -0.002  -0.154513  -0.320929  -0.006326  2.313258  -0.006
S  S86  1  0.00786414  0.15995293  0.23997694  1  -0.340877  0.016657  2.018869  0.016  -0.331474  0.003836  2.308814  0.004  -0.343881  0.001535  2.301276  0.002  -0.154511  -0.320885  0.006326  2.313427  0.006
S  S87  1  0.49214314  0.84004012  0.73997833  1  -0.340891  0.01665  2.018903  0.016  -0.331515  0.003833  2.308831  0.004  -0.343908  0.001533  2.301285  0.002  -0.154501  -0.320925  0.006323  2.313448  0.006
N  N88  1  0.90269275  0.56593609  0.98372745  1  -0.539624  0.040264  3.007202  0.046  -0.514072  0.033824  3.315764  0.04  -0.539246  0.029855  3.312989  0.037  -0.426127  -0.499838  0.03579  3.32031  0.041
N  N89  1  0.59730968  0.43406346  0.48372206  1  -0.539685  0.040275  3.006983  0.046  -0.514138  0.033823  3.315541  0.04  -0.539309  0.029855  3.312772  0.037  -0.426172  -0.499918  0.03579  3.320059  0.041
N  N90  1  0.09731737  0.06594115  0.51628033  1  -0.53964  -0.040279  3.007155  -0.046  -0.514091  -0.033825  3.315675  -0.04  -0.53926  -0.029858  3.312906  -0.037  -0.42616  -0.499884  -0.035791  3.320223  -0.041
N  N91  1  0.40268084  0.93406675  0.01628030  1  -0.539663  -0.040254  3.007162  -0.046  -0.514124  -0.033824  3.315703  -0.04  -0.539283  -0.029855  3.312923  -0.037  -0.426214  -0.499905  -0.035789  3.320247  -0.041
N  N92  1  0.11272693  0.83720570  0.11254610  1  -0.556778  -0.045684  3.030572  -0.052  -0.530128  -0.035127  3.341581  -0.041  -0.560606  -0.032421  3.341539  -0.04  -0.445168  -0.51122  -0.03632  3.341397  -0.041
N  N93  1  0.38726916  0.16279570  0.61254839  1  -0.556897  -0.045709  3.030935  -0.052  -0.530265  -0.035127  3.341953  -0.041  -0.560748  -0.032423  3.341923  -0.04  -0.445206  -0.51137  -0.036321  3.341767  -0.041
N  N94  1  0.88726185  0.33720735  0.38745291  1  -0.556852  0.045692  3.030597  0.052  -0.530222  0.035127  3.341681  0.041  -0.560707  0.032419  3.341658  0.04  -0.445167  -0.511311  0.036321  3.341455  0.041
N  N95  1  0.61274030  0.66279871  0.88745903  1  -0.556854  0.045697  3.030453  0.052  -0.53019  0.035127  3.341485  0.041  -0.560674  0.032419  3.341446  0.04  -0.445185  -0.511269  0.036319  3.341307  0.041
N  N96  1  0.94156262  0.95071059  0.93847884  1  -0.356939  -0.132991  3.2583  -0.158  -0.309268  -0.092593  3.5242  -0.117  -0.344521  -0.075672  3.54887  -0.102  -0.486342  -0.289835  -0.099327  3.51137  -0.121
N  N97  1  0.55843728  0.04928860  0.43848523  1  -0.356984  -0.132988  3.258396  -0.158  -0.309321  -0.092595  3.524334  -0.117  -0.344591  -0.075672  3.549029  -0.102  -0.486345  -0.289898  -0.099327  3.511509  -0.121
N  N98  1  0.05843167  0.45070998  0.56151415  1  -0.356974  0.132991  3.258663  0.158  -0.309227  0.092599  3.524555  0.117  -0.344507  0.075673  3.549268  0.102  -0.486313  -0.289792  0.099332  3.51171  0.121
N  N99  1  0.44156667  0.54928789  0.06151710  1  -0.357057  0.132987  3.258495  0.158  -0.309242  0.092597  3.524257  0.117  -0.344507  0.075672  3.548932  0.102  -0.486327  -0.289808  0.09933  3.511434  0.121
N  N100  1  0.20353566  0.02303945  0.85876879  1  -0.352629  -0.140077  3.274743  -0.166  -0.303906  -0.09691  3.542507  -0.122  -0.339741  -0.079479  3.56588  -0.106  -0.488557  -0.284006  -0.104895  3.529062  -0.127
N  N101  1  0.29646717  0.97695453  0.35877101  1  -0.352446  -0.140073  3.274329  -0.166  -0.303777  -0.096904  3.542086  -0.122  -0.339597  -0.079473  3.565378  -0.106  -0.488582  -0.283865  -0.104891  3.528662  -0.127
N  N102  1  0.79646274  0.52304473  0.64122918  1  -0.35243  0.140066  3.274247  0.166  -0.303692  0.096905  3.542037  0.122  -0.3395  0.079471  3.565322  0.106  -0.48852  -0.283778  0.10489  3.52858  0.127
N  N103  1  0.70353748  0.47695627  0.14123449  1  -0.352342  0.140067  3.274428  0.166  -0.303707  0.096906  3.542204  0.122  -0.339522  0.079473  3.56549  0.106  -0.488523  -0.283776  0.104894  3.528766  0.127
