# generated using pymatgen
data_KH34C20NO
_symmetry_space_group_name_H-M   'P 1'
_cell_length_a   9.72925614
_cell_length_b   11.24364139
_cell_length_c   11.56296814
_cell_angle_alpha   108.38486779
_cell_angle_beta   102.89405876
_cell_angle_gamma   113.95692919
_symmetry_Int_Tables_number   1
_chemical_formula_structural   KH34C20NO
_chemical_formula_sum   'K2 H68 C40 N2 O2'
_cell_volume   1002.94283122
_cell_formula_units_Z   2
loop_
 _symmetry_equiv_pos_site_id
 _symmetry_equiv_pos_as_xyz
  1  'x, y, z'
loop_
 _atom_site_type_symbol
 _atom_site_label
 _atom_site_symmetry_multiplicity
 _atom_site_fract_x
 _atom_site_fract_y
 _atom_site_fract_z
 _atom_site_occupancy
 _atom_site_hle17_bader_spin_density
 _atom_site_hle17_ddec_charge
 _atom_site_hle17_ddec_spin_density
 _atom_site_hle17_ddec_sum_bond_order
 _atom_site_hle17_magmom
 _atom_site_hse06_10hf_bader_spin_density
 _atom_site_hse06_10hf_ddec_charge
 _atom_site_hse06_10hf_ddec_spin_density
 _atom_site_hse06_10hf_ddec_sum_bond_order
 _atom_site_hse06_10hf_magmom
 _atom_site_hse06_bader_spin_density
 _atom_site_hse06_ddec_charge
 _atom_site_hse06_ddec_spin_density
 _atom_site_hse06_ddec_sum_bond_order
 _atom_site_hse06_magmom
 _atom_site_pbe_bader_spin_density
 _atom_site_pbe_cm5_charge
 _atom_site_pbe_ddec_charge
 _atom_site_pbe_ddec_spin_density
 _atom_site_pbe_ddec_sum_bond_order
 _atom_site_pbe_magmom
K  K0  1  0.39476254  0.14258106  0.90675342  1  0  0.916112  0  0.484151  0  0  0.875832  0  0.644774  0  0  0.885834  0  0.632929  0  0  0.815192  0.868285  0  0.653511  0
K  K1  1  0.98779955  0.23644256  0.09283320  1  0  0.915811  0  0.484621  0  0  0.875704  0  0.645193  0  0  0.88582  0  0.633212  0  0  0.815735  0.868138  0  0.653872  0
H  H2  1  0.90929268  0.26948186  0.73302686  1  0  0.089384  0  0.971469  0  0  0.111128  0  1.03727  0  0  0.111743  0  1.038268  0  0  0.082822  0.11065  0  1.036668  0
H  H3  1  0.67578775  0.53631722  0.26687724  1  0  0.089545  0  0.972999  0  0  0.11163  0  1.038131  0  0  0.112242  0  1.039163  0  0  0.082955  0.111089  0  1.037628  0
H  H4  1  0.10156495  0.40517843  0.75293347  1  0  0.084837  0  0.960715  0  0  0.107969  0  1.02395  0  0  0.108628  0  1.024834  0  0  0.078083  0.107323  0  1.023659  0
H  H5  1  0.84811630  0.65216848  0.24694946  1  0  0.08606  0  0.961042  0  0  0.10911  0  1.024032  0  0  0.10979  0  1.02491  0  0  0.07873  0.108643  0  1.023336  0
H  H6  1  0.02121162  0.44626540  0.87182489  1  0  0.091081  0  0.962576  0  0  0.114009  0  1.023661  0  0  0.114768  0  1.024429  0  0  0.082592  0.113634  0  1.022734  0
H  H7  1  0.64893897  0.57416315  0.12798104  1  0  0.091459  0  0.963654  0  0  0.114667  0  1.024305  0  0  0.115416  0  1.025101  0  0  0.082803  0.114239  0  1.02347  0
H  H8  1  0.33034829  0.37272928  0.05451345  1  0  0.083962  0  0.994069  0  0  0.09889  0  1.071762  0  0  0.101236  0  1.070303  0  0  0.086271  0.097228  0  1.072697  0
H  H9  1  0.77586559  0.31827582  0.94562202  1  0  0.08341  0  0.994604  0  0  0.098206  0  1.07257  0  0  0.100602  0  1.071032  0  0  0.085975  0.096424  0  1.07378  0
H  H10  1  0.29183581  0.51542376  0.05837229  1  0  0.093386  0  0.95517  0  0  0.117978  0  1.015429  0  0  0.118856  0  1.015519  0  0  0.08765  0.117398  0  1.015279  0
H  H11  1  0.73355345  0.45710049  0.94173464  1  0  0.093945  0  0.954818  0  0  0.11856  0  1.015017  0  0  0.1194  0  1.015172  0  0  0.088136  0.118052  0  1.014733  0
H  H12  1  0.37846736  0.45700468  0.95093553  1  0  0.08284  0  0.963016  0  0  0.107932  0  1.025363  0  0  0.108417  0  1.02581  0  0  0.084973  0.107676  0  1.024886  0
H  H13  1  0.92754272  0.50609874  0.04926248  1  0  0.083007  0  0.963589  0  0  0.108319  0  1.025619  0  0  0.108814  0  1.026072  0  0  0.085095  0.108052  0  1.025159  0
H  H14  1  0.83794760  0.62520367  0.59261771  1  0  0.065076  0  0.98822  0  0  0.07977  0  1.050418  0  0  0.08207  0  1.049171  0  0  0.087748  0.078156  0  1.051334  0
H  H15  1  0.74547767  0.03255012  0.40730780  1  0  0.065281  0  0.987137  0  0  0.079547  0  1.049957  0  0  0.081842  0  1.048707  0  0  0.087728  0.077862  0  1.051006  0
H  H16  1  0.83908180  0.52830785  0.75811471  1  0  0.072604  0  0.981998  0  0  0.084621  0  1.046149  0  0  0.087256  0  1.045451  0  0  0.087557  0.0827  0  1.046902  0
H  H17  1  0.58103661  0.77017986  0.24182374  1  0  0.071901  0  0.980893  0  0  0.084203  0  1.044901  0  0  0.08683  0  1.044209  0  0  0.087216  0.082176  0  1.045821  0
H  H18  1  0.97893986  0.70290201  0.99975732  1  0  0.072507  0  0.983897  0  0  0.086318  0  1.046524  0  0  0.088758  0  1.045259  0  0  0.0902  0.084637  0  1.047283  0
H  H19  1  0.47922388  0.70316107  0.00013741  1  0  0.072824  0  0.982117  0  0  0.086473  0  1.045011  0  0  0.088912  0  1.043737  0  0  0.090257  0.084751  0  1.045846  0
H  H20  1  0.05839751  0.01859469  0.67677066  1  0  0.036095  0  0.970763  0  0  0.052751  0  1.030068  0  0  0.053352  0  1.030363  0  0  0.091826  0.052253  0  1.029889  0
H  H21  1  0.88174343  0.34189888  0.32336515  1  0  0.036699  0  0.969959  0  0  0.052921  0  1.029564  0  0  0.053528  0  1.029836  0  0  0.091855  0.052446  0  1.029393  0
H  H22  1  0.18711526  0.86663971  0.62090269  1  0  0.076394  0  0.987665  0  0  0.093323  0  1.063437  0  0  0.095069  0  1.062853  0  0  0.081213  0.091956  0  1.06409  0
H  H23  1  0.06608890  0.24564496  0.37921579  1  0  0.076006  0  0.986977  0  0  0.093466  0  1.062187  0  0  0.095246  0  1.061566  0  0  0.08104  0.091976  0  1.063022  0
H  H24  1  0.08939300  0.88368906  0.48255567  1  0  0.089911  0  0.957177  0  0  0.114042  0  1.016516  0  0  0.115293  0  1.016697  0  0  0.084191  0.11303  0  1.01647  0
H  H25  1  0.10675864  0.40102489  0.51761567  1  0  0.090285  0  0.956613  0  0  0.114053  0  1.016464  0  0  0.115322  0  1.016631  0  0  0.084501  0.112812  0  1.016882  0
H  H26  1  0.99339977  0.71874385  0.49512807  1  0  0.091115  0  0.963665  0  0  0.114897  0  1.02384  0  0  0.115686  0  1.024778  0  0  0.085006  0.11436  0  1.023017  0
H  H27  1  0.99801053  0.22344760  0.50495341  1  0  0.091181  0  0.963576  0  0  0.114936  0  1.023819  0  0  0.115693  0  1.024787  0  0  0.08506  0.114498  0  1.022757  0
H  H28  1  0.73276666  0.73606786  0.48096875  1  0  0.084766  0  0.97815  0  0  0.106765  0  1.044283  0  0  0.107619  0  1.045046  0  0  0.081457  0.106199  0  1.043654  0
H  H29  1  0.75165135  0.25509393  0.51906147  1  0  0.08471  0  0.978672  0  0  0.106737  0  1.044671  0  0  0.107551  0  1.045472  0  0  0.081285  0.1062  0  1.043988  0
H  H30  1  0.82816692  0.89021872  0.45321109  1  0  0.097933  0  0.963154  0  0  0.121431  0  1.021671  0  0  0.122465  0  1.022428  0  0  0.085421  0.1208  0  1.020914  0
H  H31  1  0.87485053  0.43700952  0.54685107  1  0  0.098553  0  0.963623  0  0  0.122231  0  1.021772  0  0  0.123256  0  1.022524  0  0  0.08568  0.121272  0  1.021613  0
H  H32  1  0.75354402  0.90320014  0.58186100  1  0  0.086169  0  0.97615  0  0  0.105768  0  1.044764  0  0  0.107309  0  1.044418  0  0  0.079927  0.104622  0  1.045188  0
H  H33  1  0.67161760  0.32138919  0.41818364  1  0  0.086441  0  0.976986  0  0  0.106042  0  1.045414  0  0  0.10751  0  1.045137  0  0  0.080262  0.104858  0  1.045885  0
H  H34  1  0.15481982  0.10467004  0.12990286  1  0  0.007141  0  1.000543  0  0  0.014276  0  1.078761  0  0  0.016514  0  1.07683  0  0  0.076641  0.013072  0  1.079542  0
H  H35  1  0.52529917  0.97492396  0.87011791  1  0  0.006505  0  1.00135  0  0  0.013578  0  1.07939  0  0  0.015919  0  1.077368  0  0  0.076124  0.012224  0  1.080398  0
H  H36  1  0.28050305  0.90476893  0.16817571  1  0  0.097204  0  0.958913  0  0  0.120785  0  1.019279  0  0  0.121172  0  1.021335  0  0  0.085325  0.120279  0  1.018469  0
H  H37  1  0.61243274  0.73663450  0.83199617  1  0  0.097728  0  0.960408  0  0  0.121019  0  1.020908  0  0  0.12142  0  1.022961  0  0  0.085361  0.120447  0  1.020186  0
H  H38  1  0.35739902  0.08624720  0.28847741  1  0  0.079778  0  0.966166  0  0  0.101185  0  1.032547  0  0  0.102155  0  1.033059  0  0  0.077543  0.100489  0  1.032347  0
H  H39  1  0.56916006  0.79770948  0.71158558  1  0  0.080386  0  0.966863  0  0  0.102029  0  1.032701  0  0  0.103014  0  1.033209  0  0  0.077804  0.101588  0  1.031989  0
H  H40  1  0.37802280  0.05278062  0.13482417  1  0  0.091208  0  0.975151  0  0  0.108363  0  1.044437  0  0  0.10957  0  1.045502  0  0  0.084706  0.107452  0  1.044342  0
H  H41  1  0.74334760  0.91792813  0.86525597  1  0  0.0916  0  0.974559  0  0  0.108931  0  1.043649  0  0  0.110127  0  1.044728  0  0  0.085119  0.108059  0  1.043468  0
H  H42  1  0.90008320  0.93993124  0.15198017  1  0  0.098983  0  0.977869  0  0  0.115927  0  1.046272  0  0  0.116278  0  1.049313  0  0  0.086015  0.114893  0  1.04563  0
H  H43  1  0.24833654  0.78828699  0.84818653  1  0  0.100134  0  0.976256  0  0  0.116723  0  1.045051  0  0  0.117158  0  1.048026  0  0  0.086384  0.115668  0  1.044379  0
H  H44  1  0.08134710  0.03023854  0.29972614  1  0  0.078926  0  0.97305  0  0  0.097274  0  1.044438  0  0  0.098702  0  1.043908  0  0  0.076644  0.096216  0  1.04474  0
H  H45  1  0.28168205  0.73067324  0.70032024  1  0  0.07879  0  0.973492  0  0  0.097396  0  1.044538  0  0  0.098844  0  1.043996  0  0  0.076684  0.096137  0  1.045336  0
H  H46  1  0.99471601  0.84386633  0.18891005  1  0  0.088699  0  0.969258  0  0  0.109447  0  1.03394  0  0  0.110596  0  1.034054  0  0  0.080799  0.10888  0  1.03323  0
H  H47  1  0.30592599  0.65521707  0.81122604  1  0  0.08926  0  0.96937  0  0  0.110094  0  1.033851  0  0  0.111247  0  1.033967  0  0  0.081057  0.109425  0  1.033454  0
H  H48  1  0.63332251  0.10787875  0.75109405  1  0  0.103881  0  0.960724  0  0  0.123402  0  1.027619  0  0  0.125472  0  1.026423  0  0  0.097257  0.121635  0  1.028831  0
H  H49  1  0.38227945  0.35689349  0.24878588  1  0  0.10353  0  0.961223  0  0  0.123397  0  1.027709  0  0  0.125494  0  1.026492  0  0  0.097235  0.121773  0  1.028612  0
H  H50  1  0.62044023  0.03651417  0.58596027  1  0  0.102765  0  0.964022  0  0  0.124814  0  1.027865  0  0  0.1254  0  1.028388  0  0  0.093478  0.124151  0  1.027844  0
H  H51  1  0.53452169  0.45067880  0.41385908  1  0  0.102671  0  0.962451  0  0  0.124491  0  1.026771  0  0  0.125057  0  1.027302  0  0  0.092933  0.123961  0  1.026493  0
H  H52  1  0.44640632  0.95177004  0.61996027  1  0  0.102071  0  0.95862  0  0  0.125912  0  1.017352  0  0  0.126929  0  1.018104  0  0  0.093418  0.124916  0  1.017101  0
H  H53  1  0.32659869  0.33170907  0.37989455  1  0  0.102791  0  0.958934  0  0  0.126344  0  1.017591  0  0  0.12732  0  1.018414  0  0  0.093769  0.125357  0  1.017349  0
H  H54  1  0.60310549  0.26102244  0.63962011  1  0  0.034546  0  0.941943  0  0  0.05182  0  1.003771  0  0  0.051727  0  1.004071  0  0  0.095539  0.051701  0  1.003814  0
H  H55  1  0.46297268  0.62127447  0.36020297  1  0  0.035469  0  0.941772  0  0  0.052918  0  1.003539  0  0  0.052844  0  1.003788  0  0  0.095786  0.052714  0  1.003756  0
H  H56  1  0.41638583  0.10500825  0.50871823  1  0  0.034962  0  0.927098  0  0  0.051083  0  0.990342  0  0  0.051372  0  0.989974  0  0  0.095856  0.050855  0  0.990564  0
H  H57  1  0.40751164  0.59615614  0.49123934  1  0  0.034682  0  0.928052  0  0  0.05154  0  0.990611  0  0  0.051806  0  0.990262  0  0  0.096014  0.05137  0  0.990644  0
H  H58  1  0.23926941  0.24532548  0.70614152  1  0  0.048651  0  0.954355  0  0  0.063171  0  1.019043  0  0  0.062754  0  1.020486  0  0  0.10215  0.063148  0  1.018374  0
H  H59  1  0.03273722  0.53877020  0.29362430  1  0  0.049035  0  0.955333  0  0  0.063756  0  1.019826  0  0  0.06332  0  1.021268  0  0  0.102226  0.06368  0  1.019241  0
H  H60  1  0.24748119  0.19150277  0.54675408  1  0  0.03176  0  0.935235  0  0  0.048123  0  1.00122  0  0  0.048307  0  1.000577  0  0  0.093628  0.047831  0  1.001795  0
H  H61  1  0.20008966  0.64427880  0.45311159  1  0  0.032699  0  0.935092  0  0  0.04913  0  1.00106  0  0  0.049251  0  1.000452  0  0  0.093938  0.048877  0  1.001624  0
H  H62  1  0.51796151  0.47548552  0.80108968  1  0  0.102641  0  0.956111  0  0  0.121841  0  1.021892  0  0  0.123628  0  1.021038  0  0  0.091127  0.120344  0  1.02271  0
H  H63  1  0.21707326  0.67403445  0.19895825  1  0  0.102468  0  0.956192  0  0  0.121503  0  1.022311  0  0  0.123284  0  1.02148  0  0  0.09087  0.11996  0  1.023238  0
H  H64  1  0.36716765  0.46347551  0.67118789  1  0  0.104905  0  0.958251  0  0  0.128812  0  1.018439  0  0  0.129554  0  1.019427  0  0  0.092434  0.128136  0  1.017928  0
H  H65  1  0.19618545  0.79206900  0.32881476  1  0  0.104753  0  0.958649  0  0  0.128618  0  1.018857  0  0  0.1294  0  1.019793  0  0  0.091986  0.127903  0  1.018346  0
H  H66  1  0.51967215  0.42708618  0.63990363  1  0  0.100622  0  0.962519  0  0  0.121646  0  1.02554  0  0  0.122167  0  1.027239  0  0  0.087913  0.120895  0  1.024893  0
H  H67  1  0.37969588  0.78653634  0.36023019  1  0  0.101202  0  0.963258  0  0  0.122671  0  1.025396  0  0  0.123166  0  1.027125  0  0  0.088278  0.121846  0  1.024995  0
H  H68  1  0.92100431  0.08717909  0.77443289  1  0  0.049262  0  0.986432  0  0  0.064667  0  1.053672  0  0  0.065695  0  1.052794  0  0  0.093685  0.063954  0  1.054305  0
H  H69  1  0.64625250  0.31265802  0.22559626  1  0  0.049923  0  0.983979  0  0  0.065379  0  1.051248  0  0  0.066414  0  1.05037  0  0  0.093702  0.064636  0  1.051931  0
C  C70  1  0.04526192  0.15990285  0.85557735  1  0  -0.049824  0  4.059583  0  0  -0.08651  0  4.328849  0  0  -0.075914  0  4.347056  0  0  -0.077573  -0.093664  0  4.315907  0
C  C71  1  0.68938688  0.30428016  0.14445217  1  0  -0.050461  0  4.05554  0  0  -0.087227  0  4.324953  0  0  -0.07668  0  4.343191  0  0  -0.076957  -0.094396  0  4.31195  0
C  C72  1  0.11754831  0.30510801  0.88503359  1  0  -0.026125  0  3.857462  0  0  0.012667  0  4.111034  0  0  0.005417  0  4.141224  0  0  -0.103258  0.018049  0  4.089809  0
C  C73  1  0.73228571  0.42002026  0.11501642  1  0  -0.024288  0  3.856354  0  0  0.014509  0  4.109907  0  0  0.007303  0  4.140069  0  0  -0.102864  0.019911  0  4.088613  0
C  C74  1  0.03321613  0.35843184  0.80722709  1  0  -0.315008  0  3.799042  0  0  -0.393712  0  4.036138  0  0  -0.395769  0  4.051017  0  0  -0.246759  -0.391896  0  4.02554  0
C  C75  1  0.72556940  0.55107685  0.19270911  1  0  -0.317404  0  3.802408  0  0  -0.396235  0  4.039004  0  0  -0.398337  0  4.053851  0  0  -0.247949  -0.394425  0  4.028364  0
C  C76  1  0.28688506  0.41708101  0.99223822  1  0  -0.320153  0  3.790043  0  0  -0.398512  0  4.027035  0  0  -0.39944  0  4.038416  0  0  -0.25183  -0.397512  0  4.018615  0
C  C77  1  0.79464253  0.42488939  0.00791838  1  0  -0.321585  0  3.790942  0  0  -0.400161  0  4.027774  0  0  -0.401064  0  4.039034  0  0  -0.252751  -0.399149  0  4.019431  0
C  C78  1  0.03719795  0.95245978  0.87614672  1  0  0.121315  0  3.894825  0  0  0.109929  0  4.152529  0  0  0.119042  0  4.175225  0  0  0.053792  0.103191  0  4.138631  0
C  C79  1  0.66103551  0.07633126  0.12384035  1  0  0.120531  0  3.895246  0  0  0.108966  0  4.153245  0  0  0.118067  0  4.176001  0  0  0.053691  0.102308  0  4.139359  0
C  C80  1  0.96714438  0.85083916  0.73732492  1  0  -0.061935  0  3.676645  0  0  -0.038182  0  3.906083  0  0  -0.04326  0  3.932561  0  0  -0.034406  -0.035207  0  3.889632  0
C  C81  1  0.72987389  0.11351435  0.26265813  1  0  -0.062838  0  3.674711  0  0  -0.039057  0  3.903891  0  0  -0.044151  0  3.930389  0  0  -0.035245  -0.036055  0  3.887544  0
C  C82  1  0.89322309  0.70081610  0.69872471  1  0  -0.117244  0  3.836913  0  0  -0.137374  0  4.083316  0  0  -0.137797  0  4.105857  0  0  -0.11018  -0.13697  0  4.068852  0
C  C83  1  0.69467242  0.00204512  0.30118458  1  0  -0.115891  0  3.833005  0  0  -0.135767  0  4.079342  0  0  -0.136192  0  4.101888  0  0  -0.109824  -0.13546  0  4.064931  0
C  C84  1  0.89409571  0.64544640  0.79070991  1  0  -0.125092  0  3.884235  0  0  -0.139633  0  4.14416  0  0  -0.143566  0  4.167155  0  0  -0.124614  -0.137201  0  4.129125  0
C  C85  1  0.60356517  0.85469749  0.20920586  1  0  -0.125733  0  3.883012  0  0  -0.140488  0  4.142962  0  0  -0.144416  0  4.165912  0  0  -0.124936  -0.138017  0  4.127882  0
C  C86  1  0.97320410  0.74421277  0.92621573  1  0  -0.114626  0  3.821171  0  0  -0.136002  0  4.066521  0  0  -0.136007  0  4.08721  0  0  -0.106855  -0.135797  0  4.052938  0
C  C87  1  0.54713637  0.81797069  0.07370841  1  0  -0.114816  0  3.817543  0  0  -0.136054  0  4.063356  0  0  -0.136043  0  4.083967  0  0  -0.106334  -0.135924  0  4.049943  0
C  C88  1  0.04367303  0.89434389  0.97039876  1  0  -0.037563  0  3.674262  0  0  -0.012824  0  3.900508  0  0  -0.015978  0  3.9239  0  0  -0.022993  -0.010888  0  3.886017  0
C  C89  1  0.57338893  0.92400484  0.02961698  1  0  -0.036227  0  3.669877  0  0  -0.011964  0  3.896342  0  0  -0.015089  0  3.919761  0  0  -0.023098  -0.010178  0  3.881913  0
C  C90  1  0.98156181  0.89882358  0.62896550  1  0  0.074168  0  3.673637  0  0  0.079137  0  3.902198  0  0  0.079779  0  3.91971  0  0  -0.094263  0.07897  0  3.889719  0
C  C91  1  0.85259920  0.26988182  0.37112891  1  0  0.073541  0  3.674822  0  0  0.079492  0  3.902059  0  0  0.080154  0  3.91956  0  0  -0.094148  0.079314  0  3.889467  0
C  C92  1  0.06780222  0.83843465  0.55266956  1  0  -0.313771  0  3.704595  0  0  -0.395272  0  3.949554  0  0  -0.397831  0  3.959973  0  0  -0.243825  -0.393024  0  3.942084  0
C  C93  1  0.01499326  0.28568188  0.44747779  1  0  -0.313912  0  3.704505  0  0  -0.395662  0  3.949149  0  0  -0.398234  0  3.959543  0  0  -0.243982  -0.393255  0  3.941687  0
C  C94  1  0.81469179  0.85545001  0.53077362  1  0  -0.311402  0  3.681901  0  0  -0.38993  0  3.91831  0  0  -0.392835  0  3.929105  0  0  -0.245569  -0.387625  0  3.910702  0
C  C95  1  0.78379620  0.32466213  0.46925126  1  0  -0.311829  0  3.68482  0  0  -0.390682  0  3.92102  0  0  -0.393446  0  3.931818  0  0  -0.245599  -0.388291  0  3.913582  0
C  C96  1  0.12815170  0.99597664  0.11935338  1  0  0.077148  0  3.694572  0  0  0.083783  0  3.919578  0  0  0.084142  0  3.93637  0  0  -0.095758  0.083812  0  3.907335  0
C  C97  1  0.50898022  0.87672216  0.88065543  1  0  0.077012  0  3.693755  0  0  0.084677  0  3.917281  0  0  0.084884  0  3.9343  0  0  -0.095675  0.084935  0  3.904712  0
C  C98  1  0.29484343  0.01080584  0.18101916  1  0  -0.305458  0  3.676332  0  0  -0.381738  0  3.912531  0  0  -0.385344  0  3.925416  0  0  -0.24221  -0.379147  0  3.904422  0
C  C99  1  0.61398708  0.82977713  0.81903302  1  0  -0.307022  0  3.679323  0  0  -0.383936  0  3.915019  0  0  -0.387567  0  3.928017  0  0  -0.243244  -0.381296  0  3.906507  0
C  C100  1  0.01991247  0.95026210  0.19356197  1  0  -0.321513  0  3.702425  0  0  -0.397892  0  3.941232  0  0  -0.40078  0  3.952557  0  0  -0.247159  -0.394879  0  3.933122  0
C  C101  1  0.32648448  0.75692825  0.80650242  1  0  -0.323369  0  3.700817  0  0  -0.399868  0  3.939225  0  0  -0.402831  0  3.950531  0  0  -0.248122  -0.396967  0  3.931622  0
C  C102  1  0.55180096  0.05754412  0.64548944  1  0  -0.330761  0  3.721026  0  0  -0.412091  0  3.967953  0  0  -0.414661  0  3.977252  0  0  -0.243472  -0.409702  0  3.961729  0
C  C103  1  0.40632223  0.41206010  0.35438773  1  0  -0.330609  0  3.720792  0  0  -0.411665  0  3.967909  0  0  -0.414223  0  3.977136  0  0  -0.243126  -0.409346  0  3.961495  0
C  C104  1  0.49614944  0.15633253  0.61574707  1  0  0.147376  0  3.671944  0  0  0.099822  0  3.93835  0  0  0.106833  0  3.946178  0  0  -0.071971  0.09508  0  3.932636  0
C  C105  1  0.38015131  0.54043840  0.38419676  1  0  0.145403  0  3.674645  0  0  0.096415  0  3.94277  0  0  0.103493  0  3.950505  0  0  -0.073079  0.091596  0  3.937166  0
C  C106  1  0.32344036  0.25423262  0.65526628  1  0  0.13457  0  3.659646  0  0  0.08458  0  3.931225  0  0  0.092  0  3.938319  0  0  -0.075775  0.079599  0  3.926249  0
C  C107  1  0.16772842  0.59850108  0.34462514  1  0  0.133028  0  3.661802  0  0  0.082067  0  3.934656  0  0  0.089602  0  3.941692  0  0  -0.076672  0.077049  0  3.929616  0
C  C108  1  0.43931562  0.41355380  0.69382727  1  0  -0.335875  0  3.718845  0  0  -0.416271  0  3.965665  0  0  -0.41946  0  3.976201  0  0  -0.249153  -0.413665  0  3.958665  0
C  C109  1  0.24542767  0.71929730  0.30619441  1  0  -0.336284  0  3.721495  0  0  -0.416578  0  3.968157  0  0  -0.41978  0  3.978673  0  0  -0.248966  -0.414017  0  3.961414  0
N  N110  1  0.10690657  0.10233454  0.92605350  1  0  -0.652214  0  3.36728  0  0  -0.602599  0  3.659985  0  0  -0.627682  0  3.679244  0  0  -0.616909  -0.584646  0  3.645885  0
N  N111  1  0.68069512  0.17630610  0.07396868  1  0  -0.651526  0  3.368736  0  0  -0.601707  0  3.661291  0  0  -0.626831  0  3.680655  0  0  -0.6173  -0.583748  0  3.647262  0
O  O112  1  0.40553957  0.18235821  0.69295463  1  0  -0.388024  0  2.258482  0  0  -0.317286  0  2.513868  0  0  -0.333246  0  2.515227  0  0  -0.324435  -0.306085  0  2.512678  0
O  O113  1  0.21223227  0.48898131  0.30710416  1  0  -0.386627  0  2.259863  0  0  -0.315456  0  2.515523  0  0  -0.331481  0  2.51687  0  0  -0.324516  -0.304248  0  2.514235  0
