# generated using pymatgen
data_La2H18(C3O8)3
_symmetry_space_group_name_H-M   'P 1'
_cell_length_a   9.00290610
_cell_length_b   9.00289501
_cell_length_c   9.00287067
_cell_angle_alpha   65.59217552
_cell_angle_beta   65.59253735
_cell_angle_gamma   65.59243163
_symmetry_Int_Tables_number   1
_chemical_formula_structural   La2H18(C3O8)3
_chemical_formula_sum   'La2 H18 C9 O24'
_cell_volume   578.65692330
_cell_formula_units_Z   1
loop_
 _symmetry_equiv_pos_site_id
 _symmetry_equiv_pos_as_xyz
  1  'x, y, z'
loop_
 _atom_site_type_symbol
 _atom_site_label
 _atom_site_symmetry_multiplicity
 _atom_site_fract_x
 _atom_site_fract_y
 _atom_site_fract_z
 _atom_site_occupancy
 _atom_site_hle17_bader_spin_density
 _atom_site_hle17_ddec_charge
 _atom_site_hle17_ddec_spin_density
 _atom_site_hle17_ddec_sum_bond_order
 _atom_site_hle17_magmom
 _atom_site_hse06_10hf_bader_charge
 _atom_site_hse06_10hf_bader_spin_density
 _atom_site_hse06_10hf_ddec_charge
 _atom_site_hse06_10hf_ddec_spin_density
 _atom_site_hse06_10hf_ddec_sum_bond_order
 _atom_site_hse06_10hf_magmom
 _atom_site_hse06_bader_spin_density
 _atom_site_hse06_ddec_charge
 _atom_site_hse06_ddec_spin_density
 _atom_site_hse06_ddec_sum_bond_order
 _atom_site_hse06_magmom
 _atom_site_pbe_bader_spin_density
 _atom_site_pbe_cm5_charge
 _atom_site_pbe_ddec_charge
 _atom_site_pbe_ddec_spin_density
 _atom_site_pbe_ddec_sum_bond_order
 _atom_site_pbe_magmom
La  La0  1  0.77241636  0.77241252  0.77241327  1  0  2.171191  0  1.758068  0  2.324857  0  2.031226  0  2.279409  0  0  2.123342  0  2.1829  0  0  1.410245  1.96156  0  2.347885  0
La  La1  1  0.22758740  0.22758612  0.22758860  1  0  2.171191  0  1.758098  0  2.324826  0  2.031229  0  2.279406  0  0  2.123339  0  2.182911  0  0  1.41029  1.961577  0  2.347865  0
H  H2  1  0.67235041  0.45484829  0.81445314  1  0  0.413745  0  0.880459  0  0.678993  0  0.380741  0  0.958598  0  0  0.393506  0  0.940286  0  0  0.308784  0.371697  0  0.971557  0
H  H3  1  0.81445089  0.67234995  0.45485222  1  0  0.413727  0  0.880505  0  0.6791  0  0.380746  0  0.958599  0  0  0.393509  0  0.940289  0  0  0.308783  0.371699  0  0.971565  0
H  H4  1  0.45485004  0.81445062  0.67235177  1  0  0.4137  0  0.880531  0  0.679077  0  0.380712  0  0.958645  0  0  0.393474  0  0.940338  0  0  0.308792  0.371672  0  0.971592  0
H  H5  1  0.18555455  0.54515246  0.32765029  1  0  0.413714  0  0.880587  0  0.679194  0  0.380725  0  0.958652  0  0  0.393488  0  0.940344  0  0  0.308796  0.371682  0  0.971608  0
H  H6  1  0.54514772  0.32765110  0.18555354  1  0  0.413715  0  0.880493  0  0.679326  0  0.380715  0  0.958634  0  0  0.39348  0  0.940322  0  0  0.308771  0.371677  0  0.971585  0
H  H7  1  0.32764898  0.18555241  0.54514897  1  0  0.413665  0  0.880557  0  0.67918  0  0.380674  0  0.958692  0  0  0.393437  0  0.940385  0  0  0.308765  0.37163  0  0.971651  0
H  H8  1  0.78908745  0.71430749  0.14679670  1  0  0.441007  0  0.854863  0  0.660941  0  0.407793  0  0.919947  0  0  0.420289  0  0.901758  0  0  0.300186  0.398814  0  0.933011  0
H  H9  1  0.14679730  0.78908711  0.71430989  1  0  0.441051  0  0.854813  0  0.660921  0  0.407812  0  0.919939  0  0  0.420308  0  0.901749  0  0  0.300175  0.39883  0  0.933002  0
H  H10  1  0.71430554  0.14679670  0.78908434  1  0  0.441043  0  0.854809  0  0.66095  0  0.407833  0  0.919886  0  0  0.420328  0  0.901698  0  0  0.300206  0.398854  0  0.932951  0
H  H11  1  0.85320235  0.28569446  0.21091706  1  0  0.441024  0  0.854832  0  0.660923  0  0.407817  0  0.919907  0  0  0.420311  0  0.901721  0  0  0.300203  0.398837  0  0.932973  0
H  H12  1  0.28569680  0.21091612  0.85320419  1  0  0.441031  0  0.854844  0  0.660949  0  0.407828  0  0.919913  0  0  0.420323  0  0.901725  0  0  0.300198  0.398849  0  0.932976  0
H  H13  1  0.21091315  0.85320296  0.28569886  1  0  0.44104  0  0.854826  0  0.660947  0  0.407845  0  0.919882  0  0  0.42034  0  0.901693  0  0  0.300225  0.398865  0  0.932944  0
H  H14  1  0.96965002  0.62724960  0.03018846  1  0  0.433987  0  0.859468  0  0.653727  0  0.404563  0  0.920952  0  0  0.415375  0  0.9051  0  0  0.309806  0.39681  0  0.932293  0
H  H15  1  0.03018644  0.96965053  0.62725085  1  0  0.434008  0  0.859451  0  0.653728  0  0.404583  0  0.920933  0  0  0.415398  0  0.905079  0  0  0.309826  0.39682  0  0.932292  0
H  H16  1  0.62724959  0.03018500  0.96964986  1  0  0.434019  0  0.859428  0  0.653737  0  0.404598  0  0.920903  0  0  0.415412  0  0.905051  0  0  0.309829  0.396839  0  0.932257  0
H  H17  1  0.96981760  0.37274820  0.03035106  1  0  0.434053  0  0.859381  0  0.653746  0  0.404632  0  0.920858  0  0  0.415446  0  0.905006  0  0  0.309854  0.396872  0  0.932211  0
H  H18  1  0.37275135  0.03035131  0.96981656  1  0  0.434037  0  0.8594  0  0.653749  0  0.404617  0  0.920876  0  0  0.41543  0  0.905023  0  0  0.309839  0.396856  0  0.932229  0
H  H19  1  0.03035191  0.96981382  0.37275399  1  0  0.434018  0  0.859419  0  0.653751  0  0.404598  0  0.920895  0  0  0.415411  0  0.905043  0  0  0.309846  0.396834  0  0.932253  0
C  C20  1  0.46157828  0.53842247  0.00000039  1  0  0.316724  0  3.686186  0  1.056468  0  0.295693  0  3.949617  0  0  0.303825  0  3.952929  0  0  0.161645  0.289459  0  3.947654  0
C  C21  1  0.00000337  0.46157593  0.53842036  1  0  0.316615  0  3.68626  0  1.056552  0  0.295711  0  3.94946  0  0  0.303843  0  3.952772  0  0  0.16164  0.289376  0  3.947692  0
C  C22  1  0.53842173  0.00000150  0.46157853  1  0  0.316608  0  3.686237  0  1.05649  0  0.295671  0  3.949504  0  0  0.303802  0  3.952822  0  0  0.161653  0.289402  0  3.947616  0
C  C23  1  0.40902584  0.68083492  0.08514734  1  0  0.615441  0  3.814549  0  1.674568  0  0.558695  0  4.11802  0  0  0.591545  0  4.111565  0  0  0.233254  0.536295  0  4.121893  0
C  C24  1  0.08514992  0.40902489  0.68083433  1  0  0.615457  0  3.814659  0  1.674531  0  0.558753  0  4.118005  0  0  0.591603  0  4.111548  0  0  0.233276  0.536366  0  4.121908  0
C  C25  1  0.68083014  0.08515174  0.40902895  1  0  0.615516  0  3.81458  0  1.674698  0  0.558761  0  4.118001  0  0  0.591611  0  4.111543  0  0  0.233252  0.536354  0  4.121913  0
C  C26  1  0.91485548  0.31916473  0.59097237  1  0  0.615607  0  3.814449  0  1.674729  0  0.55882  0  4.117895  0  0  0.591671  0  4.111434  0  0  0.233266  0.536428  0  4.121818  0
C  C27  1  0.31916910  0.59097566  0.91484807  1  0  0.61533  0  3.814757  0  1.674319  0  0.558615  0  4.118184  0  0  0.591463  0  4.11173  0  0  0.233157  0.536192  0  4.122092  0
C  C28  1  0.59097011  0.91485539  0.31916645  1  0  0.615601  0  3.814383  0  1.674812  0  0.558857  0  4.117776  0  0  0.591705  0  4.111319  0  0  0.233315  0.536455  0  4.12168  0
O  O29  1  0.62302856  0.54002538  0.88246468  1  0  -0.670333  0  2.217684  0  -1.231629  0  -0.623662  0  2.458685  0  0  -0.646279  0  2.442351  0  0  -0.42689  -0.606972  0  2.469626  0
O  O30  1  0.88246307  0.62302591  0.54002651  1  0  -0.670279  0  2.217746  0  -1.231831  0  -0.623667  0  2.458672  0  0  -0.646284  0  2.44234  0  0  -0.426871  -0.606945  0  2.46965  0
O  O31  1  0.54002820  0.88245832  0.62302845  1  0  -0.670293  0  2.217768  0  -1.231871  0  -0.623651  0  2.458713  0  0  -0.646267  0  2.442381  0  0  -0.426907  -0.606952  0  2.469667  0
O  O32  1  0.11754233  0.45997626  0.37697028  1  0  -0.670296  0  2.217744  0  -1.231876  0  -0.623654  0  2.458623  0  0  -0.646272  0  2.442292  0  0  -0.426902  -0.606939  0  2.46961  0
O  O33  1  0.45997336  0.37697252  0.11753847  1  0  -0.670309  0  2.217727  0  -1.232017  0  -0.623649  0  2.458744  0  0  -0.646265  0  2.442408  0  0  -0.426872  -0.606966  0  2.469687  0
O  O34  1  0.37696967  0.11753748  0.45997641  1  0  -0.670259  0  2.217717  0  -1.231819  0  -0.623611  0  2.458676  0  0  -0.646225  0  2.442342  0  0  -0.426883  -0.606907  0  2.469631  0
O  O35  1  0.48222978  0.79718134  0.00160462  1  0  -0.646578  0  2.038673  0  -1.224334  0  -0.590494  0  2.279563  0  0  -0.62118  0  2.271162  0  0  -0.344325  -0.568553  0  2.284637  0
O  O36  1  0.00160872  0.48223104  0.79717936  1  0  -0.646615  0  2.038734  0  -1.224327  0  -0.590554  0  2.279594  0  0  -0.62124  0  2.271192  0  0  -0.344335  -0.568598  0  2.284658  0
O  O37  1  0.79717884  0.00160889  0.48223539  1  0  -0.646622  0  2.038549  0  -1.224508  0  -0.59054  0  2.279421  0  0  -0.621225  0  2.271017  0  0  -0.344322  -0.568583  0  2.2845  0
O  O38  1  0.99839654  0.20281879  0.51776494  1  0  -0.646618  0  2.038523  0  -1.224389  0  -0.590523  0  2.2794  0  0  -0.621209  0  2.270996  0  0  -0.344309  -0.568567  0  2.284481  0
O  O39  1  0.20282816  0.51776632  0.99838287  1  0  -0.646555  0  2.038844  0  -1.224378  0  -0.590462  0  2.27968  0  0  -0.621145  0  2.271282  0  0  -0.344283  -0.568513  0  2.284766  0
O  O40  1  0.51775916  0.99839455  0.20282275  1  0  -0.646613  0  2.038502  0  -1.224545  0  -0.590542  0  2.279382  0  0  -0.621226  0  2.27098  0  0  -0.344335  -0.568589  0  2.284465  0
O  O41  1  0.29288422  0.67528144  0.22609059  1  0  -0.564409  0  2.014531  0  -1.208328  0  -0.504737  0  2.222426  0  0  -0.529315  0  2.209508  0  0  -0.279113  -0.48779  0  2.231181  0
O  O42  1  0.22609247  0.29288489  0.67527464  1  0  -0.564359  0  2.014542  0  -1.208297  0  -0.504735  0  2.222459  0  0  -0.529313  0  2.20954  0  0  -0.279111  -0.487785  0  2.231219  0
O  O43  1  0.67527169  0.22609349  0.29289191  1  0  -0.564408  0  2.01463  0  -1.208454  0  -0.504717  0  2.222534  0  0  -0.529295  0  2.209615  0  0  -0.279087  -0.487766  0  2.231305  0
O  O44  1  0.77391634  0.32471996  0.70711373  1  0  -0.564528  0  2.014616  0  -1.208425  0  -0.504817  0  2.222514  0  0  -0.529398  0  2.209594  0  0  -0.279111  -0.487853  0  2.231271  0
O  O45  1  0.32472411  0.70712378  0.77390562  1  0  -0.564311  0  2.014508  0  -1.208149  0  -0.504654  0  2.22242  0  0  -0.529232  0  2.209503  0  0  -0.279037  -0.4877  0  2.231181  0
O  O46  1  0.70711204  0.77391528  0.32472165  1  0  -0.564526  0  2.014577  0  -1.20847  0  -0.504838  0  2.222455  0  0  -0.529418  0  2.209538  0  0  -0.279153  -0.487882  0  2.231216  0
O  O47  1  0.84762404  0.68213254  0.03831708  1  0  -0.904921  0  1.87072  0  -1.307855  0  -0.857822  0  2.067759  0  0  -0.883634  0  2.031733  0  0  -0.652621  -0.838888  0  2.092934  0
O  O48  1  0.03831568  0.84762248  0.68213858  1  0  -0.904988  0  1.870677  0  -1.306148  0  -0.857857  0  2.067743  0  0  -0.883671  0  2.031714  0  0  -0.652632  -0.838922  0  2.09293  0
O  O49  1  0.68213277  0.03831645  0.84762090  1  0  -0.905  0  1.870652  0  -1.307865  0  -0.857906  0  2.067691  0  0  -0.883717  0  2.031665  0  0  -0.652671  -0.838967  0  2.092876  0
O  O50  1  0.96168582  0.31786356  0.15238089  1  0  -0.905032  0  1.870648  0  -1.306175  0  -0.857941  0  2.067673  0  0  -0.883751  0  2.031648  0  0  -0.652696  -0.839003  0  2.092855  0
O  O51  1  0.31786397  0.15237795  0.96168906  1  0  -0.905028  0  1.870679  0  -1.306207  0  -0.857926  0  2.067698  0  0  -0.883738  0  2.031672  0  0  -0.652682  -0.838989  0  2.092877  0
O  O52  1  0.15237845  0.96168166  0.31787401  1  0  -0.904988  0  1.870667  0  -1.307898  0  -0.857904  0  2.067693  0  0  -0.883715  0  2.031666  0  0  -0.652728  -0.838971  0  2.092878  0
