# generated using pymatgen
data_Cu3H4C6I2N5
_symmetry_space_group_name_H-M   'P 1'
_cell_length_a   8.58194415
_cell_length_b   10.41322356
_cell_length_c   12.56248801
_cell_angle_alpha   89.99991676
_cell_angle_beta   89.99992683
_cell_angle_gamma   100.33943304
_symmetry_Int_Tables_number   1
_chemical_formula_structural   Cu3H4C6I2N5
_chemical_formula_sum   'Cu12 H16 C24 I8 N20'
_cell_volume   1104.42560655
_cell_formula_units_Z   4
loop_
 _symmetry_equiv_pos_site_id
 _symmetry_equiv_pos_as_xyz
  1  'x, y, z'
loop_
 _atom_site_type_symbol
 _atom_site_label
 _atom_site_symmetry_multiplicity
 _atom_site_fract_x
 _atom_site_fract_y
 _atom_site_fract_z
 _atom_site_occupancy
 _atom_site_hle17_bader_spin_density
 _atom_site_hle17_ddec_charge
 _atom_site_hle17_ddec_spin_density
 _atom_site_hle17_ddec_sum_bond_order
 _atom_site_hle17_magmom
 _atom_site_hse06_10hf_bader_spin_density
 _atom_site_hse06_10hf_ddec_charge
 _atom_site_hse06_10hf_ddec_spin_density
 _atom_site_hse06_10hf_ddec_sum_bond_order
 _atom_site_hse06_10hf_magmom
 _atom_site_hse06_bader_spin_density
 _atom_site_hse06_ddec_charge
 _atom_site_hse06_ddec_spin_density
 _atom_site_hse06_ddec_sum_bond_order
 _atom_site_hse06_magmom
 _atom_site_pbe_bader_spin_density
 _atom_site_pbe_cm5_charge
 _atom_site_pbe_ddec_charge
 _atom_site_pbe_ddec_spin_density
 _atom_site_pbe_ddec_sum_bond_order
 _atom_site_pbe_magmom
Cu  Cu0  1  0.69520613  0.99800685  0.43321346  1  0  0.278948  0  2.09264  0  0  0.17293  0  2.582977  0  0  0.179455  0  2.530414  0  0  0.37568  0.171238  0  2.616562  0
Cu  Cu1  1  0.80479328  0.50199345  0.93321338  1  0  0.278956  0  2.092662  0  0  0.172917  0  2.582996  0  0  0.179438  0  2.530442  0  0  0.375672  0.171224  0  2.616578  0
Cu  Cu2  1  0.30479437  0.00199423  0.56678647  1  0  0.278883  0  2.092688  0  0  0.17284  0  2.583044  0  0  0.179342  0  2.53049  0  0  0.375659  0.171147  0  2.616622  0
Cu  Cu3  1  0.19520540  0.49800470  0.06678655  1  0  0.278944  0  2.092651  0  0  0.172902  0  2.582988  0  0  0.179416  0  2.530455  0  0  0.375682  0.171211  0  2.61656  0
Cu  Cu4  1  0.00685902  0.95849650  0.40062550  1  0  0.238837  0  2.189684  0  0  0.164627  0  2.664603  0  0  0.179356  0  2.605361  0  0  0.241433  0.156202  0  2.704289  0
Cu  Cu5  1  0.49314005  0.54150440  0.90062600  1  0  0.238795  0  2.18974  0  0  0.164591  0  2.664637  0  0  0.179309  0  2.60539  0  0  0.241424  0.156153  0  2.704352  0
Cu  Cu6  1  0.99314126  0.04150360  0.59937523  1  0  0.238829  0  2.189698  0  0  0.164617  0  2.664614  0  0  0.179344  0  2.605371  0  0  0.241425  0.156184  0  2.7043  0
Cu  Cu7  1  0.50685812  0.45849668  0.09937552  1  0  0.238831  0  2.189683  0  0  0.16465  0  2.664576  0  0  0.179369  0  2.605327  0  0  0.241445  0.156212  0  2.704295  0
Cu  Cu8  1  0.12697999  0.43832041  0.33036339  1  0  0.38706  0  1.931662  0  0  0.277022  0  2.40173  0  0  0.283411  0  2.354923  0  0  0.418572  0.27588  0  2.431845  0
Cu  Cu9  1  0.37302099  0.06168087  0.83036397  1  0  0.387021  0  1.9317  0  0  0.276996  0  2.401791  0  0  0.283376  0  2.354975  0  0  0.418554  0.275842  0  2.431915  0
Cu  Cu10  1  0.87302073  0.56168164  0.66963654  1  0  0.387032  0  1.931695  0  0  0.277001  0  2.401771  0  0  0.28338  0  2.354965  0  0  0.418564  0.27585  0  2.431881  0
Cu  Cu11  1  0.62697790  0.93831826  0.16963596  1  0  0.387011  0  1.931686  0  0  0.276974  0  2.40177  0  0  0.283359  0  2.354957  0  0  0.418553  0.275824  0  2.431884  0
H  H12  1  0.59010316  0.91863911  0.93835632  1  0  0.078133  0  0.975812  0  0  0.08228  0  1.052546  0  0  0.0858  0  1.048198  0  0  0.096792  0.079954  0  1.05517  0
H  H13  1  0.90989994  0.58136214  0.43835669  1  0  0.078131  0  0.9758  0  0  0.082279  0  1.052538  0  0  0.085798  0  1.048191  0  0  0.0968  0.079949  0  1.055161  0
H  H14  1  0.40989573  0.08136002  0.06164281  1  0  0.078164  0  0.97581  0  0  0.082305  0  1.052549  0  0  0.085827  0  1.048201  0  0  0.096821  0.079982  0  1.055174  0
H  H15  1  0.09010194  0.41863991  0.56164324  1  0  0.078156  0  0.975825  0  0  0.082301  0  1.052564  0  0  0.08582  0  1.048218  0  0  0.096804  0.079977  0  1.055183  0
H  H16  1  0.92123413  0.12242427  0.14700782  1  0  0.0789  0  0.946119  0  0  0.082935  0  1.020619  0  0  0.086824  0  1.016373  0  0  0.102606  0.079904  0  1.024031  0
H  H17  1  0.57876513  0.37757590  0.64700750  1  0  0.078906  0  0.94611  0  0  0.082931  0  1.020622  0  0  0.086819  0  1.016378  0  0  0.102607  0.079899  0  1.024034  0
H  H18  1  0.07876316  0.87757291  0.85299370  1  0  0.078908  0  0.946109  0  0  0.08293  0  1.020623  0  0  0.086818  0  1.016379  0  0  0.10263  0.079905  0  1.024023  0
H  H19  1  0.42123980  0.62242418  0.35299163  1  0  0.078909  0  0.946067  0  0  0.08292  0  1.020584  0  0  0.08681  0  1.016337  0  0  0.102627  0.079893  0  1.023985  0
H  H20  1  0.96788436  0.20733291  0.81114450  1  0  0.100833  0  0.975823  0  0  0.110142  0  1.040245  0  0  0.113338  0  1.037332  0  0  0.091756  0.107804  0  1.042147  0
H  H21  1  0.53211751  0.29266982  0.31114656  1  0  0.100846  0  0.975861  0  0  0.110142  0  1.040272  0  0  0.113338  0  1.037361  0  0  0.091778  0.107811  0  1.042171  0
H  H22  1  0.03211431  0.79266524  0.18885622  1  0  0.10081  0  0.975812  0  0  0.110121  0  1.040236  0  0  0.113318  0  1.037325  0  0  0.091742  0.107784  0  1.04214  0
H  H23  1  0.46788437  0.70733222  0.68885337  1  0  0.100826  0  0.975862  0  0  0.110114  0  1.040304  0  0  0.113315  0  1.037376  0  0  0.091764  0.10778  0  1.042201  0
H  H24  1  0.07091394  0.24525734  0.99800516  1  0  0.097872  0  0.988049  0  0  0.101104  0  1.063902  0  0  0.105448  0  1.061255  0  0  0.089457  0.097983  0  1.065793  0
H  H25  1  0.42908760  0.25474260  0.49800690  1  0  0.097876  0  0.988075  0  0  0.101137  0  1.063883  0  0  0.105483  0  1.061234  0  0  0.089477  0.098018  0  1.065774  0
H  H26  1  0.92908335  0.75473984  0.00199557  1  0  0.097917  0  0.987957  0  0  0.101092  0  1.063867  0  0  0.105432  0  1.061227  0  0  0.089462  0.097972  0  1.065748  0
H  H27  1  0.57091733  0.74525748  0.50199303  1  0  0.097881  0  0.988002  0  0  0.101084  0  1.063896  0  0  0.105428  0  1.061249  0  0  0.089454  0.097963  0  1.065779  0
C  C28  1  0.77182753  0.05907691  0.86045577  1  0  -0.038783  0  3.800032  0  0  -0.013813  0  4.027077  0  0  -0.020822  0  4.048227  0  0  -0.008546  -0.010043  0  4.014735  0
C  C29  1  0.72817401  0.44092475  0.36045668  1  0  -0.038855  0  3.800183  0  0  -0.013848  0  4.027139  0  0  -0.02086  0  4.048289  0  0  -0.008581  -0.010082  0  4.0148  0
C  C30  1  0.22817115  0.94092124  0.13954416  1  0  -0.038754  0  3.799919  0  0  -0.013841  0  4.027063  0  0  -0.020851  0  4.048212  0  0  -0.008563  -0.010077  0  4.014726  0
C  C31  1  0.27182903  0.55907729  0.63954325  1  0  -0.038793  0  3.799989  0  0  -0.013735  0  4.026922  0  0  -0.02075  0  4.048078  0  0  -0.008546  -0.009978  0  4.014591  0
C  C32  1  0.69596744  0.99297758  0.94854529  1  0  0.090838  0  3.67297  0  0  0.05243  0  3.920304  0  0  0.062057  0  3.93268  0  0  0.031923  0.045101  0  3.914006  0
C  C33  1  0.80403287  0.50702170  0.44854585  1  0  0.090856  0  3.672994  0  0  0.052423  0  3.920325  0  0  0.062052  0  3.932706  0  0  0.031918  0.045102  0  3.914019  0
C  C34  1  0.30403029  0.00702155  0.05145384  1  0  0.090863  0  3.672918  0  0  0.052478  0  3.920262  0  0  0.0621  0  3.93265  0  0  0.031935  0.045151  0  3.913969  0
C  C35  1  0.19596835  0.49297742  0.55145329  1  0  0.090787  0  3.672995  0  0  0.052322  0  3.92037  0  0  0.061967  0  3.932722  0  0  0.031903  0.044995  0  3.914077  0
C  C36  1  0.90840452  0.15201886  0.87751597  1  0  -0.023937  0  3.677527  0  0  -0.055353  0  3.928155  0  0  -0.0484  0  3.942093  0  0  -0.073209  -0.059652  0  3.918393  0
C  C37  1  0.59159720  0.34798373  0.37751552  1  0  -0.023893  0  3.677534  0  0  -0.055304  0  3.92818  0  0  -0.048346  0  3.942105  0  0  -0.073191  -0.059605  0  3.918425  0
C  C38  1  0.09159415  0.84797929  0.12248396  1  0  -0.023899  0  3.677505  0  0  -0.055298  0  3.928103  0  0  -0.048345  0  3.942038  0  0  -0.073173  -0.059595  0  3.918338  0
C  C39  1  0.40840563  0.65201733  0.62248441  1  0  -0.023963  0  3.677583  0  0  -0.055377  0  3.928169  0  0  -0.048422  0  3.942106  0  0  -0.073219  -0.059674  0  3.918408  0
C  C40  1  0.69923611  0.03393442  0.75567959  1  0  0.290857  0  3.74649  0  0  0.267531  0  4.000693  0  0  0.277799  0  4.018813  0  0  0.22001  0.26057  0  3.990061  0
C  C41  1  0.80076545  0.46606648  0.25567962  1  0  0.290918  0  3.746509  0  0  0.26762  0  4.000652  0  0  0.277889  0  4.018771  0  0  0.220045  0.260658  0  3.990023  0
C  C42  1  0.30076395  0.96606470  0.24432034  1  0  0.290853  0  3.74648  0  0  0.267517  0  4.000732  0  0  0.277785  0  4.018852  0  0  0.220004  0.260557  0  3.990102  0
C  C43  1  0.19923527  0.53393557  0.74432031  1  0  0.290929  0  3.746439  0  0  0.267549  0  4.000653  0  0  0.277815  0  4.018778  0  0  0.220005  0.260591  0  3.990021  0
C  C44  1  0.88172172  0.10624780  0.06473990  1  0  0.123986  0  3.659957  0  0  0.09405  0  3.90712  0  0  0.102003  0  3.923339  0  0  0.035466  0.088672  0  3.896432  0
C  C45  1  0.61827657  0.39375256  0.56473954  1  0  0.124004  0  3.659958  0  0  0.094084  0  3.907107  0  0  0.102034  0  3.92333  0  0  0.035482  0.088707  0  3.89642  0
C  C46  1  0.11827485  0.89375134  0.93526002  1  0  0.124022  0  3.659801  0  0  0.094094  0  3.906946  0  0  0.10205  0  3.923158  0  0  0.035437  0.088711  0  3.89625  0
C  C47  1  0.38172720  0.60624752  0.43526039  1  0  0.124005  0  3.659892  0  0  0.0941  0  3.907038  0  0  0.102052  0  3.923256  0  0  0.035441  0.088719  0  3.896341  0
C  C48  1  0.96442012  0.17409257  0.98117931  1  0  -0.099772  0  3.728078  0  0  -0.113621  0  3.984599  0  0  -0.121741  0  4.005705  0  0  -0.090996  -0.108261  0  3.970415  0
C  C49  1  0.53558187  0.32590687  0.48118053  1  0  -0.099835  0  3.728159  0  0  -0.11371  0  3.984665  0  0  -0.12183  0  4.005771  0  0  -0.091041  -0.108349  0  3.970485  0
C  C50  1  0.03557834  0.82590461  0.01882141  1  0  -0.099834  0  3.727972  0  0  -0.113632  0  3.98449  0  0  -0.12175  0  4.005594  0  0  -0.091013  -0.108269  0  3.970303  0
C  C51  1  0.46442190  0.67409321  0.51882020  1  0  -0.099742  0  3.728099  0  0  -0.113574  0  3.984595  0  0  -0.121694  0  4.005703  0  0  -0.090984  -0.108213  0  3.970407  0
I  I52  1  0.94424904  0.19353125  0.42492007  1  0  -0.373213  0  1.858854  0  0  -0.322234  0  2.352042  0  0  -0.335665  0  2.30295  0  0  -0.173569  -0.313769  0  2.384903  0
I  I53  1  0.55574981  0.30646930  0.92492066  1  0  -0.373219  0  1.85891  0  0  -0.322239  0  2.352081  0  0  -0.335659  0  2.30298  0  0  -0.173568  -0.313767  0  2.384948  0
I  I54  1  0.05575124  0.80646885  0.57507986  1  0  -0.373234  0  1.858898  0  0  -0.322253  0  2.352076  0  0  -0.335672  0  2.302978  0  0  -0.173594  -0.313793  0  2.384925  0
I  I55  1  0.44424698  0.69353082  0.07508086  1  0  -0.373204  0  1.858832  0  0  -0.322243  0  2.352027  0  0  -0.33566  0  2.302926  0  0  -0.173588  -0.313779  0  2.384883  0
I  I56  1  0.76700634  0.81002144  0.31092565  1  0  -0.356064  0  1.875111  0  0  -0.295877  0  2.371103  0  0  -0.315584  0  2.326382  0  0  -0.15074  -0.282567  0  2.401565  0
I  I57  1  0.73299451  0.68997911  0.81092542  1  0  -0.356063  0  1.875136  0  0  -0.295875  0  2.371119  0  0  -0.315578  0  2.326395  0  0  -0.150743  -0.28256  0  2.401582  0
I  I58  1  0.23299532  0.18997963  0.68907507  1  0  -0.356048  0  1.87511  0  0  -0.29587  0  2.371109  0  0  -0.31557  0  2.326383  0  0  -0.150743  -0.28255  0  2.401568  0
I  I59  1  0.26700300  0.31001904  0.18907451  1  0  -0.356073  0  1.875104  0  0  -0.295888  0  2.371082  0  0  -0.31559  0  2.326359  0  0  -0.150752  -0.28257  0  2.401545  0
N  N60  1  0.54095696  0.01652358  0.74088404  1  0  -0.281163  0  3.292813  0  0  -0.224523  0  3.602613  0  0  -0.2337  0  3.605328  0  0  -0.277069  -0.219347  0  3.601694  0
N  N61  1  0.95904253  0.48347834  0.24088310  1  0  -0.281243  0  3.292898  0  0  -0.22461  0  3.602695  0  0  -0.233787  0  3.605414  0  0  -0.277083  -0.219438  0  3.601777  0
N  N62  1  0.45904077  0.98347555  0.25911589  1  0  -0.281138  0  3.292864  0  0  -0.224476  0  3.602652  0  0  -0.233653  0  3.605371  0  0  -0.277035  -0.2193  0  3.601731  0
N  N63  1  0.04095797  0.51652274  0.75911523  1  0  -0.281141  0  3.292793  0  0  -0.22447  0  3.60257  0  0  -0.233648  0  3.60529  0  0  -0.277036  -0.219295  0  3.601644  0
N  N64  1  0.77196230  0.02378557  0.66168067  1  0  -0.233581  0  3.182041  0  0  -0.182811  0  3.47975  0  0  -0.194142  0  3.486082  0  0  -0.255085  -0.176256  0  3.476582  0
N  N65  1  0.72803715  0.47621555  0.16168075  1  0  -0.233594  0  3.181979  0  0  -0.182866  0  3.479685  0  0  -0.194198  0  3.486011  0  0  -0.255111  -0.176313  0  3.476523  0
N  N66  1  0.22803681  0.97621454  0.33831926  1  0  -0.233611  0  3.181997  0  0  -0.182846  0  3.479697  0  0  -0.194181  0  3.486027  0  0  -0.255099  -0.176295  0  3.476535  0
N  N67  1  0.27196197  0.52378455  0.83831839  1  0  -0.233604  0  3.181961  0  0  -0.182828  0  3.479651  0  0  -0.194158  0  3.485978  0  0  -0.255078  -0.176275  0  3.476489  0
N  N68  1  0.65475393  0.99619717  0.58922875  1  0  -0.038453  0  3.217251  0  0  0.004353  0  3.530158  0  0  0.006113  0  3.532077  0  0  -0.152382  0.00235  0  3.52982  0
N  N69  1  0.84524626  0.50380387  0.08922847  1  0  -0.038427  0  3.21717  0  0  0.004454  0  3.53001  0  0  0.006222  0  3.531925  0  0  -0.152363  0.00245  0  3.529671  0
N  N70  1  0.34524656  0.00380390  0.41077118  1  0  -0.038356  0  3.217118  0  0  0.004508  0  3.529968  0  0  0.006277  0  3.531876  0  0  -0.152346  0.002505  0  3.52963  0
N  N71  1  0.15475263  0.49619526  0.91077066  1  0  -0.038388  0  3.217129  0  0  0.004482  0  3.529964  0  0  0.006247  0  3.531881  0  0  -0.152379  0.002478  0  3.529625  0
N  N72  1  0.51602038  0.99243264  0.63654985  1  0  -0.035805  0  3.199013  0  0  0.004021  0  3.509289  0  0  0.006482  0  3.510121  0  0  -0.144642  0.001092  0  3.509995  0
N  N73  1  0.98398131  0.50757025  0.13654945  1  0  -0.035809  0  3.199071  0  0  0.003969  0  3.50936  0  0  0.006424  0  3.510202  0  0  -0.144653  0.001041  0  3.510064  0
N  N74  1  0.48398012  0.00756844  0.36344928  1  0  -0.035881  0  3.199037  0  0  0.003904  0  3.509333  0  0  0.006359  0  3.510171  0  0  -0.144677  0.000973  0  3.510046  0
N  N75  1  0.01601897  0.49242985  0.86344969  1  0  -0.035947  0  3.199046  0  0  0.003822  0  3.509349  0  0  0.006281  0  3.510186  0  0  -0.144692  0.000893  0  3.510056  0
N  N76  1  0.74799093  0.01650690  0.04900030  1  0  -0.28541  0  3.425304  0  0  -0.205097  0  3.720492  0  0  -0.217932  0  3.727996  0  0  -0.377413  -0.196747  0  3.715299  0
N  N77  1  0.75200973  0.48349348  0.54900130  1  0  -0.285433  0  3.425263  0  0  -0.205128  0  3.720453  0  0  -0.217962  0  3.727958  0  0  -0.377427  -0.196774  0  3.715253  0
N  N78  1  0.25200775  0.98349125  0.95099963  1  0  -0.285532  0  3.425283  0  0  -0.20523  0  3.720489  0  0  -0.218063  0  3.727988  0  0  -0.377452  -0.196884  0  3.715308  0
N  N79  1  0.24799310  0.51650758  0.45099783  1  0  -0.285439  0  3.425257  0  0  -0.205127  0  3.720437  0  0  -0.217968  0  3.727951  0  0  -0.377428  -0.196784  0  3.715251  0
