# generated using pymatgen
data_SnH9C9N(OF)2
_symmetry_space_group_name_H-M   'P 1'
_cell_length_a   6.42667304
_cell_length_b   7.76190953
_cell_length_c   20.68228752
_cell_angle_alpha   89.99727090
_cell_angle_beta   90.00019373
_cell_angle_gamma   89.99958857
_symmetry_Int_Tables_number   1
_chemical_formula_structural   SnH9C9N(OF)2
_chemical_formula_sum   'Sn4 H36 C36 N4 O8 F8'
_cell_volume   1031.69981583
_cell_formula_units_Z   4
loop_
 _symmetry_equiv_pos_site_id
 _symmetry_equiv_pos_as_xyz
  1  'x, y, z'
loop_
 _atom_site_type_symbol
 _atom_site_label
 _atom_site_symmetry_multiplicity
 _atom_site_fract_x
 _atom_site_fract_y
 _atom_site_fract_z
 _atom_site_occupancy
 _atom_site_hle17_bader_spin_density
 _atom_site_hle17_ddec_charge
 _atom_site_hle17_ddec_spin_density
 _atom_site_hle17_ddec_sum_bond_order
 _atom_site_hle17_magmom
 _atom_site_hse06_10hf_bader_charge
 _atom_site_hse06_10hf_bader_spin_density
 _atom_site_hse06_10hf_ddec_charge
 _atom_site_hse06_10hf_ddec_spin_density
 _atom_site_hse06_10hf_ddec_sum_bond_order
 _atom_site_hse06_10hf_magmom
 _atom_site_hse06_bader_spin_density
 _atom_site_hse06_ddec_charge
 _atom_site_hse06_ddec_spin_density
 _atom_site_hse06_ddec_sum_bond_order
 _atom_site_hse06_magmom
 _atom_site_pbe_bader_spin_density
 _atom_site_pbe_cm5_charge
 _atom_site_pbe_ddec_charge
 _atom_site_pbe_ddec_spin_density
 _atom_site_pbe_ddec_sum_bond_order
 _atom_site_pbe_magmom
Sn  Sn0  1  0.54207767  0.69621248  0.22786897  1  0  1.510359  0  2.825415  0  1.904629  0  1.350219  0  3.327838  0  0  1.401859  0  3.298377  0  0  0.635927  1.314536  0  3.347658  0
Sn  Sn1  1  0.95795388  0.30381414  0.72786101  1  0  1.510425  0  2.825853  0  1.904103  0  1.35029  0  3.328164  0  0  1.401932  0  3.298698  0  0  0.635904  1.314633  0  3.347955  0
Sn  Sn2  1  0.45797447  0.19618371  0.27213919  1  0  1.510522  0  2.825557  0  1.904081  0  1.350331  0  3.327887  0  0  1.401972  0  3.298424  0  0  0.635952  1.314665  0  3.34766  0
Sn  Sn3  1  0.04206994  0.80379647  0.77212775  1  0  1.51043  0  2.825262  0  1.904412  0  1.350234  0  3.327627  0  0  1.40188  0  3.298163  0  0  0.635909  1.314576  0  3.347438  0
H  H4  1  0.67428539  0.78866677  0.46525588  1  0  0.121368  0  0.961635  0  0.099327  0  0.126747  0  1.028484  0  0  0.128916  0  1.029436  0  0  0.105949  0.125182  0  1.027978  0
H  H5  1  0.82570690  0.21130557  0.96526588  1  0  0.121295  0  0.961626  0  0.14001  0  0.126714  0  1.028422  0  0  0.128882  0  1.029381  0  0  0.105883  0.12515  0  1.027918  0
H  H6  1  0.32571446  0.28871096  0.03473886  1  0  0.121294  0  0.961428  0  0.139819  0  0.12664  0  1.028409  0  0  0.128803  0  1.029378  0  0  0.105903  0.125076  0  1.027902  0
H  H7  1  0.17426497  0.71131577  0.53474790  1  0  0.121391  0  0.96129  0  0.099063  0  0.126718  0  1.028291  0  0  0.128884  0  1.029252  0  0  0.105955  0.125153  0  1.027784  0
H  H8  1  0.70662711  0.48910623  0.51288801  1  0  0.134908  0  0.943632  0  0.134706  0  0.135504  0  1.01551  0  0  0.14009  0  1.011475  0  0  0.10871  0.132215  0  1.018421  0
H  H9  1  0.79334566  0.51085486  0.01289243  1  0  0.13491  0  0.943749  0  0.133937  0  0.135504  0  1.015637  0  0  0.140085  0  1.011602  0  0  0.108693  0.132212  0  1.018561  0
H  H10  1  0.29338860  0.98916446  0.98709953  1  0  0.134781  0  0.943638  0  0.133928  0  0.135513  0  1.01531  0  0  0.140109  0  1.011259  0  0  0.108648  0.132227  0  1.018238  0
H  H11  1  0.20658546  0.01087223  0.48710243  1  0  0.134826  0  0.943749  0  0.134584  0  0.135579  0  1.015382  0  0  0.140177  0  1.011328  0  0  0.108687  0.132261  0  1.018343  0
H  H12  1  0.26975301  0.41346720  0.40416915  1  0  0.134982  0  0.942481  0  0.107503  0  0.144302  0  1.004179  0  0  0.147821  0  1.002146  0  0  0.115249  0.141766  0  1.005729  0
H  H13  1  0.23026630  0.58652361  0.90415514  1  0  0.134863  0  0.942647  0  0.107603  0  0.144203  0  1.004395  0  0  0.147713  0  1.002356  0  0  0.115207  0.141664  0  1.005942  0
H  H14  1  0.73026579  0.91346897  0.09583959  1  0  0.134874  0  0.942586  0  0.107683  0  0.144265  0  1.004233  0  0  0.147776  0  1.002199  0  0  0.115221  0.141729  0  1.005779  0
H  H15  1  0.76972551  0.08653672  0.59582773  1  0  0.134902  0  0.942753  0  0.107709  0  0.144305  0  1.004314  0  0  0.147824  0  1.002281  0  0  0.115238  0.141765  0  1.005861  0
H  H16  1  0.20980003  0.70237867  0.14910355  1  0  0.17184  0  0.997527  0  0.121335  0  0.186747  0  1.056441  0  0  0.189977  0  1.056897  0  0  0.088707  0.184435  0  1.056245  0
H  H17  1  0.29020256  0.29762078  0.64909776  1  0  0.171817  0  0.997578  0  0.121248  0  0.18671  0  1.056514  0  0  0.18994  0  1.056964  0  0  0.088707  0.184392  0  1.056326  0
H  H18  1  0.79018982  0.20238175  0.35089626  1  0  0.171522  0  0.998044  0  0.121267  0  0.186743  0  1.056533  0  0  0.189971  0  1.056987  0  0  0.0887  0.18443  0  1.056336  0
H  H19  1  0.70980576  0.79763205  0.85089886  1  0  0.17148  0  0.998109  0  0.121249  0  0.186736  0  1.056542  0  0  0.189966  0  1.056999  0  0  0.088716  0.18442  0  1.056353  0
H  H20  1  0.44136927  0.71578986  0.10219011  1  0  0.169452  0  0.987607  0  0.077983  0  0.181799  0  1.052046  0  0  0.185297  0  1.051282  0  0  0.088105  0.17929  0  1.052675  0
H  H21  1  0.05864896  0.28421368  0.60218841  1  0  0.169425  0  0.987754  0  0.077953  0  0.181783  0  1.05219  0  0  0.185281  0  1.051425  0  0  0.088119  0.179278  0  1.052801  0
H  H22  1  0.55865001  0.21578483  0.39780993  1  0  0.169377  0  0.987905  0  0.077991  0  0.181737  0  1.052318  0  0  0.185234  0  1.051553  0  0  0.088092  0.179231  0  1.052927  0
H  H23  1  0.94139685  0.78421843  0.89780992  1  0  0.169566  0  0.987585  0  0.077747  0  0.18185  0  1.052081  0  0  0.185348  0  1.051317  0  0  0.088147  0.179342  0  1.052708  0
H  H24  1  0.34646691  0.90440886  0.14315171  1  0  0.159733  0  1.004319  0  0.053789  0  0.175939  0  1.063387  0  0  0.178111  0  1.065828  0  0  0.086694  0.174365  0  1.06178  0
H  H25  1  0.15354036  0.09560544  0.64315488  1  0  0.15966  0  1.004524  0  0.053941  0  0.175904  0  1.063536  0  0  0.178074  0  1.065978  0  0  0.086678  0.174329  0  1.061925  0
H  H26  1  0.65352553  0.40439260  0.35683835  1  0  0.159756  0  1.004337  0  0.053954  0  0.175958  0  1.063422  0  0  0.17813  0  1.065864  0  0  0.086735  0.174378  0  1.061825  0
H  H27  1  0.84647159  0.59558702  0.85684908  1  0  0.159744  0  1.004294  0  0.053788  0  0.1759  0  1.063448  0  0  0.178077  0  1.065885  0  0  0.086697  0.174327  0  1.061841  0
H  H28  1  0.92792516  0.82677138  0.24221277  1  0  0.1738  0  0.973913  0  0.069104  0  0.192025  0  1.02838  0  0  0.194923  0  1.029329  0  0  0.093377  0.189926  0  1.027844  0
H  H29  1  0.57209393  0.17322655  0.74220408  1  0  0.173782  0  0.973814  0  0.069034  0  0.192005  0  1.028303  0  0  0.194905  0  1.029251  0  0  0.093329  0.189904  0  1.027772  0
H  H30  1  0.07207586  0.32678735  0.25779573  1  0  0.173774  0  0.973694  0  0.068878  0  0.191949  0  1.028298  0  0  0.194847  0  1.029257  0  0  0.093297  0.18985  0  1.027768  0
H  H31  1  0.42791411  0.67321766  0.75779111  1  0  0.173918  0  0.973698  0  0.068856  0  0.19208  0  1.0283  0  0  0.194982  0  1.029246  0  0  0.093384  0.189983  0  1.027767  0
H  H32  1  0.93777584  0.61759824  0.20343430  1  0  0.166962  0  1.006298  0  0.074873  0  0.178711  0  1.071113  0  0  0.182264  0  1.070654  0  0  0.090132  0.176128  0  1.071617  0
H  H33  1  0.56224487  0.38242345  0.70343407  1  0  0.166918  0  1.006336  0  0.074625  0  0.178648  0  1.071198  0  0  0.182202  0  1.070732  0  0  0.090084  0.176065  0  1.071701  0
H  H34  1  0.06222732  0.11757761  0.29657346  1  0  0.166533  0  1.006809  0  0.074565  0  0.178559  0  1.071289  0  0  0.182112  0  1.070825  0  0  0.090022  0.175971  0  1.071794  0
H  H35  1  0.43775481  0.88239203  0.79657153  1  0  0.166662  0  1.006755  0  0.074402  0  0.178719  0  1.071156  0  0  0.182271  0  1.070695  0  0  0.090122  0.176134  0  1.071661  0
H  H36  1  0.90080322  0.63336789  0.28902763  1  0  0.158981  0  1.004591  0  0.076275  0  0.174823  0  1.064773  0  0  0.177107  0  1.066604  0  0  0.087548  0.173171  0  1.063628  0
H  H37  1  0.59921424  0.36660533  0.78902537  1  0  0.158818  0  1.004616  0  0.076542  0  0.174686  0  1.06479  0  0  0.176971  0  1.066616  0  0  0.087512  0.173026  0  1.063657  0
H  H38  1  0.09919045  0.13338267  0.21097353  1  0  0.158795  0  1.004463  0  0.076437  0  0.174633  0  1.064724  0  0  0.176915  0  1.06656  0  0  0.087489  0.172973  0  1.063586  0
H  H39  1  0.40081360  0.86662514  0.71097714  1  0  0.15901  0  1.004574  0  0.07643  0  0.174826  0  1.06482  0  0  0.177108  0  1.066654  0  0  0.087566  0.173171  0  1.063674  0
C  C40  1  0.95754876  0.76536948  0.41152446  1  0  0.270415  0  3.749128  0  0.397578  0  0.247052  0  4.031004  0  0  0.257588  0  4.040939  0  0  0.099986  0.23968  0  4.024475  0
C  C41  1  0.54245295  0.23461804  0.91153094  1  0  0.270531  0  3.749194  0  0.397467  0  0.247186  0  4.03107  0  0  0.257721  0  4.041009  0  0  0.10003  0.239802  0  4.024549  0
C  C42  1  0.04244822  0.26540116  0.08846687  1  0  0.271885  0  3.747108  0  0.396864  0  0.247166  0  4.030993  0  0  0.257705  0  4.040928  0  0  0.100034  0.23979  0  4.024466  0
C  C43  1  0.45753579  0.73462972  0.58847609  1  0  0.271733  0  3.747175  0  0.396695  0  0.246987  0  4.031088  0  0  0.257524  0  4.041022  0  0  0.09997  0.239618  0  4.024565  0
C  C44  1  0.80546257  0.70547625  0.45364546  1  0  -0.158337  0  3.759443  0  0.054581  0  -0.18163  0  4.020728  0  0  -0.185207  0  4.040019  0  0  -0.097496  -0.179297  0  4.007902  0
C  C45  1  0.69451730  0.29450515  0.95364918  1  0  -0.158164  0  3.75985  0  0.013951  0  -0.181516  0  4.021168  0  0  -0.185098  0  4.040464  0  0  -0.09729  -0.179178  0  4.008342  0
C  C46  1  0.19453970  0.20550558  0.04635381  1  0  -0.157499  0  3.758497  0  0.01426  0  -0.181182  0  4.020593  0  0  -0.184763  0  4.039896  0  0  -0.097237  -0.178848  0  4.007769  0
C  C47  1  0.30545372  0.79450952  0.54636297  1  0  -0.157807  0  3.758675  0  0.055353  0  -0.181408  0  4.020778  0  0  -0.184987  0  4.040077  0  0  -0.097372  -0.179069  0  4.007935  0
C  C48  1  0.82194937  0.54006569  0.47950304  1  0  -0.151501  0  3.742784  0  0.088048  0  -0.182809  0  4.014842  0  0  -0.184214  0  4.031202  0  0  -0.09336  -0.181697  0  4.003812  0
C  C49  1  0.67803979  0.45990631  0.97951315  1  0  -0.151602  0  3.742828  0  0.089392  0  -0.182944  0  4.014819  0  0  -0.184346  0  4.031177  0  0  -0.093454  -0.181828  0  4.003791  0
C  C50  1  0.17803747  0.04010837  0.02049125  1  0  -0.152084  0  3.743204  0  0.088985  0  -0.183121  0  4.014975  0  0  -0.184537  0  4.031348  0  0  -0.093458  -0.182023  0  4.003967  0
C  C51  1  0.32192798  0.95991485  0.52049673  1  0  -0.151964  0  3.742887  0  0.088692  0  -0.183023  0  4.014676  0  0  -0.184435  0  4.031056  0  0  -0.093417  -0.181912  0  4.003691  0
C  C52  1  0.99030762  0.43965035  0.46058996  1  0  0.303974  0  3.791966  0  0.382196  0  0.286757  0  4.081154  0  0  0.296238  0  4.090945  0  0  0.09337  0.279899  0  4.074838  0
C  C53  1  0.50965823  0.56032381  0.96058805  1  0  0.30384  0  3.792164  0  0.38172  0  0.286757  0  4.081145  0  0  0.296255  0  4.090909  0  0  0.093395  0.279882  0  4.074847  0
C  C54  1  0.00968602  0.93970720  0.03941197  1  0  0.303781  0  3.792967  0  0.38235  0  0.286745  0  4.081759  0  0  0.296243  0  4.091525  0  0  0.093291  0.279874  0  4.075462  0
C  C55  1  0.49029962  0.06032930  0.53941031  1  0  0.303896  0  3.792183  0  0.381828  0  0.286775  0  4.081136  0  0  0.296253  0  4.09093  0  0  0.093319  0.279909  0  4.074817  0
C  C56  1  0.14109969  0.49695521  0.41778853  1  0  -0.183483  0  3.706674  0  0.003316  0  -0.22076  0  3.964932  0  0  -0.221925  0  3.980937  0  0  -0.092585  -0.219934  0  3.954398  0
C  C57  1  0.35889626  0.50301729  0.91778322  1  0  -0.183229  0  3.7069  0  0.003433  0  -0.220654  0  3.965159  0  0  -0.221812  0  3.98115  0  0  -0.09249  -0.219814  0  3.954615  0
C  C58  1  0.85890737  0.99698368  0.08221179  1  0  -0.183602  0  3.707102  0  0.003477  0  -0.22079  0  3.96508  0  0  -0.221956  0  3.981083  0  0  -0.092568  -0.219956  0  3.95454  0
C  C59  1  0.64108396  0.00304676  0.58221095  1  0  -0.18366  0  3.706984  0  0.003326  0  -0.22077  0  3.964953  0  0  -0.221933  0  3.980958  0  0  -0.092549  -0.219932  0  3.954414  0
C  C60  1  0.12829907  0.66459200  0.39224957  1  0  -0.091721  0  3.782434  0  0.051796  0  -0.079123  0  4.026693  0  0  -0.08467  0  4.047692  0  0  -0.011103  -0.07563  0  4.012781  0
C  C61  1  0.37168135  0.33538729  0.89224273  1  0  -0.091964  0  3.782624  0  0.051319  0  -0.079341  0  4.02694  0  0  -0.084882  0  4.047938  0  0  -0.011187  -0.075835  0  4.013015  0
C  C62  1  0.87169271  0.16462515  0.10776308  1  0  -0.091793  0  3.782311  0  0.051501  0  -0.079213  0  4.026952  0  0  -0.084757  0  4.047953  0  0  -0.011031  -0.075714  0  4.01303  0
C  C63  1  0.62830480  0.83539592  0.60775556  1  0  -0.091728  0  3.782054  0  0.052145  0  -0.0792  0  4.026748  0  0  -0.08475  0  4.04775  0  0  -0.011194  -0.075714  0  4.012844  0
C  C64  1  0.28482615  0.72204801  0.34440776  1  0  0.416012  0  3.887741  0  1.260809  0  0.377805  0  4.181923  0  0  0.400924  0  4.186593  0  0  0.193671  0.362294  0  4.178473  0
C  C65  1  0.21518703  0.27795609  0.84440411  1  0  0.41596  0  3.88802  0  1.260566  0  0.377606  0  4.182356  0  0  0.400714  0  4.187039  0  0  0.193536  0.362095  0  4.178901  0
C  C66  1  0.71519461  0.22201588  0.15559312  1  0  0.416045  0  3.887845  0  1.259976  0  0.377717  0  4.182246  0  0  0.400832  0  4.186941  0  0  0.19361  0.362208  0  4.178793  0
C  C67  1  0.78480594  0.77797394  0.65559531  1  0  0.415959  0  3.88761  0  1.260092  0  0.377697  0  4.181968  0  0  0.400823  0  4.186652  0  0  0.193606  0.362183  0  4.178519  0
C  C68  1  0.36190796  0.76430142  0.14532936  1  0  -0.719806  0  3.484927  0  -0.502948  0  -0.764784  0  3.724291  0  0  -0.780437  0  3.730137  0  0  -0.327973  -0.75399  0  3.720332  0
C  C69  1  0.13809619  0.23570877  0.64533120  1  0  -0.719857  0  3.485586  0  -0.502767  0  -0.764838  0  3.724916  0  0  -0.780502  0  3.730789  0  0  -0.328021  -0.75403  0  3.720942  0
C  C70  1  0.63808747  0.26429193  0.35466828  1  0  -0.719954  0  3.485968  0  -0.502848  0  -0.764844  0  3.724976  0  0  -0.7805  0  3.730832  0  0  -0.328035  -0.754047  0  3.721013  0
C  C71  1  0.86191433  0.73570082  0.85467388  1  0  -0.719956  0  3.485398  0  -0.502587  0  -0.764815  0  3.724452  0  0  -0.780466  0  3.730284  0  0  -0.328001  -0.75402  0  3.720492  0
C  C72  1  0.86956283  0.69439558  0.24235856  1  0  -0.714243  0  3.476001  0  -0.476755  0  -0.758952  0  3.712666  0  0  -0.774098  0  3.717706  0  0  -0.326398  -0.748537  0  3.709376  0
C  C73  1  0.63046093  0.30560619  0.74235419  1  0  -0.714086  0  3.475816  0  -0.476501  0  -0.758778  0  3.712436  0  0  -0.773928  0  3.717487  0  0  -0.326309  -0.748356  0  3.709149  0
C  C74  1  0.13044110  0.19439454  0.25764721  1  0  -0.713674  0  3.47539  0  -0.476234  0  -0.758618  0  3.712241  0  0  -0.773759  0  3.717282  0  0  -0.326214  -0.748202  0  3.708958  0
C  C75  1  0.36956287  0.80559890  0.75764421  1  0  -0.714106  0  3.475873  0  -0.476094  0  -0.759037  0  3.712661  0  0  -0.774193  0  3.717718  0  0  -0.326425  -0.748622  0  3.709374  0
N  N76  1  0.33100629  0.88544728  0.34164056  1  0  -0.282749  0  2.889322  0  -0.653115  0  -0.279283  0  3.178876  0  0  -0.28889  0  3.188744  0  0  -0.256602  -0.27294  0  3.171912  0
N  N77  1  0.16901467  0.11454039  0.84164146  1  0  -0.282492  0  2.888759  0  -0.652913  0  -0.278995  0  3.178351  0  0  -0.2886  0  3.188227  0  0  -0.256539  -0.272636  0  3.171407  0
N  N78  1  0.66900658  0.38546273  0.15836099  1  0  -0.282351  0  2.887866  0  -0.652444  0  -0.279191  0  3.178029  0  0  -0.288811  0  3.187923  0  0  -0.256519  -0.272838  0  3.171072  0
N  N79  1  0.83100486  0.61453837  0.65835391  1  0  -0.282328  0  2.888009  0  -0.652575  0  -0.27918  0  3.178166  0  0  -0.288797  0  3.188043  0  0  -0.256544  -0.272819  0  3.171211  0
O  O80  1  0.47647179  0.91781168  0.29149605  1  0  -0.555221  0  2.107033  0  -0.833416  0  -0.454454  0  2.361386  0  0  -0.48093  0  2.361413  0  0  -0.215461  -0.435701  0  2.360618  0
O  O81  1  0.02355859  0.08219333  0.79149533  1  0  -0.555179  0  2.106653  0  -0.833493  0  -0.454481  0  2.361103  0  0  -0.480921  0  2.361044  0  0  -0.215475  -0.435782  0  2.360393  0
O  O82  1  0.52356253  0.41780405  0.20850583  1  0  -0.555178  0  2.106692  0  -0.833663  0  -0.454425  0  2.361335  0  0  -0.480856  0  2.361256  0  0  -0.215499  -0.435696  0  2.360593  0
O  O83  1  0.97645816  0.58218099  0.70849826  1  0  -0.555177  0  2.106847  0  -0.833545  0  -0.454416  0  2.361457  0  0  -0.480867  0  2.361443  0  0  -0.215462  -0.435708  0  2.360733  0
O  O84  1  0.36548440  0.60109909  0.30625900  1  0  -0.618752  0  2.048223  0  -1.181173  0  -0.541894  0  2.291962  0  0  -0.567304  0  2.285873  0  0  -0.286891  -0.524005  0  2.295328  0
O  O85  1  0.13453662  0.39889779  0.80625184  1  0  -0.618858  0  2.048626  0  -1.181336  0  -0.541784  0  2.29221  0  0  -0.567235  0  2.286218  0  0  -0.286742  -0.523892  0  2.295568  0
O  O86  1  0.63451426  0.10109906  0.19374135  1  0  -0.618881  0  2.048919  0  -1.181285  0  -0.541783  0  2.292597  0  0  -0.567181  0  2.286484  0  0  -0.286888  -0.523895  0  2.295958  0
O  O87  1  0.86548311  0.89892375  0.69373699  1  0  -0.618845  0  2.048589  0  -1.181189  0  -0.541797  0  2.29228  0  0  -0.567184  0  2.286127  0  0  -0.286778  -0.523902  0  2.295638  0
F  F88  1  0.93210243  0.92753205  0.38755547  1  0  -0.200471  0  1.245647  0  -0.654042  0  -0.139646  0  1.40582  0  0  -0.148915  0  1.396594  0  0  -0.085095  -0.132908  0  1.412011  0
F  F89  1  0.56789776  0.07246466  0.88755891  1  0  -0.200524  0  1.245695  0  -0.653851  0  -0.139725  0  1.405898  0  0  -0.148994  0  1.396671  0  0  -0.085148  -0.13298  0  1.412092  0
F  F90  1  0.06791312  0.42754539  0.11244670  1  0  -0.201457  0  1.24553  0  -0.653456  0  -0.139782  0  1.405964  0  0  -0.14905  0  1.396739  0  0  -0.085193  -0.13304  0  1.412159  0
F  F91  1  0.43209109  0.57248145  0.61245131  1  0  -0.201233  0  1.245388  0  -0.654049  0  -0.139575  0  1.405847  0  0  -0.148841  0  1.396621  0  0  -0.08507  -0.132837  0  1.41204  0
F  F92  1  0.00663929  0.27606404  0.48471593  1  0  -0.216485  0  1.207314  0  -0.656272  0  -0.155042  0  1.360381  0  0  -0.164491  0  1.350444  0  0  -0.094369  -0.148188  0  1.367137  0
F  F93  1  0.49331922  0.72389047  0.98472013  1  0  -0.216509  0  1.207647  0  -0.656083  0  -0.154984  0  1.360555  0  0  -0.164438  0  1.350612  0  0  -0.094471  -0.148127  0  1.367321  0
F  F94  1  0.99334980  0.77611371  0.01528244  1  0  -0.216453  0  1.20714  0  -0.656227  0  -0.155065  0  1.360184  0  0  -0.164518  0  1.350238  0  0  -0.094442  -0.148208  0  1.366947  0
F  F95  1  0.50661362  0.22392441  0.51527552  1  0  -0.21652  0  1.206955  0  -0.656234  0  -0.155132  0  1.360057  0  0  -0.16458  0  1.35012  0  0  -0.094456  -0.148278  0  1.366818  0
