# generated using pymatgen
data_ZnH24C36(NO2)4
_symmetry_space_group_name_H-M   'P 1'
_cell_length_a   8.73321421
_cell_length_b   9.70880388
_cell_length_c   17.99376480
_cell_angle_alpha   103.34006239
_cell_angle_beta   104.05115675
_cell_angle_gamma   89.99385651
_symmetry_Int_Tables_number   1
_chemical_formula_structural   ZnH24C36(NO2)4
_chemical_formula_sum   'Zn2 H48 C72 N8 O16'
_cell_volume   1437.56229132
_cell_formula_units_Z   2
loop_
 _symmetry_equiv_pos_site_id
 _symmetry_equiv_pos_as_xyz
  1  'x, y, z'
loop_
 _atom_site_type_symbol
 _atom_site_label
 _atom_site_symmetry_multiplicity
 _atom_site_fract_x
 _atom_site_fract_y
 _atom_site_fract_z
 _atom_site_occupancy
 _atom_site_pbe_bader_spin_density
 _atom_site_pbe_cm5_charge
 _atom_site_pbe_ddec_charge
 _atom_site_pbe_ddec_spin_density
 _atom_site_pbe_ddec_sum_bond_order
 _atom_site_pbe_magmom
Zn  Zn0  1  0.94767857  0.24999821  0.00001870  1  0  0.687893  0.857303  0  2.263455  0
Zn  Zn1  1  0.05232194  0.75000190  0.99998173  1  0  0.687877  0.857261  0  2.263486  0
H  H2  1  0.18436880  0.40977260  0.15434112  1  0  0.116171  0.093239  0  1.035435  0
H  H3  1  0.03044828  0.08993470  0.84573008  1  0  0.116378  0.093853  0  1.034553  0
H  H4  1  0.81562920  0.59022539  0.84565931  1  0  0.11617  0.093255  0  1.035391  0
H  H5  1  0.96955098  0.91006435  0.15427008  1  0  0.116382  0.093848  0  1.034553  0
H  H6  1  0.23237793  0.44248013  0.29936377  1  0  0.103218  0.106609  0  1.039098  0
H  H7  1  0.93328412  0.05711789  0.70068243  1  0  0.102777  0.105607  0  1.040277  0
H  H8  1  0.76761890  0.55751785  0.70063596  1  0  0.103234  0.106633  0  1.03907  0
H  H9  1  0.06671410  0.94288327  0.29931731  1  0  0.102779  0.105602  0  1.040257  0
H  H10  1  0.81631230  0.16271635  0.25392376  1  0  0.109121  0.115965  0  1.020705  0
H  H11  1  0.56293480  0.33727543  0.74613466  1  0  0.109166  0.116378  0  1.020381  0
H  H12  1  0.18368458  0.83728271  0.74607722  1  0  0.109086  0.115911  0  1.02069  0
H  H13  1  0.43706571  0.66272468  0.25386578  1  0  0.109176  0.116379  0  1.020362  0
H  H14  1  0.79022348  0.14129359  0.11134637  1  0  0.120352  0.094509  0  1.020732  0
H  H15  1  0.67960831  0.35884941  0.88869551  1  0  0.120087  0.094699  0  1.022104  0
H  H16  1  0.20977563  0.85870334  0.88865462  1  0  0.120353  0.094512  0  1.020765  0
H  H17  1  0.32039093  0.64114964  0.11130576  1  0  0.120109  0.094738  0  1.022087  0
H  H18  1  0.19831583  0.51539342  0.41293795  1  0  0.104453  0.107899  0  1.037112  0
H  H19  1  0.78549581  0.98442841  0.58707044  1  0  0.104197  0.107036  0  1.037845  0
H  H20  1  0.80168121  0.48460774  0.58706164  1  0  0.104446  0.107902  0  1.037127  0
H  H21  1  0.21450603  0.01557382  0.41292986  1  0  0.104222  0.10706  0  1.037851  0
H  H22  1  0.25374372  0.52076932  0.55612428  1  0  0.115469  0.098273  0  1.028583  0
H  H23  1  0.69762513  0.97920960  0.44390753  1  0  0.114934  0.096865  0  1.029755  0
H  H24  1  0.74625687  0.47923184  0.44387574  1  0  0.115473  0.098276  0  1.028576  0
H  H25  1  0.30237538  0.02079051  0.55609291  1  0  0.114957  0.096882  0  1.0297  0
H  H26  1  0.98469475  0.14664435  0.51187118  1  0  0.11369  0.080596  0  1.016178  0
H  H27  1  0.47254898  0.35319609  0.48831146  1  0  0.113379  0.080346  0  1.016032  0
H  H28  1  0.01530014  0.85336000  0.48812909  1  0  0.113683  0.080619  0  1.016159  0
H  H29  1  0.52745037  0.64680401  0.51168773  1  0  0.113369  0.080305  0  1.016071  0
H  H30  1  0.91666604  0.12245473  0.36736322  1  0  0.109563  0.125664  0  1.033172  0
H  H31  1  0.54932286  0.37727933  0.63280455  1  0  0.110047  0.125752  0  1.033062  0
H  H32  1  0.08332995  0.87754856  0.63263761  1  0  0.109565  0.125655  0  1.033181  0
H  H33  1  0.45067656  0.62272183  0.36719422  1  0  0.110038  0.125743  0  1.033089  0
H  H34  1  0.47483917  0.05796272  0.92590527  1  0  0.099345  0.104951  0  1.047326  0
H  H35  1  0.54885761  0.44190345  0.07416906  1  0  0.099525  0.105325  0  1.047913  0
H  H36  1  0.52516359  0.94203526  0.07409407  1  0  0.099352  0.104997  0  1.047317  0
H  H37  1  0.45114514  0.55809453  0.92583084  1  0  0.099538  0.105328  0  1.047906  0
H  H38  1  0.39388774  0.04285839  0.78143991  1  0  0.098777  0.100412  0  1.046948  0
H  H39  1  0.61216997  0.45705819  0.21862896  1  0  0.098886  0.100925  0  1.046466  0
H  H40  1  0.60611625  0.95714066  0.21856027  1  0  0.098784  0.100403  0  1.046904  0
H  H41  1  0.38782945  0.54294297  0.78137036  1  0  0.098897  0.100926  0  1.046482  0
H  H42  1  0.15919875  0.43259842  0.82650302  1  0  0.108279  0.116956  0  1.002819  0
H  H43  1  0.33252879  0.06723159  0.17348578  1  0  0.108294  0.116674  0  1.003028  0
H  H44  1  0.84080024  0.56739638  0.17349603  1  0  0.108273  0.116946  0  1.002746  0
H  H45  1  0.66746942  0.93276958  0.82651506  1  0  0.108282  0.116615  0  1.003092  0
H  H46  1  0.16042108  0.33840032  0.62795486  1  0  0.284938  0.295147  0  1.056397  0
H  H47  1  0.53222899  0.16160942  0.37212309  1  0  0.284261  0.293525  0  1.058528  0
H  H48  1  0.83958426  0.66160084  0.37204407  1  0  0.284891  0.29509  0  1.05657  0
H  H49  1  0.46777277  0.83839175  0.62787763  1  0  0.284277  0.293546  0  1.058497  0
C  C50  1  0.10671634  0.35679767  0.17953490  1  0  0.050392  0.099278  0  3.933612  0
C  C51  1  0.92758316  0.14292812  0.82051802  1  0  0.051502  0.100106  0  3.932537  0
C  C52  1  0.89328049  0.64320031  0.82046483  1  0  0.050415  0.099305  0  3.933717  0
C  C53  1  0.07241617  0.85707199  0.17948227  1  0  0.051506  0.1001  0  3.932546  0
C  C54  1  0.13055952  0.37598677  0.26061581  1  0  -0.08385  -0.169971  0  3.928139  0
C  C55  1  0.87025762  0.12366391  0.73942870  1  0  -0.083526  -0.169246  0  3.92891  0
C  C56  1  0.86943848  0.62401122  0.73938462  1  0  -0.083863  -0.17003  0  3.928253  0
C  C57  1  0.12974296  0.87633726  0.26057187  1  0  -0.083537  -0.169225  0  3.92888  0
C  C58  1  0.02853251  0.30462806  0.29057265  1  0  0.009968  0.102831  0  3.967857  0
C  C59  1  0.73829435  0.19510440  0.70948270  1  0  0.009264  0.102403  0  3.969616  0
C  C60  1  0.97146675  0.69537099  0.70942750  1  0  0.009981  0.102846  0  3.967937  0
C  C61  1  0.26170630  0.80489783  0.29051801  1  0  0.009299  0.102475  0  3.969512  0
C  C62  1  0.90298792  0.21898590  0.23551392  1  0  -0.080041  -0.16907  0  3.92114  0
C  C63  1  0.66796375  0.28091939  0.76454698  1  0  -0.080436  -0.169497  0  3.921139  0
C  C64  1  0.09701014  0.78101315  0.76448721  1  0  -0.079976  -0.16891  0  3.921098  0
C  C65  1  0.33203683  0.71908177  0.23545359  1  0  -0.080476  -0.169581  0  3.921125  0
C  C66  1  0.88705300  0.20598515  0.15539618  1  0  0.056918  0.116332  0  3.913831  0
C  C67  1  0.73223295  0.29399138  0.84465270  1  0  0.057105  0.114778  0  3.916414  0
C  C68  1  0.11294500  0.79401284  0.84460425  1  0  0.0569  0.116237  0  3.91386  0
C  C69  1  0.26776643  0.70600979  0.15534829  1  0  0.057067  0.114756  0  3.916451  0
C  C70  1  0.05523813  0.31666276  0.37620186  1  0  0.017261  0.114836  0  3.94964  0
C  C71  1  0.67916534  0.18310915  0.62386990  1  0  0.016623  0.113  0  3.950092  0
C  C72  1  0.94475890  0.68333841  0.62379883  1  0  0.017183  0.114718  0  3.949753  0
C  C73  1  0.32083530  0.81689308  0.37613082  1  0  0.01663  0.113011  0  3.950129  0
C  C74  1  0.14914742  0.42995245  0.43163340  1  0  -0.082475  -0.172876  0  3.94452  0
C  C75  1  0.71761391  0.06988105  0.56839946  1  0  -0.081454  -0.170004  0  3.943811  0
C  C76  1  0.85085081  0.57004871  0.56836633  1  0  -0.082462  -0.172903  0  3.944572  0
C  C77  1  0.28238786  0.93012011  0.43160070  1  0  -0.081502  -0.170108  0  3.943872  0
C  C78  1  0.17929025  0.43494861  0.51172676  1  0  0.046063  0.080482  0  3.955122  0
C  C79  1  0.66756530  0.06497687  0.48832487  1  0  0.045889  0.08068  0  3.955531  0
C  C80  1  0.82070797  0.56505255  0.48827297  1  0  0.046049  0.080535  0  3.955139  0
C  C81  1  0.33243758  0.93502324  0.51167530  1  0  0.045861  0.080695  0  3.955386  0
C  C82  1  0.02871601  0.22627577  0.48691797  1  0  0.047746  0.089007  0  3.968068  0
C  C83  1  0.54165836  0.27356091  0.51322089  1  0  0.048461  0.088399  0  3.968852  0
C  C84  1  0.97128116  0.77372752  0.51308301  1  0  0.047759  0.088988  0  3.968088  0
C  C85  1  0.45834342  0.72644025  0.48677872  1  0  0.048509  0.088475  0  3.968945  0
C  C86  1  0.99177607  0.21371433  0.40586364  1  0  -0.081466  -0.18234  0  3.924698  0
C  C87  1  0.58591820  0.28606093  0.59426976  1  0  -0.082467  -0.181835  0  3.924315  0
C  C88  1  0.00822102  0.78628790  0.59413720  1  0  -0.08144  -0.182275  0  3.9248  0
C  C89  1  0.41408358  0.71394023  0.40572985  1  0  -0.082475  -0.181861  0  3.924363  0
C  C90  1  0.19444567  0.46218564  0.98214222  1  0  0.212682  0.587397  0  4.195502  0
C  C91  1  0.21227062  0.03769330  0.01788004  1  0  0.213238  0.58954  0  4.196917  0
C  C92  1  0.80555598  0.53781340  0.01785656  1  0  0.212806  0.587588  0  4.195309  0
C  C93  1  0.78772981  0.96230575  0.98212081  1  0  0.213253  0.589421  0  4.197021  0
C  C94  1  0.26354241  0.35256976  0.92809567  1  0  -0.012432  -0.081736  0  3.955093  0
C  C95  1  0.33540587  0.14730744  0.07193041  1  0  -0.012981  -0.083999  0  3.956919  0
C  C96  1  0.73645924  0.64742928  0.07190311  1  0  -0.012535  -0.081858  0  3.955101  0
C  C97  1  0.66459458  0.85269160  0.92806934  1  0  -0.012967  -0.083913  0  3.95686  0
C  C98  1  0.35277730  0.24705523  0.95708535  1  0  0.010431  0.074589  0  3.932937  0
C  C99  1  0.39569957  0.25279537  0.04295224  1  0  0.01111  0.075447  0  3.934211  0
C  C100  1  0.64722435  0.75294382  0.04291398  1  0  0.010452  0.074635  0  3.932994  0
C  C101  1  0.60430095  0.74720473  0.95704765  1  0  0.011082  0.075345  0  3.934274  0
C  C102  1  0.40091980  0.13701301  0.90360382  1  0  -0.084728  -0.108911  0  3.933265  0
C  C103  1  0.49724664  0.36284917  0.09645180  1  0  -0.085017  -0.109793  0  3.935475  0
C  C104  1  0.59908182  0.86298604  0.09639662  1  0  -0.084775  -0.109047  0  3.933359  0
C  C105  1  0.50275631  0.63715199  0.90354851  1  0  -0.085021  -0.109773  0  3.935427  0
C  C106  1  0.35777788  0.12955128  0.82296153  1  0  -0.084985  -0.094704  0  3.971413  0
C  C107  1  0.53464424  0.37031745  0.17709160  1  0  -0.084961  -0.094595  0  3.97154  0
C  C108  1  0.64222480  0.87044564  0.17703767  1  0  -0.084931  -0.094579  0  3.97135  0
C  C109  1  0.46535636  0.62968371  0.82290786  1  0  -0.084966  -0.094591  0  3.97142  0
C  C110  1  0.27135706  0.23654326  0.79451299  1  0  -0.028489  -0.071791  0  4.034554  0
C  C111  1  0.47665785  0.26335404  0.20553398  1  0  -0.028264  -0.072338  0  4.035939  0
C  C112  1  0.72864452  0.76345472  0.20548621  1  0  -0.028452  -0.071769  0  4.034465  0
C  C113  1  0.52334274  0.73664712  0.79446604  1  0  -0.028335  -0.072378  0  4.035964  0
C  C114  1  0.22785624  0.34957141  0.84779257  1  0  -0.078623  -0.105037  0  3.947523  0
C  C115  1  0.37995468  0.15029592  0.15223198  1  0  -0.078847  -0.104469  0  3.948677  0
C  C116  1  0.77214415  0.65042657  0.15220648  1  0  -0.078621  -0.105038  0  3.947321  0
C  C117  1  0.62004597  0.84970631  0.84776874  1  0  -0.078812  -0.104389  0  3.948682  0
C  C118  1  0.22060285  0.22581578  0.70815943  1  0  0.220373  0.572869  0  4.156709  0
C  C119  1  0.51217276  0.27414248  0.29188936  1  0  0.219955  0.573878  0  4.156775  0
C  C120  1  0.77939998  0.77418326  0.29183949  1  0  0.220387  0.572962  0  4.156663  0
C  C121  1  0.48782782  0.72585869  0.70811122  1  0  0.220005  0.573847  0  4.156741  0
N  N122  1  0.98832658  0.27158597  0.12735130  1  0  -0.305833  -0.209594  0  3.465839  0
N  N123  1  0.86146905  0.22827400  0.87269360  1  0  -0.306387  -0.209579  0  3.468505  0
N  N124  1  0.01167142  0.72841202  0.87264913  1  0  -0.305852  -0.209582  0  3.465915  0
N  N125  1  0.13853034  0.77172717  0.12730684  1  0  -0.30636  -0.20956  0  3.468481  0
N  N126  1  0.12114930  0.33379868  0.53905522  1  0  -0.306024  -0.219995  0  3.451697  0
N  N127  1  0.58197925  0.16613455  0.46104345  1  0  -0.30579  -0.218764  0  3.451839  0
N  N128  1  0.87884898  0.66620355  0.46094521  1  0  -0.306017  -0.220029  0  3.451702  0
N  N129  1  0.41802121  0.83386449  0.53895574  1  0  -0.305787  -0.21875  0  3.451868  0
O  O130  1  0.12465853  0.41997201  0.02785454  1  0  -0.311864  -0.567996  0  2.386042  0
O  O131  1  0.09678163  0.07993808  0.97216409  1  0  -0.311646  -0.568701  0  2.389836  0
O  O132  1  0.87534540  0.58002597  0.97214494  1  0  -0.311917  -0.568073  0  2.38605  0
O  O133  1  0.90321890  0.92006202  0.02783524  1  0  -0.311639  -0.568614  0  2.389873  0
O  O134  1  0.21249692  0.59004928  0.97848842  1  0  -0.306734  -0.533001  0  2.316971  0
O  O135  1  0.23398256  0.90983814  0.02156070  1  0  -0.307144  -0.533902  0  2.317438  0
O  O136  1  0.78750002  0.40994975  0.02150922  1  0  -0.306755  -0.533054  0  2.317005  0
O  O137  1  0.76601802  0.09016303  0.97843987  1  0  -0.307138  -0.533872  0  2.317469  0
O  O138  1  0.20673619  0.11117030  0.65831659  1  0  -0.314646  -0.536681  0  2.135161  0
O  O139  1  0.54810940  0.38882189  0.34170161  1  0  -0.31449  -0.537555  0  2.135114  0
O  O140  1  0.79326193  0.88882873  0.34168120  1  0  -0.314658  -0.536741  0  2.135115  0
O  O141  1  0.45189474  0.61117927  0.65829829  1  0  -0.314531  -0.537553  0  2.135116  0
O  O142  1  0.19032680  0.34987556  0.68992723  1  0  -0.336545  -0.481692  0  2.346234  0
O  O143  1  0.50010373  0.15011522  0.31015441  1  0  -0.336033  -0.480669  0  2.346367  0
O  O144  1  0.80968324  0.65012561  0.31007339  1  0  -0.336525  -0.481687  0  2.346433  0
O  O145  1  0.49989568  0.84988595  0.68984547  1  0  -0.336036  -0.480648  0  2.346328  0
