# generated using pymatgen
data_KH8C6N5O2
_symmetry_space_group_name_H-M   'P 1'
_cell_length_a   7.19447663
_cell_length_b   8.65007517
_cell_length_c   8.64997444
_cell_angle_alpha   91.11736233
_cell_angle_beta   71.92139241
_cell_angle_gamma   71.92134662
_symmetry_Int_Tables_number   1
_chemical_formula_structural   KH8C6N5O2
_chemical_formula_sum   'K2 H16 C12 N10 O4'
_cell_volume   482.46212806
_cell_formula_units_Z   2
loop_
 _symmetry_equiv_pos_site_id
 _symmetry_equiv_pos_as_xyz
  1  'x, y, z'
loop_
 _atom_site_type_symbol
 _atom_site_label
 _atom_site_symmetry_multiplicity
 _atom_site_fract_x
 _atom_site_fract_y
 _atom_site_fract_z
 _atom_site_occupancy
 _atom_site_hle17_bader_spin_density
 _atom_site_hle17_ddec_charge
 _atom_site_hle17_ddec_spin_density
 _atom_site_hle17_ddec_sum_bond_order
 _atom_site_hle17_magmom
 _atom_site_hse06_10hf_bader_spin_density
 _atom_site_hse06_10hf_ddec_charge
 _atom_site_hse06_10hf_ddec_spin_density
 _atom_site_hse06_10hf_ddec_sum_bond_order
 _atom_site_hse06_10hf_magmom
 _atom_site_hse06_bader_spin_density
 _atom_site_hse06_ddec_charge
 _atom_site_hse06_ddec_spin_density
 _atom_site_hse06_ddec_sum_bond_order
 _atom_site_hse06_magmom
 _atom_site_pbe_bader_spin_density
 _atom_site_pbe_cm5_charge
 _atom_site_pbe_ddec_charge
 _atom_site_pbe_ddec_spin_density
 _atom_site_pbe_ddec_sum_bond_order
 _atom_site_pbe_magmom
K  K0  1  0.49999790  0.50002090  0.49999694  1  0  0.90037  0  0.510711  0  0  0.845249  0  0.706166  0  0  0.859676  0  0.6822  0  0  0.77204  0.834476  0  0.723233  0
K  K1  1  0.00001005  0.49998292  0.50001636  1  0  0.900359  0  0.510745  0  0  0.845236  0  0.706209  0  0  0.859657  0  0.682246  0  0  0.772046  0.834457  0  0.72328  0
H  H2  1  0.80448917  0.70726492  0.91131422  1  0  0.113437  0  0.952673  0  0  0.12371  0  1.01448  0  0  0.127632  0  1.01199  0  0  0.115424  0.120845  0  1.016463  0
H  H3  1  0.69550718  0.08868523  0.29274116  1  0  0.113412  0  0.952698  0  0  0.123686  0  1.014509  0  0  0.127609  0  1.01202  0  0  0.115403  0.120822  0  1.016489  0
H  H4  1  0.19550990  0.29273155  0.08868658  1  0  0.113454  0  0.952674  0  0  0.123718  0  1.014478  0  0  0.12764  0  1.011989  0  0  0.115432  0.120854  0  1.01646  0
H  H5  1  0.30449072  0.91131735  0.70725652  1  0  0.113413  0  0.952698  0  0  0.123679  0  1.014508  0  0  0.127601  0  1.012019  0  0  0.115392  0.120815  0  1.016488  0
H  H6  1  0.80385691  0.51417503  0.11979954  1  0  0.06978  0  0.935428  0  0  0.08046  0  0.996571  0  0  0.082925  0  0.994725  0  0  0.119651  0.078595  0  0.998058  0
H  H7  1  0.69614685  0.88019908  0.48582924  1  0  0.069826  0  0.935397  0  0  0.080558  0  0.996497  0  0  0.082973  0  0.994703  0  0  0.119673  0.078692  0  0.997981  0
H  H8  1  0.19614699  0.48582395  0.88020346  1  0  0.069799  0  0.935405  0  0  0.0805  0  0.996522  0  0  0.082951  0  0.994692  0  0  0.119666  0.078635  0  0.998009  0
H  H9  1  0.30385983  0.11980354  0.51416842  1  0  0.069779  0  0.935403  0  0  0.080527  0  0.996487  0  0  0.082937  0  0.994699  0  0  0.119676  0.078659  0  0.997971  0
H  H10  1  0.01643829  0.83197629  0.65414794  1  0  0.390741  0  0.929551  0  0  0.351867  0  1.007599  0  0  0.362999  0  0.991388  0  0  0.276787  0.344028  0  1.018981  0
H  H11  1  0.48355212  0.34585390  0.16802848  1  0  0.390695  0  0.929584  0  0  0.351856  0  1.00758  0  0  0.36299  0  0.991366  0  0  0.276816  0.34402  0  1.01896  0
H  H12  1  0.98355760  0.16802749  0.34584797  1  0  0.39066  0  0.929626  0  0  0.351821  0  1.007623  0  0  0.362956  0  0.991406  0  0  0.276782  0.343984  0  1.019003  0
H  H13  1  0.51644145  0.65414873  0.83197730  1  0  0.390662  0  0.929632  0  0  0.35182  0  1.007634  0  0  0.362955  0  0.991418  0  0  0.276767  0.343984  0  1.019014  0
H  H14  1  0.14988209  0.80531390  0.46483562  1  0  0.373343  0  0.953176  0  0  0.332363  0  1.034823  0  0  0.343411  0  1.018803  0  0  0.274883  0.324569  0  1.046085  0
H  H15  1  0.35010482  0.53516269  0.19468717  1  0  0.373315  0  0.95321  0  0  0.33234  0  1.034847  0  0  0.343389  0  1.018827  0  0  0.274911  0.324549  0  1.046109  0
H  H16  1  0.85010899  0.19468738  0.53515924  1  0  0.37336  0  0.953151  0  0  0.332384  0  1.034791  0  0  0.343431  0  1.018773  0  0  0.274923  0.32459  0  1.046054  0
H  H17  1  0.64988351  0.46483500  0.80531765  1  0  0.373366  0  0.953155  0  0  0.332393  0  1.034791  0  0  0.34344  0  1.018773  0  0  0.274901  0.3246  0  1.046055  0
C  C18  1  0.74999849  0.03359608  0.96640613  1  0  0.249117  0  3.799917  0  0  0.220097  0  4.079181  0  0  0.227501  0  4.096863  0  0  0.209267  0.215253  0  4.066901  0
C  C19  1  0.25000298  0.96640164  0.03359404  1  0  0.24907  0  3.799903  0  0  0.220065  0  4.079166  0  0  0.227467  0  4.09685  0  0  0.209273  0.215221  0  4.066887  0
C  C20  1  0.74999918  0.91545399  0.08454927  1  0  0.071278  0  3.755418  0  0  0.083935  0  3.994775  0  0  0.087985  0  4.014806  0  0  0.01736  0.081298  0  3.981166  0
C  C21  1  0.25000123  0.08454615  0.91544889  1  0  0.071311  0  3.755451  0  0  0.083946  0  3.994802  0  0  0.087996  0  4.014835  0  0  0.017363  0.081308  0  3.981192  0
C  C22  1  0.78312723  0.75040543  0.03685743  1  0  -0.137593  0  3.682096  0  0  -0.163176  0  3.935097  0  0  -0.169496  0  3.954976  0  0  -0.077153  -0.15911  0  3.921867  0
C  C23  1  0.71687477  0.96314252  0.24959686  1  0  -0.137531  0  3.682108  0  0  -0.163121  0  3.935132  0  0  -0.169434  0  3.954981  0  0  -0.077147  -0.15906  0  3.921911  0
C  C24  1  0.21687623  0.24959107  0.96314336  1  0  -0.137668  0  3.682236  0  0  -0.163241  0  3.935258  0  0  -0.169559  0  3.955127  0  0  -0.07719  -0.159176  0  3.922028  0
C  C25  1  0.28313055  0.03685642  0.75040114  1  0  -0.137548  0  3.682112  0  0  -0.16311  0  3.935125  0  0  -0.169423  0  3.954976  0  0  -0.077135  -0.159049  0  3.921904  0
C  C26  1  0.78112392  0.64272479  0.15412891  1  0  0.122128  0  3.769754  0  0  0.095434  0  4.033644  0  0  0.101085  0  4.051622  0  0  0.041884  0.091807  0  4.021384  0
C  C27  1  0.71888789  0.84587075  0.35727692  1  0  0.122047  0  3.769681  0  0  0.09531  0  4.033578  0  0  0.101004  0  4.051557  0  0  0.041901  0.091686  0  4.021309  0
C  C28  1  0.21888436  0.35727421  0.84587292  1  0  0.122186  0  3.769695  0  0  0.095471  0  4.033575  0  0  0.101135  0  4.051554  0  0  0.041931  0.091846  0  4.021312  0
C  C29  1  0.28112078  0.15413066  0.64272136  1  0  0.122098  0  3.769676  0  0  0.095336  0  4.033592  0  0  0.101033  0  4.051572  0  0  0.041868  0.091712  0  4.021322  0
N  N30  1  0.81867000  0.99409557  0.80189931  1  0  -0.306951  0  3.028481  0  0  -0.267398  0  3.295698  0  0  -0.279302  0  3.310317  0  0  -0.202815  -0.259186  0  3.285597  0
N  N31  1  0.68132437  0.19810041  0.00590741  1  0  -0.306965  0  3.028547  0  0  -0.26743  0  3.295772  0  0  -0.279335  0  3.310392  0  0  -0.202843  -0.259219  0  3.285675  0
N  N32  1  0.18132947  0.00590333  0.19809793  1  0  -0.306887  0  3.028542  0  0  -0.267352  0  3.295755  0  0  -0.279257  0  3.310376  0  0  -0.202791  -0.259141  0  3.285656  0
N  N33  1  0.31867269  0.80189725  0.99409046  1  0  -0.306967  0  3.028535  0  0  -0.267441  0  3.295764  0  0  -0.279346  0  3.310385  0  0  -0.20286  -0.259229  0  3.285668  0
N  N34  1  0.79110424  0.13716410  0.74094743  1  0  -0.105141  0  3.072849  0  0  -0.075174  0  3.347243  0  0  -0.078955  0  3.362308  0  0  -0.084569  -0.072294  0  3.336813  0
N  N35  1  0.70889189  0.25905320  0.86283770  1  0  -0.105098  0  3.07289  0  0  -0.075127  0  3.347281  0  0  -0.078907  0  3.362346  0  0  -0.084608  -0.072249  0  3.336855  0
N  N36  1  0.20889179  0.86283602  0.25905189  1  0  -0.105191  0  3.0728  0  0  -0.075229  0  3.347215  0  0  -0.07901  0  3.362281  0  0  -0.084654  -0.072349  0  3.336787  0
N  N37  1  0.29110612  0.74094570  0.13716109  1  0  -0.105046  0  3.072766  0  0  -0.075067  0  3.347148  0  0  -0.078846  0  3.362214  0  0  -0.084522  -0.072188  0  3.336723  0
N  N38  1  0.75000673  0.68726227  0.31273612  1  0  -0.427316  0  3.180313  0  0  -0.379795  0  3.452493  0  0  -0.393251  0  3.46914  0  0  -0.447454  -0.370478  0  3.440927  0
N  N39  1  0.25000937  0.31273552  0.68726363  1  0  -0.427336  0  3.180296  0  0  -0.379813  0  3.452498  0  0  -0.393267  0  3.469137  0  0  -0.447485  -0.370496  0  3.44093  0
O  O40  1  0.13156964  0.74980977  0.56581150  1  0  -0.916492  0  1.834138  0  0  -0.86285  0  2.020875  0  0  -0.881277  0  1.988068  0  0  -0.739683  -0.849548  0  2.043716  0
O  O41  1  0.36841485  0.43418805  0.25019335  1  0  -0.916418  0  1.834217  0  0  -0.862806  0  2.020907  0  0  -0.881233  0  1.988101  0  0  -0.739727  -0.849504  0  2.043742  0
O  O42  1  0.86842094  0.25019276  0.43418582  1  0  -0.916429  0  1.834235  0  0  -0.862815  0  2.02092  0  0  -0.881239  0  1.988117  0  0  -0.739694  -0.849512  0  2.043755  0
O  O43  1  0.63157787  0.56580966  0.74981146  1  0  -0.91643  0  1.834237  0  0  -0.862816  0  2.020929  0  0  -0.881241  0  1.988121  0  0  -0.739688  -0.849514  0  2.043766  0
