# generated using pymatgen
data_AgH8C10N2O3
_symmetry_space_group_name_H-M   'P 1'
_cell_length_a   9.85782951
_cell_length_b   10.48368570
_cell_length_c   11.57304996
_cell_angle_alpha   70.97442976
_cell_angle_beta   69.33552318
_cell_angle_gamma   86.73831996
_symmetry_Int_Tables_number   1
_chemical_formula_structural   AgH8C10N2O3
_chemical_formula_sum   'Ag4 H32 C40 N8 O12'
_cell_volume   1055.66368161
_cell_formula_units_Z   4
loop_
 _symmetry_equiv_pos_site_id
 _symmetry_equiv_pos_as_xyz
  1  'x, y, z'
loop_
 _atom_site_type_symbol
 _atom_site_label
 _atom_site_symmetry_multiplicity
 _atom_site_fract_x
 _atom_site_fract_y
 _atom_site_fract_z
 _atom_site_occupancy
 _atom_site_hle17_bader_spin_density
 _atom_site_hle17_ddec_charge
 _atom_site_hle17_ddec_spin_density
 _atom_site_hle17_ddec_sum_bond_order
 _atom_site_hle17_magmom
 _atom_site_hse06_10hf_bader_spin_density
 _atom_site_hse06_10hf_ddec_charge
 _atom_site_hse06_10hf_ddec_spin_density
 _atom_site_hse06_10hf_ddec_sum_bond_order
 _atom_site_hse06_10hf_magmom
 _atom_site_hse06_bader_spin_density
 _atom_site_hse06_ddec_charge
 _atom_site_hse06_ddec_spin_density
 _atom_site_hse06_ddec_sum_bond_order
 _atom_site_hse06_magmom
 _atom_site_pbe_bader_spin_density
 _atom_site_pbe_cm5_charge
 _atom_site_pbe_ddec_charge
 _atom_site_pbe_ddec_spin_density
 _atom_site_pbe_ddec_sum_bond_order
 _atom_site_pbe_magmom
Ag  Ag0  1  0.39075680  0.59385495  0.49646570  1  0  0.653717  0  1.378811  0  0  0.542008  0  1.855471  0  0  0.57321  0  1.791087  0  0  0.438758  0.518974  0  1.901809  0
Ag  Ag1  1  0.60925184  0.40616035  0.50352395  1  0  0.653754  0  1.378716  0  0  0.542115  0  1.85529  0  0  0.573314  0  1.790911  0  0  0.438787  0.519079  0  1.901625  0
Ag  Ag2  1  0.50111495  0.17609764  0.88851114  1  0  0.470196  0  1.378541  0  0  0.310911  0  1.779731  0  0  0.343898  0  1.737969  0  0  0.483889  0.287743  0  1.808816  0
Ag  Ag3  1  0.49888564  0.82389864  0.11149290  1  0  0.470109  0  1.378536  0  0  0.310847  0  1.779747  0  0  0.343832  0  1.73798  0  0  0.483868  0.287681  0  1.808834  0
H  H4  1  0.23174421  0.29288012  0.01755527  1  0  0.088552  0  0.93282  0  0  0.100899  0  0.989906  0  0  0.102247  0  0.989553  0  0  0.120865  0.099392  0  0.991145  0
H  H5  1  0.76825395  0.70711321  0.98245301  1  0  0.08854  0  0.932836  0  0  0.100914  0  0.989888  0  0  0.102262  0  0.989538  0  0  0.120903  0.099407  0  0.991129  0
H  H6  1  0.14841153  0.43338899  0.16230763  1  0  0.11407  0  1.010804  0  0  0.12037  0  1.075038  0  0  0.123763  0  1.074378  0  0  0.112193  0.117374  0  1.076631  0
H  H7  1  0.85158263  0.56660835  0.83769882  1  0  0.114071  0  1.010808  0  0  0.120371  0  1.075042  0  0  0.123764  0  1.07438  0  0  0.112194  0.117374  0  1.076637  0
H  H8  1  0.57391319  0.41877236  0.19232351  1  0  0.138289  0  0.937407  0  0  0.144778  0  1.00061  0  0  0.148406  0  0.999135  0  0  0.117517  0.141537  0  1.002848  0
H  H9  1  0.42607532  0.58122195  0.80768468  1  0  0.13833  0  0.937359  0  0  0.144768  0  1.000631  0  0  0.1484  0  0.999142  0  0  0.117523  0.141528  0  1.002868  0
H  H10  1  0.64473249  0.28137189  0.04046237  1  0  0.076638  0  0.94401  0  0  0.088741  0  1.005336  0  0  0.089867  0  1.004898  0  0  0.116396  0.087588  0  1.006258  0
H  H11  1  0.35526079  0.71862857  0.95954595  1  0  0.076613  0  0.944033  0  0  0.088705  0  1.005355  0  0  0.08983  0  1.004917  0  0  0.116376  0.087551  0  1.006276  0
H  H12  1  0.76858443  0.07985314  0.70984202  1  0  0.088435  0  0.931157  0  0  0.099266  0  0.99029  0  0  0.101528  0  0.988316  0  0  0.122334  0.097431  0  0.992029  0
H  H13  1  0.23141330  0.92014938  0.29016694  1  0  0.088464  0  0.931091  0  0  0.099269  0  0.990268  0  0  0.101525  0  0.988303  0  0  0.122319  0.097437  0  0.992005  0
H  H14  1  0.81825118  0.92845371  0.57715570  1  0  0.128651  0  0.999221  0  0  0.134235  0  1.063658  0  0  0.138106  0  1.061863  0  0  0.115497  0.13137  0  1.065278  0
H  H15  1  0.18175037  0.07154285  0.42285835  1  0  0.128684  0  0.999114  0  0  0.134231  0  1.063596  0  0  0.138122  0  1.061777  0  0  0.115485  0.131372  0  1.065217  0
H  H16  1  0.35489304  0.88194053  0.66861941  1  0  0.122091  0  0.957283  0  0  0.128861  0  1.022236  0  0  0.130925  0  1.023627  0  0  0.114127  0.127438  0  1.021111  0
H  H17  1  0.64510679  0.11805978  0.33138272  1  0  0.122067  0  0.957257  0  0  0.128875  0  1.022179  0  0  0.130939  0  1.023567  0  0  0.11411  0.127448  0  1.021051  0
H  H18  1  0.32165137  0.03230285  0.80374384  1  0  0.075711  0  0.935978  0  0  0.089235  0  0.993274  0  0  0.090675  0  0.992379  0  0  0.117923  0.087988  0  0.994358  0
H  H19  1  0.67834638  0.96769845  0.19625773  1  0  0.075735  0  0.935855  0  0  0.089248  0  0.993181  0  0  0.090689  0  0.992285  0  0  0.117906  0.087997  0  0.994264  0
H  H20  1  0.01839748  0.96614744  0.63299106  1  0  0.106537  0  0.989844  0  0  0.112852  0  1.058177  0  0  0.116729  0  1.055291  0  0  0.100376  0.109872  0  1.060728  0
H  H21  1  0.98160498  0.03385892  0.36700840  1  0  0.106603  0  0.989848  0  0  0.112883  0  1.058211  0  0  0.116753  0  1.055341  0  0  0.100386  0.109886  0  1.060783  0
H  H22  1  0.02184699  0.99225509  0.83784094  1  0  0.084346  0  0.948471  0  0  0.098691  0  1.000621  0  0  0.102211  0  0.998767  0  0  0.095214  0.096471  0  1.001488  0
H  H23  1  0.97815976  0.00773601  0.16215949  1  0  0.084416  0  0.948398  0  0  0.098711  0  1.0006  0  0  0.102225  0  0.998745  0  0  0.095214  0.09649  0  1.001467  0
H  H24  1  0.07407563  0.79162215  0.00578136  1  0  0.092923  0  0.950472  0  0  0.103381  0  1.010087  0  0  0.107485  0  1.006575  0  0  0.097384  0.100343  0  1.012797  0
H  H25  1  0.92592638  0.20836277  0.99421721  1  0  0.092858  0  0.950484  0  0  0.103325  0  1.010099  0  0  0.107427  0  1.00659  0  0  0.097328  0.100288  0  1.01281  0
H  H26  1  0.13297967  0.57873068  0.95987528  1  0  0.094719  0  0.961819  0  0  0.104589  0  1.026052  0  0  0.107459  0  1.025713  0  0  0.097891  0.102199  0  1.027269  0
H  H27  1  0.86702312  0.42126318  0.04011420  1  0  0.094655  0  0.961827  0  0  0.104523  0  1.026091  0  0  0.1074  0  1.025733  0  0  0.097902  0.102155  0  1.027283  0
H  H28  1  0.15537459  0.61210664  0.38225187  1  0  0.352489  0  0.921298  0  0  0.33162  0  0.984902  0  0  0.34247  0  0.974591  0  0  0.291618  0.324083  0  0.991976  0
H  H29  1  0.84462279  0.38790255  0.61773953  1  0  0.352488  0  0.921282  0  0  0.331627  0  0.984881  0  0  0.342467  0  0.974584  0  0  0.291635  0.324088  0  0.991956  0
H  H30  1  0.10715758  0.55047710  0.27364663  1  0  0.351673  0  0.931495  0  0  0.328822  0  0.999292  0  0  0.337908  0  0.99205  0  0  0.292782  0.322168  0  1.004519  0
H  H31  1  0.89283951  0.44952919  0.72635096  1  0  0.351674  0  0.931519  0  0  0.328792  0  0.99935  0  0  0.337876  0  0.992112  0  0  0.292776  0.32214  0  1.004569  0
H  H32  1  0.73717691  0.70037214  0.42025043  1  0  0.34499  0  0.858133  0  0  0.329109  0  0.920102  0  0  0.338133  0  0.911204  0  0  0.316788  0.322455  0  0.926758  0
H  H33  1  0.26282302  0.29963031  0.57975532  1  0  0.344912  0  0.858231  0  0  0.329036  0  0.92019  0  0  0.33806  0  0.911292  0  0  0.31673  0.322385  0  0.926839  0
H  H34  1  0.82833672  0.78666795  0.48204633  1  0  0.356306  0  0.916817  0  0  0.332505  0  0.985393  0  0  0.34186  0  0.977566  0  0  0.297701  0.326109  0  0.990583  0
H  H35  1  0.17166774  0.21333640  0.51795405  1  0  0.356367  0  0.91662  0  0  0.332559  0  0.985222  0  0  0.341911  0  0.977399  0  0  0.297687  0.32616  0  0.99042  0
C  C36  1  0.30461061  0.32166204  0.05835403  1  0  0.120602  0  3.677389  0  0  0.090749  0  3.919261  0  0  0.096727  0  3.940272  0  0  0.045774  0.087189  0  3.904834  0
C  C37  1  0.69538930  0.67833928  0.94164777  1  0  0.120497  0  3.677397  0  0  0.090622  0  3.919343  0  0  0.096602  0  3.94035  0  0  0.045661  0.087068  0  3.904904  0
C  C38  1  0.25851854  0.39931099  0.14013039  1  0  -0.124703  0  3.689637  0  0  -0.146725  0  3.935092  0  0  -0.153147  0  3.957138  0  0  -0.076975  -0.142543  0  3.921098  0
C  C39  1  0.74147811  0.60069036  0.85987321  1  0  -0.124674  0  3.689681  0  0  -0.146726  0  3.935107  0  0  -0.153151  0  3.957153  0  0  -0.076958  -0.142543  0  3.921117  0
C  C40  1  0.35565448  0.43535724  0.18957468  1  0  0.006104  0  3.709683  0  0  0.028874  0  3.935773  0  0  0.027372  0  3.955892  0  0  0.01094  0.029695  0  3.922647  0
C  C41  1  0.64433834  0.56463713  0.81043483  1  0  0.006272  0  3.709587  0  0  0.029115  0  3.935515  0  0  0.027628  0  3.955616  0  0  0.011066  0.029935  0  3.922392  0
C  C42  1  0.49665493  0.39196889  0.15435068  1  0  -0.11632  0  3.6828  0  0  -0.137536  0  3.925383  0  0  -0.14247  0  3.946201  0  0  -0.073801  -0.133988  0  3.912235  0
C  C43  1  0.50333325  0.60802145  0.84566146  1  0  -0.116332  0  3.682558  0  0  -0.13758  0  3.925144  0  0  -0.142515  0  3.945957  0  0  -0.07387  -0.134033  0  3.911999  0
C  C44  1  0.53531497  0.31549062  0.07103991  1  0  0.106167  0  3.71739  0  0  0.076639  0  3.96074  0  0  0.08244  0  3.982731  0  0  0.040317  0.072944  0  3.945958  0
C  C45  1  0.46467691  0.68450579  0.92897010  1  0  0.106084  0  3.717292  0  0  0.076627  0  3.9606  0  0  0.082429  0  3.982593  0  0  0.040298  0.072935  0  3.945815  0
C  C46  1  0.31586344  0.51826637  0.27950569  1  0  0.577441  0  3.888941  0  0  0.527279  0  4.172447  0  0  0.556602  0  4.174589  0  0  0.228578  0.507622  0  4.170302  0
C  C47  1  0.68413197  0.48173297  0.72049891  1  0  0.577307  0  3.889321  0  0  0.527225  0  4.172657  0  0  0.556534  0  4.174822  0  0  0.228637  0.507568  0  4.170511  0
C  C48  1  0.67886815  0.03303810  0.70045716  1  0  0.130019  0  3.666468  0  0  0.096079  0  3.91571  0  0  0.102653  0  3.93491  0  0  0.049101  0.091895  0  3.902655  0
C  C49  1  0.32113279  0.96696333  0.29954862  1  0  0.129964  0  3.666468  0  0  0.096049  0  3.915758  0  0  0.102613  0  3.934958  0  0  0.049104  0.091861  0  3.902704  0
C  C50  1  0.70607885  0.94992974  0.62349753  1  0  -0.106589  0  3.636604  0  0  -0.130003  0  3.881345  0  0  -0.135491  0  3.902702  0  0  -0.070987  -0.126365  0  3.867145  0
C  C51  1  0.29392452  0.05007464  0.37650402  1  0  -0.106682  0  3.636825  0  0  -0.130038  0  3.881474  0  0  -0.135538  0  3.902818  0  0  -0.071049  -0.126418  0  3.867275  0
C  C52  1  0.58900281  0.89398853  0.61074322  1  0  0.003093  0  3.690923  0  0  0.026045  0  3.9154  0  0  0.024562  0  3.935022  0  0  0.014152  0.02739  0  3.9022  0
C  C53  1  0.41099796  0.10602388  0.38925396  1  0  0.002993  0  3.691138  0  0  0.026073  0  3.915552  0  0  0.024586  0  3.935177  0  0  0.014242  0.027445  0  3.902314  0
C  C54  1  0.44844338  0.92446010  0.67615157  1  0  -0.110415  0  3.702867  0  0  -0.132983  0  3.947326  0  0  -0.13764  0  3.96883  0  0  -0.073887  -0.12988  0  3.932926  0
C  C55  1  0.55155472  0.07554635  0.32385173  1  0  -0.110283  0  3.702749  0  0  -0.132963  0  3.947311  0  0  -0.137622  0  3.968821  0  0  -0.073842  -0.12986  0  3.932891  0
C  C56  1  0.42976725  0.00715243  0.75176003  1  0  0.107192  0  3.719625  0  0  0.076383  0  3.963171  0  0  0.081896  0  3.983578  0  0  0.040279  0.07243  0  3.949794  0
C  C57  1  0.57023125  0.99284607  0.24825085  1  0  0.107038  0  3.719493  0  0  0.076246  0  3.963099  0  0  0.081749  0  3.983497  0  0  0.04024  0.072297  0  3.949714  0
C  C58  1  0.60193672  0.80245584  0.53111949  1  0  0.60029  0  3.85111  0  0  0.551765  0  4.131696  0  0  0.581486  0  4.132476  0  0  0.243785  0.531388  0  4.130739  0
C  C59  1  0.39807099  0.19754850  0.46887994  1  0  0.600412  0  3.850891  0  0  0.551751  0  4.131668  0  0  0.581478  0  4.132437  0  0  0.243763  0.531366  0  4.130708  0
C  C60  1  0.06800227  0.74806146  0.55464817  1  0  0.647443  0  3.931796  0  0  0.593138  0  4.236879  0  0  0.626335  0  4.229993  0  0  0.199905  0.570841  0  4.240679  0
C  C61  1  0.93200092  0.25193859  0.44534442  1  0  0.647385  0  3.931891  0  0  0.59307  0  4.236954  0  0  0.626268  0  4.230073  0  0  0.19986  0.570775  0  4.240745  0
C  C62  1  0.07821899  0.76003149  0.67789630  1  0  -0.093327  0  3.726372  0  0  -0.078646  0  3.962593  0  0  -0.084949  0  3.983109  0  0  -0.024058  -0.074659  0  3.948575  0
C  C63  1  0.92178538  0.23996953  0.32209392  1  0  -0.093548  0  3.726643  0  0  -0.078757  0  3.96268  0  0  -0.085054  0  3.983191  0  0  -0.024078  -0.074768  0  3.948651  0
C  C64  1  0.04600441  0.88208703  0.70428051  1  0  -0.084986  0  3.751296  0  0  -0.108887  0  4.004179  0  0  -0.108557  0  4.024263  0  0  -0.094945  -0.109151  0  3.990557  0
C  C65  1  0.95399732  0.11790913  0.29571892  1  0  -0.085005  0  3.751449  0  0  -0.108891  0  4.004264  0  0  -0.108563  0  4.024342  0  0  -0.094972  -0.109144  0  3.990649  0
C  C66  1  0.04756362  0.89629856  0.81957943  1  0  -0.109888  0  3.829101  0  0  -0.119717  0  4.078451  0  0  -0.123326  0  4.099921  0  0  -0.107527  -0.116625  0  4.063346  0
C  C67  1  0.95244978  0.10369456  0.18041929  1  0  -0.110011  0  3.829073  0  0  -0.119799  0  4.07842  0  0  -0.123403  0  4.09989  0  0  -0.107542  -0.116706  0  4.06331  0
C  C68  1  0.07932584  0.78631074  0.91166556  1  0  -0.07722  0  3.799979  0  0  -0.091157  0  4.051497  0  0  -0.090878  0  4.070904  0  0  -0.099233  -0.091446  0  4.039584  0
C  C69  1  0.92068204  0.21368026  0.08833111  1  0  -0.077163  0  3.799877  0  0  -0.091105  0  4.051388  0  0  -0.090828  0  4.070795  0  0  -0.099168  -0.0914  0  4.039481  0
C  C70  1  0.11277293  0.66488310  0.88566342  1  0  -0.09791  0  3.729009  0  0  -0.117583  0  3.978657  0  0  -0.120406  0  3.998806  0  0  -0.097496  -0.116724  0  3.967752  0
C  C71  1  0.88722333  0.33511084  0.11432967  1  0  -0.097782  0  3.728957  0  0  -0.11747  0  3.978617  0  0  -0.120282  0  3.998762  0  0  -0.097494  -0.116629  0  3.9677  0
C  C72  1  0.11416052  0.64978872  0.76906985  1  0  -0.049872  0  3.679944  0  0  -0.033249  0  3.910928  0  0  -0.0337  0  3.927347  0  0  -0.008601  -0.03317  0  3.900805  0
C  C73  1  0.88584149  0.35020918  0.23091858  1  0  -0.049778  0  3.679939  0  0  -0.03314  0  3.910889  0  0  -0.033601  0  3.927318  0  0  -0.008574  -0.033063  0  3.900766  0
C  C74  1  0.13699538  0.50904225  0.75670097  1  0  0.657492  0  3.95257  0  0  0.602151  0  4.260514  0  0  0.636524  0  4.251796  0  0  0.192847  0.57876  0  4.264933  0
C  C75  1  0.86300720  0.49096149  0.24327681  1  0  0.657471  0  3.952753  0  0  0.602021  0  4.260876  0  0  0.636397  0  4.252158  0  0  0.192771  0.578632  0  4.265289  0
N  N76  1  0.44119197  0.27991993  0.02392508  1  0  -0.294257  0  3.405439  0  0  -0.195726  0  3.67573  0  0  -0.216396  0  3.696009  0  0  -0.358807  -0.181524  0  3.661395  0
N  N77  1  0.55880659  0.72007843  0.97608063  1  0  -0.294128  0  3.405296  0  0  -0.19565  0  3.675606  0  0  -0.216324  0  3.69589  0  0  -0.358736  -0.181445  0  3.661272  0
N  N78  1  0.54313055  0.06059782  0.76476282  1  0  -0.304701  0  3.441322  0  0  -0.207374  0  3.72301  0  0  -0.226798  0  3.740055  0  0  -0.360881  -0.193861  0  3.711028  0
N  N79  1  0.45687043  0.93940352  0.23523952  1  0  -0.304486  0  3.441251  0  0  -0.207208  0  3.722979  0  0  -0.226599  0  3.739993  0  0  -0.360809  -0.193697  0  3.710998  0
N  N80  1  0.18442658  0.56444568  0.31101473  1  0  -0.663752  0  3.082202  0  0  -0.617467  0  3.307295  0  0  -0.641968  0  3.301427  0  0  -0.553769  -0.600253  0  3.310772  0
N  N81  1  0.81557147  0.43555850  0.68897979  1  0  -0.66377  0  3.082339  0  0  -0.617498  0  3.307417  0  0  -0.641986  0  3.301573  0  0  -0.55385  -0.600284  0  3.310892  0
N  N82  1  0.73258364  0.76325917  0.47269752  1  0  -0.660028  0  3.070292  0  0  -0.614978  0  3.294541  0  0  -0.639298  0  3.289417  0  0  -0.544818  -0.597876  0  3.29779  0
N  N83  1  0.26742255  0.23674024  0.52730823  1  0  -0.660114  0  3.070086  0  0  -0.615018  0  3.294396  0  0  -0.639336  0  3.289269  0  0  -0.544776  -0.597917  0  3.297649  0
O  O84  1  0.41395119  0.53995670  0.31914306  1  0  -0.60964  0  2.139741  0  0  -0.541159  0  2.431845  0  0  -0.569594  0  2.418901  0  0  -0.3162  -0.521894  0  2.441385  0
O  O85  1  0.58604002  0.46004470  0.68086297  1  0  -0.609619  0  2.139807  0  0  -0.541162  0  2.431829  0  0  -0.569595  0  2.418894  0  0  -0.316244  -0.521896  0  2.441368  0
O  O86  1  0.48651213  0.76927516  0.52254683  1  0  -0.583963  0  2.098801  0  0  -0.523517  0  2.376675  0  0  -0.550338  0  2.367336  0  0  -0.306784  -0.504671  0  2.382647  0
O  O87  1  0.51349205  0.23072628  0.47745887  1  0  -0.583922  0  2.098604  0  0  -0.523507  0  2.37663  0  0  -0.550328  0  2.367287  0  0  -0.306803  -0.504664  0  2.382602  0
O  O88  1  0.02222119  0.43408431  0.79647886  1  0  -0.647263  0  1.961826  0  0  -0.592205  0  2.186082  0  0  -0.61938  0  2.177345  0  0  -0.333924  -0.571143  0  2.190318  0
O  O89  1  0.97777665  0.56591561  0.20350928  1  0  -0.647237  0  1.961932  0  0  -0.592152  0  2.186234  0  0  -0.619326  0  2.177497  0  0  -0.333842  -0.571089  0  2.190466  0
O  O90  1  0.26574654  0.47214704  0.71838262  1  0  -0.661501  0  1.996681  0  0  -0.604534  0  2.264306  0  0  -0.631529  0  2.248001  0  0  -0.353241  -0.583805  0  2.27469  0
O  O91  1  0.73425215  0.52784869  0.28160142  1  0  -0.661519  0  1.996809  0  0  -0.604514  0  2.26448  0  0  -0.631513  0  2.24818  0  0  -0.35326  -0.583785  0  2.274863  0
O  O92  1  0.14021042  0.65845557  0.51121776  1  0  -0.645266  0  2.075294  0  0  -0.579574  0  2.325011  0  0  -0.606782  0  2.313371  0  0  -0.326118  -0.560875  0  2.332448  0
O  O93  1  0.85979442  0.34155149  0.48876955  1  0  -0.645154  0  2.075168  0  0  -0.579517  0  2.324938  0  0  -0.606713  0  2.313279  0  0  -0.326119  -0.560818  0  2.332372  0
O  O94  1  0.98858404  0.82720070  0.50124698  1  0  -0.654566  0  1.996686  0  0  -0.596928  0  2.225697  0  0  -0.620813  0  2.216036  0  0  -0.332838  -0.580207  0  2.231894  0
O  O95  1  0.01141180  0.17280360  0.49875247  1  0  -0.654564  0  1.996695  0  0  -0.59693  0  2.225717  0  0  -0.620818  0  2.216057  0  0  -0.332823  -0.580217  0  2.231923  0
