# generated using pymatgen
data_MoH15C15NO4
_symmetry_space_group_name_H-M   'P 1'
_cell_length_a   7.77798773
_cell_length_b   11.83198863
_cell_length_c   19.01300000
_cell_angle_alpha   90.00000000
_cell_angle_beta   90.00000000
_cell_angle_gamma   96.85695615
_symmetry_Int_Tables_number   1
_chemical_formula_structural   MoH15C15NO4
_chemical_formula_sum   'Mo4 H60 C60 N4 O16'
_cell_volume   1737.23316485
_cell_formula_units_Z   4
loop_
 _symmetry_equiv_pos_site_id
 _symmetry_equiv_pos_as_xyz
  1  'x, y, z'
loop_
 _atom_site_type_symbol
 _atom_site_label
 _atom_site_symmetry_multiplicity
 _atom_site_fract_x
 _atom_site_fract_y
 _atom_site_fract_z
 _atom_site_occupancy
 _atom_site_hle17_bader_spin_density
 _atom_site_hle17_ddec_charge
 _atom_site_hle17_ddec_spin_density
 _atom_site_hle17_ddec_sum_bond_order
 _atom_site_hle17_magmom
 _atom_site_hse06_10hf_bader_spin_density
 _atom_site_hse06_10hf_ddec_charge
 _atom_site_hse06_10hf_ddec_spin_density
 _atom_site_hse06_10hf_ddec_sum_bond_order
 _atom_site_hse06_10hf_magmom
 _atom_site_hse06_bader_spin_density
 _atom_site_hse06_ddec_charge
 _atom_site_hse06_ddec_spin_density
 _atom_site_hse06_ddec_sum_bond_order
 _atom_site_hse06_magmom
 _atom_site_pbe_bader_charge
 _atom_site_pbe_bader_spin_density
 _atom_site_pbe_cm5_charge
 _atom_site_pbe_ddec_charge
 _atom_site_pbe_ddec_spin_density
 _atom_site_pbe_ddec_sum_bond_order
 _atom_site_pbe_magmom
Mo  Mo0  1  0.76215264  0.51620202  0.14933098  1  0  2.095205  0  4.108627  0  0  2.096505  0  4.635288  0  0  2.197542  0  4.605024  0  2.622061  0  1.581579  2.023934  0  4.662049  0
Mo  Mo1  1  0.23784531  0.48379729  0.64933098  1  0  2.095239  0  4.108597  0  0  2.09649  0  4.635332  0  0  2.197541  0  4.605046  0  2.622103  0  1.581618  2.02392  0  4.662098  0
Mo  Mo2  1  0.25556718  0.48706100  0.15179982  1  0  2.100398  0  4.105421  0  0  2.100634  0  4.63373  0  0  2.201958  0  4.602782  0  2.621528  0  1.583999  2.028208  0  4.660421  0
Mo  Mo3  1  0.74442950  0.51293831  0.65179772  1  0  2.100598  0  4.105124  0  0  2.100887  0  4.633349  0  0  2.202206  0  4.602414  0  2.62167  0  1.584115  2.028498  0  4.659986  0
H  H4  1  0.82268217  0.57758944  0.37588755  1  0  0.117728  0  0.95151  0  0  0.12971  0  1.005788  0  0  0.132768  0  1.005838  0  0.105488  0  0.107751  0.12755  0  1.005905  0
H  H5  1  0.17731867  0.42241157  0.87588545  1  0  0.117781  0  0.9515  0  0  0.129768  0  1.005756  0  0  0.132828  0  1.005803  0  0.105461  0  0.10774  0.127595  0  1.005889  0
H  H6  1  0.95825544  0.47671910  0.47296797  1  0  0.11086  0  0.960382  0  0  0.120474  0  1.021835  0  0  0.124154  0  1.018604  0  0.109951  0  0.108329  0.117816  0  1.024123  0
H  H7  1  0.04174365  0.52327936  0.97296639  1  0  0.110886  0  0.96054  0  0  0.12047  0  1.022013  0  0  0.124148  0  1.018784  0  0.110113  0  0.108312  0.117811  0  1.024299  0
H  H8  1  0.12019401  0.32879563  0.51240151  1  0  0.105405  0  0.97266  0  0  0.111213  0  1.042929  0  0  0.114579  0  1.040484  0  0.108213  0  0.10286  0.108756  0  1.044769  0
H  H9  1  0.87980750  0.67120198  0.01239994  1  0  0.10546  0  0.972708  0  0  0.111312  0  1.042914  0  0  0.114679  0  1.040468  0  0.108213  0  0.102875  0.108851  0  1.044764  0
H  H10  1  0.25288614  0.15164261  0.49038079  1  0  0.083989  0  0.960414  0  0  0.09735  0  1.016591  0  0  0.100042  0  1.015745  0  0.066007  0  0.098569  0.095412  0  1.017334  0
H  H11  1  0.74711762  0.84835330  0.99037921  1  0  0.083877  0  0.960511  0  0  0.097281  0  1.016643  0  0  0.09997  0  1.0158  0  0.066038  0  0.098536  0.095341  0  1.017388  0
H  H12  1  0.21243244  0.05481743  0.37342502  1  0  0.085779  0  0.944778  0  0  0.100275  0  0.996622  0  0  0.102901  0  0.995819  0  0.075186  0  0.100597  0.098384  0  0.997225  0
H  H13  1  0.78757694  0.94518102  0.87342292  1  0  0.085766  0  0.944799  0  0  0.100267  0  0.996634  0  0  0.102892  0  0.995832  0  0.075197  0  0.100632  0.098378  0  0.997236  0
H  H14  1  0.05498810  0.13707508  0.27915847  1  0  0.087524  0  0.961929  0  0  0.100039  0  1.018758  0  0  0.10278  0  1.01759  0  0.047172  0  0.098562  0.098075  0  1.019647  0
H  H15  1  0.94500801  0.86293530  0.77915847  1  0  0.087622  0  0.961844  0  0  0.099995  0  1.018819  0  0  0.102737  0  1.017651  0  0.047092  0  0.098523  0.09803  0  1.019708  0
H  H16  1  0.89638315  0.19510174  0.21479987  1  0  0.057393  0  0.959253  0  0  0.071123  0  1.022623  0  0  0.073343  0  1.017711  0  0.077741  0  0.115597  0.069447  0  1.026107  0
H  H17  1  0.10362191  0.80489416  0.71480145  1  0  0.05724  0  0.959319  0  0  0.071001  0  1.02266  0  0  0.073216  0  1.017753  0  0.077517  0  0.115596  0.069327  0  1.026142  0
H  H18  1  0.79867002  0.33059944  0.98811024  1  0  0.064594  0  0.926585  0  0  0.080452  0  0.986485  0  0  0.079704  0  0.987545  0  0.084345  0  0.105203  0.080891  0  0.98583  0
H  H19  1  0.20132393  0.66939902  0.48810866  1  0  0.06457  0  0.926611  0  0  0.080397  0  0.986537  0  0  0.079646  0  0.9876  0  0.084184  0  0.105196  0.080835  0  0.985881  0
H  H20  1  0.99407980  0.35569785  0.03859044  1  0  0.06317  0  0.926755  0  0  0.076412  0  0.993252  0  0  0.0758  0  0.993336  0  0.068725  0  0.104638  0.076756  0  0.993276  0
H  H21  1  0.00592330  0.64430146  0.53858991  1  0  0.063176  0  0.926791  0  0  0.076419  0  0.993266  0  0  0.075807  0  0.993348  0  0.068735  0  0.104645  0.076764  0  0.993289  0
H  H22  1  0.63600930  0.25525569  0.08951034  1  0  0.061288  0  0.893985  0  0  0.078843  0  0.946325  0  0  0.078262  0  0.947347  0  0.046832  0  0.115417  0.079121  0  0.945767  0
H  H23  1  0.36399061  0.74474021  0.58951296  1  0  0.0613  0  0.893981  0  0  0.078854  0  0.946321  0  0  0.078275  0  0.947344  0  0.046711  0  0.115417  0.079129  0  0.945766  0
H  H24  1  0.99080075  0.16859025  0.10264871  1  0  0.079237  0  0.931107  0  0  0.097798  0  0.990089  0  0  0.098654  0  0.990082  0  0.074596  0  0.094105  0.09709  0  0.990242  0
H  H25  1  0.00919993  0.83140991  0.60264714  1  0  0.079233  0  0.93114  0  0  0.0978  0  0.990121  0  0  0.098656  0  0.990114  0  0.074388  0  0.094111  0.097091  0  0.990273  0
H  H26  1  0.78991944  0.09509457  0.13013044  1  0  0.062542  0  0.923866  0  0  0.082173  0  0.97839  0  0  0.082552  0  0.978773  0  0.008764  0  0.089872  0.081823  0  0.978233  0
H  H27  1  0.21007883  0.90490644  0.63013044  1  0  0.062547  0  0.923841  0  0  0.082172  0  0.978378  0  0  0.082559  0  0.97875  0  0.008771  0  0.089862  0.081812  0  0.978232  0
H  H28  1  0.68491858  0.09041863  0.00286593  1  0  0.093231  0  0.952761  0  0  0.113344  0  1.015614  0  0  0.114349  0  1.016649  0  0.017627  0  0.084472  0.112612  0  1.01492  0
H  H29  1  0.31507876  0.90957727  0.50286436  1  0  0.093299  0  0.952824  0  0  0.113421  0  1.015651  0  0  0.114424  0  1.016688  0  0.017626  0  0.08451  0.112689  0  1.01496  0
H  H30  1  0.89414369  0.15317401  0.97665913  1  0  0.094435  0  0.955323  0  0  0.116469  0  1.014841  0  0  0.117633  0  1.015568  0  0.044481  0  0.087489  0.115637  0  1.014357  0
H  H31  1  0.10585555  0.84682529  0.47665808  1  0  0.094527  0  0.9553  0  0  0.116545  0  1.014829  0  0  0.117709  0  1.015554  0  0.044444  0  0.087524  0.115713  0  1.014347  0
H  H32  1  0.86931708  0.01747627  0.01637616  1  0  0.089596  0  0.979156  0  0  0.109231  0  1.044803  0  0  0.110125  0  1.045475  0  0.031676  0  0.083809  0.108546  0  1.044387  0
H  H33  1  0.13068458  0.98252219  0.51637301  1  0  0.089534  0  0.97925  0  0  0.10919  0  1.044874  0  0  0.110084  0  1.045547  0  0.031629  0  0.083829  0.108513  0  1.044455  0
H  H34  1  0.33399181  0.40958571  0.37407037  1  0  0.116953  0  0.959999  0  0  0.128368  0  1.016143  0  0  0.131174  0  1.016652  0  0.091287  0  0.107374  0.126395  0  1.015924  0
H  H35  1  0.66600147  0.59041615  0.87406827  1  0  0.116978  0  0.959871  0  0  0.128416  0  1.015992  0  0  0.131223  0  1.016499  0  0.091233  0  0.107417  0.126444  0  1.015775  0
H  H36  1  0.47053741  0.51792241  0.47640036  1  0  0.106603  0  0.961726  0  0  0.117071  0  1.022857  0  0  0.120436  0  1.019897  0  0.113215  0  0.108454  0.114623  0  1.025014  0
H  H37  1  0.52946405  0.48208201  0.97640141  1  0  0.106524  0  0.961717  0  0  0.117016  0  1.02286  0  0  0.120361  0  1.019919  0  0.113239  0  0.108462  0.114591  0  1.024949  0
H  H38  1  0.63042859  0.68430790  0.52584390  1  0  0.109136  0  0.965587  0  0  0.115174  0  1.03474  0  0  0.118876  0  1.031688  0  0.113494  0  0.102049  0.11248  0  1.03701  0
H  H39  1  0.36958172  0.31569566  0.02584442  1  0  0.109086  0  0.965578  0  0  0.115136  0  1.034727  0  0  0.118838  0  1.03167  0  0.113435  0  0.102045  0.112442  0  1.036997  0
H  H40  1  0.77281874  0.88204427  0.51387314  1  0  0.086542  0  0.96591  0  0  0.09915  0  1.024389  0  0  0.101576  0  1.02414  0  0.109023  0  0.099309  0.097429  0  1.024656  0
H  H41  1  0.22718385  0.11795929  0.01387051  1  0  0.086615  0  0.965947  0  0  0.099208  0  1.024432  0  0  0.101633  0  1.024181  0  0.109037  0  0.09934  0.09749  0  1.024692  0
H  H42  1  0.76650186  0.98202590  0.39789670  1  0  0.084717  0  0.958806  0  0  0.096041  0  1.01847  0  0  0.098232  0  1.018374  0  0.075963  0  0.097629  0.094502  0  1.018505  0
H  H43  1  0.23349127  0.01797511  0.89789460  1  0  0.084792  0  0.958623  0  0  0.096079  0  1.018332  0  0  0.09827  0  1.018238  0  0.076011  0  0.097655  0.094537  0  1.018375  0
H  H44  1  0.62258841  0.88743868  0.29664913  1  0  0.082675  0  0.96934  0  0  0.094319  0  1.027852  0  0  0.097051  0  1.026571  0  0.043029  0  0.095217  0.092341  0  1.0289  0
H  H45  1  0.37740456  0.11256148  0.79664966  1  0  0.082672  0  0.969288  0  0  0.094316  0  1.027795  0  0  0.097046  0  1.026516  0  0.0431  0  0.095209  0.092334  0  1.02885  0
H  H46  1  0.51673363  0.80432638  0.21904276  1  0  0.059482  0  0.933737  0  0  0.075439  0  0.993037  0  0  0.077927  0  0.987582  0  0.07757  0  0.11698  0.073522  0  0.997006  0
H  H47  1  0.48326191  0.19567378  0.71904171  1  0  0.059513  0  0.933649  0  0  0.075462  0  0.992971  0  0  0.077953  0  0.987513  0  0.07755  0  0.116984  0.073545  0  0.996941  0
H  H48  1  0.54186174  0.63081077  0.03984221  1  0  0.056163  0  0.949054  0  0  0.063136  0  1.026528  0  0  0.062707  0  1.026129  0  0.066922  0  0.100934  0.063392  0  1.026799  0
H  H49  1  0.45814023  0.36918939  0.53984169  1  0  0.056197  0  0.949033  0  0  0.063172  0  1.026491  0  0  0.062741  0  1.026096  0  0.066937  0  0.100945  0.063428  0  1.026761  0
H  H50  1  0.36760547  0.67991542  0.99219955  1  0  0.066086  0  0.920076  0  0  0.084714  0  0.975279  0  0  0.084246  0  0.975804  0  0.073865  0  0.106058  0.084933  0  0.97504  0
H  H51  1  0.63239475  0.32008218  0.49220113  1  0  0.066129  0  0.920073  0  0  0.084749  0  0.975274  0  0  0.084281  0  0.975799  0  0.073885  0  0.106072  0.084969  0  0.975032  0
H  H52  1  0.50926988  0.79776916  0.10236102  1  0  0.043682  0  0.903655  0  0  0.060218  0  0.957831  0  0  0.060512  0  0.957326  0  0.032178  0  0.106409  0.05986  0  0.95839  0
H  H53  1  0.49073209  0.20223100  0.60236154  1  0  0.043696  0  0.90367  0  0  0.060228  0  0.957842  0  0  0.060529  0  0.957343  0  0.032175  0  0.106417  0.059872  0  0.958399  0
H  H54  1  0.11437677  0.73816852  0.09091096  1  0  0.092143  0  0.932115  0  0  0.109134  0  0.991691  0  0  0.110584  0  0.99138  0  0.069991  0  0.096812  0.108001  0  0.992099  0
H  H55  1  0.88562664  0.26183249  0.59091201  1  0  0.092124  0  0.93213  0  0  0.10913  0  0.991698  0  0  0.110576  0  0.991394  0  0.069971  0  0.096793  0.107997  0  0.992106  0
H  H56  1  0.21836421  0.84754801  0.14388892  1  0  0.068772  0  0.914934  0  0  0.089242  0  0.966723  0  0  0.089514  0  0.967562  0  0.026852  0  0.091152  0.088983  0  0.96619  0
H  H57  1  0.78164033  0.15245215  0.64388839  1  0  0.068741  0  0.914992  0  0  0.089235  0  0.966765  0  0  0.089511  0  0.967603  0  0.026854  0  0.091166  0.088976  0  0.96623  0
H  H58  1  0.36363049  0.94386413  0.03704834  1  0  0.083171  0  0.958722  0  0  0.103945  0  1.021921  0  0  0.104848  0  1.02249  0  0.018549  0  0.080672  0.103277  0  1.021545  0
H  H59  1  0.63637745  0.05613347  0.53704676  1  0  0.083136  0  0.958683  0  0  0.103903  0  1.021903  0  0  0.104807  0  1.02247  0  0.018186  0  0.080657  0.103234  0  1.021529  0
H  H60  1  0.25392899  0.83697372  0.98219955  1  0  0.088365  0  0.968496  0  0  0.108538  0  1.032242  0  0  0.109491  0  1.033398  0  0.016159  0  0.083691  0.107823  0  1.031492  0
H  H61  1  0.74607509  0.16302389  0.48220007  1  0  0.088366  0  0.968499  0  0  0.10854  0  1.032243  0  0  0.109494  0  1.033399  0  0.016167  0  0.083691  0.107824  0  1.031494  0
H  H62  1  0.13414281  0.92855771  0.02982854  1  0  0.092622  0  0.965391  0  0  0.116946  0  1.023093  0  0  0.117269  0  1.024783  0  0.049862  0  0.086456  0.116653  0  1.02198  0
H  H63  1  0.86585628  0.07144074  0.52982696  1  0  0.092668  0  0.965446  0  0  0.116989  0  1.023145  0  0  0.117314  0  1.024835  0  0.049682  0  0.086488  0.116696  0  1.022033  0
C  C64  1  0.90321961  0.33854591  0.28536528  1  0  -0.154673  0  3.747116  0  0  -0.151722  0  4.001665  0  0  -0.166696  0  4.026245  0  0.042708  0  -0.030171  -0.142124  0  3.985274  0
C  C65  1  0.09677351  0.66145510  0.78536422  1  0  -0.154609  0  3.747069  0  0  -0.151676  0  4.00166  0  0  -0.166644  0  4.026199  0  0.041891  0  -0.030186  -0.142079  0  3.985272  0
C  C66  1  0.85061705  0.44660509  0.29933993  1  0  0.376568  0  3.773522  0  0  0.364052  0  4.036051  0  0  0.385022  0  4.045677  0  0.516754  0  0.107849  0.349941  0  4.029206  0
C  C67  1  0.14937108  0.55339677  0.79934203  1  0  0.376506  0  3.773629  0  0  0.363966  0  4.036153  0  0  0.384962  0  4.045733  0  0.516713  0  0.107826  0.34985  0  4.029314  0
C  C68  1  0.86940032  0.49541181  0.36759586  1  0  -0.175516  0  3.711197  0  0  -0.194674  0  3.962454  0  0  -0.203314  0  3.98068  0  0.041605  0  -0.096202  -0.189151  0  3.950247  0
C  C69  1  0.13059862  0.50458579  0.86759533  1  0  -0.175673  0  3.711191  0  0  -0.194795  0  3.962376  0  0  -0.203446  0  3.980593  0  0.041716  0  -0.096259  -0.18926  0  3.950181  0
C  C70  1  0.94460738  0.44009640  0.42045285  1  0  -0.048091  0  3.713465  0  0  -0.074024  0  3.969361  0  0  -0.069927  0  3.985794  0  -0.087573  0  -0.072942  -0.076375  0  3.95807  0
C  C71  1  0.05538399  0.55990206  0.92046021  1  0  -0.047986  0  3.713547  0  0  -0.073933  0  3.96937  0  0  -0.069838  0  3.985805  0  -0.08769  0  -0.072815  -0.07628  0  3.958073  0
C  C72  1  0.01073675  0.33490679  0.40816547  1  0  0.029377  0  3.798921  0  0  0.043422  0  4.033766  0  0  0.039775  0  4.058033  0  -0.026678  0  -0.013748  0.045568  0  4.017396  0
C  C73  1  0.98927458  0.66508826  0.90816441  1  0  0.02942  0  3.799071  0  0  0.043542  0  4.03381  0  0  0.039897  0  4.05808  0  -0.026892  0  -0.013762  0.045688  0  4.01744  0
C  C74  1  0.10449285  0.28588045  0.46162363  1  0  -0.095131  0  3.718626  0  0  -0.114836  0  3.970956  0  0  -0.114862  0  3.990873  0  0.020431  0  -0.084467  -0.114542  0  3.95743  0
C  C75  1  0.89550063  0.71411545  0.96162415  1  0  -0.095233  0  3.718715  0  0  -0.115011  0  3.971049  0  0  -0.115039  0  3.990966  0  0.020481  0  -0.084472  -0.114719  0  3.957525  0
C  C76  1  0.17801114  0.18728041  0.44925577  1  0  -0.089672  0  3.811329  0  0  -0.105898  0  4.066773  0  0  -0.110179  0  4.089593  0  -0.166722  0  -0.100512  -0.103136  0  4.051235  0
C  C77  1  0.82199921  0.81271635  0.94924946  1  0  -0.089632  0  3.811753  0  0  -0.105887  0  4.06718  0  0  -0.110167  0  4.090003  0  -0.166609  0  -0.10055  -0.103123  0  4.051637  0
C  C78  1  0.15550859  0.13325039  0.38321464  1  0  -0.069431  0  3.815225  0  0  -0.084416  0  4.068865  0  0  -0.084469  0  4.091064  0  -0.07429  0  -0.093832  -0.084046  0  4.053534  0
C  C79  1  0.84448999  0.86675233  0.88321412  1  0  -0.069276  0  3.815135  0  0  -0.084265  0  4.068737  0  0  -0.084317  0  4.090934  0  -0.074322  0  -0.093801  -0.083896  0  4.053401  0
C  C80  1  0.06408736  0.17950930  0.33010782  1  0  -0.130309  0  3.7637  0  0  -0.150809  0  4.015094  0  0  -0.156108  0  4.03794  0  -0.018671  0  -0.097589  -0.147355  0  3.999524  0
C  C81  1  0.93591620  0.82049256  0.83010098  1  0  -0.130365  0  3.763509  0  0  -0.150744  0  4.014891  0  0  -0.156042  0  4.037735  0  -0.018753  0  -0.097563  -0.14729  0  3.999321  0
C  C82  1  0.99020778  0.28245414  0.34021617  1  0  0.049172  0  3.75381  0  0  0.057919  0  3.986635  0  0  0.061297  0  4.012452  0  0.009526  0  -0.000967  0.055898  0  3.969182  0
C  C83  1  0.00980026  0.71755112  0.84021985  1  0  0.048974  0  3.754069  0  0  0.057701  0  3.986847  0  0  0.061071  0  4.012666  0  0.009462  0  -0.001003  0.055682  0  3.969389  0
C  C84  1  0.86941475  0.28356078  0.21837743  1  0  0.19748  0  3.702672  0  0  0.153914  0  3.968267  0  0  0.173482  0  3.976168  0  0.625705  0  0.081091  0.141054  0  3.962514  0
C  C85  1  0.13058516  0.71643512  0.71837480  1  0  0.197667  0  3.702698  0  0  0.154089  0  3.968306  0  0  0.173659  0  3.976193  0  0.627113  0  0.081156  0.141232  0  3.962555  0
C  C86  1  0.85186949  0.35392809  0.04044496  1  0  0.090586  0  3.636515  0  0  0.033821  0  3.913036  0  0  0.043793  0  3.918686  0  0.418947  0  -0.072922  0.027083  0  3.908794  0
C  C87  1  0.14813073  0.64606952  0.54044496  1  0  0.090655  0  3.636668  0  0  0.033944  0  3.913126  0  0  0.043923  0  3.91877  0  0.41909  0  -0.072891  0.027205  0  3.908886  0
C  C88  1  0.77805288  0.26839652  0.09665913  1  0  0.111914  0  3.638622  0  0  0.095761  0  3.889266  0  0  0.098985  0  3.905579  0  0.303069  0  0.000819  0.09364  0  3.878018  0
C  C89  1  0.22194477  0.73160109  0.59665913  1  0  0.111905  0  3.638539  0  0  0.095749  0  3.889175  0  0  0.098963  0  3.905511  0  0.30335  0  0.000809  0.093629  0  3.877926  0
C  C90  1  0.85127635  0.15479395  0.09044864  1  0  -0.114237  0  3.703631  0  0  -0.151728  0  3.963268  0  0  -0.152764  0  3.978162  0  -0.036176  0  -0.163664  -0.150857  0  3.952924  0
C  C91  1  0.14872320  0.84520706  0.59044759  1  0  -0.11422  0  3.703587  0  0  -0.15173  0  3.963257  0  0  -0.152768  0  3.978151  0  -0.035986  0  -0.163668  -0.150852  0  3.952919  0
C  C92  1  0.82276774  0.10136917  0.01753379  1  0  -0.28527  0  3.723916  0  0  -0.357444  0  3.969279  0  0  -0.360007  0  3.980715  0  -0.075373  0  -0.245021  -0.355439  0  3.96133  0
C  C93  1  0.17723263  0.89862928  0.51753221  1  0  -0.285402  0  3.724112  0  0  -0.357583  0  3.969462  0  0  -0.360145  0  3.9809  0  -0.075323  0  -0.245114  -0.355575  0  3.961478  0
C  C94  1  0.45539037  0.66481586  0.29198548  1  0  -0.148395  0  3.740899  0  0  -0.147409  0  3.997318  0  0  -0.162431  0  4.021497  0  0.013013  0  -0.028471  -0.137822  0  3.981191  0
C  C95  1  0.54460306  0.33518685  0.79198548  1  0  -0.148401  0  3.740827  0  0  -0.147411  0  3.997329  0  0  -0.162436  0  4.021508  0  0.013148  0  -0.02845  -0.137823  0  3.981199  0
C  C96  1  0.38240229  0.55077320  0.30240572  1  0  0.37964  0  3.767629  0  0  0.367464  0  4.031449  0  0  0.388993  0  4.040258  0  0.591655  0  0.11016  0.353005  0  4.025173  0
C  C97  1  0.61760097  0.44922696  0.80240677  1  0  0.37973  0  3.767434  0  0  0.367556  0  4.031263  0  0  0.389088  0  4.040067  0  0.591339  0  0.110205  0.353095  0  4.024991  0
C  C98  1  0.39033492  0.49787194  0.36914953  1  0  -0.172211  0  3.708498  0  0  -0.193323  0  3.961461  0  0  -0.201909  0  3.979513  0  -0.025635  0  -0.094533  -0.187877  0  3.949412  0
C  C99  1  0.60966756  0.50212396  0.86915269  1  0  -0.17228  0  3.708901  0  0  -0.193414  0  3.961895  0  0  -0.201998  0  3.979942  0  -0.025509  0  -0.094616  -0.187974  0  3.949853  0
C  C100  1  0.46585928  0.55749641  0.42493399  1  0  -0.048846  0  3.725964  0  0  -0.074461  0  3.982895  0  0  -0.070206  0  3.999154  0  -0.015271  0  -0.071817  -0.076953  0  3.971785  0
C  C101  1  0.53415211  0.44251311  0.92492978  1  0  -0.048748  0  3.725989  0  0  -0.074397  0  3.982952  0  0  -0.070126  0  3.999226  0  -0.015319  0  -0.071846  -0.076883  0  3.971859  0
C  C102  1  0.54260208  0.67200216  0.41767843  1  0  0.028826  0  3.809072  0  0  0.04237  0  4.04416  0  0  0.038815  0  4.068413  0  -0.01441  0  -0.014706  0.044452  0  4.027819  0
C  C103  1  0.45739202  0.32799715  0.91768159  1  0  0.028901  0  3.808701  0  0  0.042467  0  4.043848  0  0  0.038904  0  4.068115  0  -0.01426  0  -0.014566  0.044547  0  4.02751  0
C  C104  1  0.62685583  0.72930270  0.47581865  1  0  -0.105416  0  3.729869  0  0  -0.126291  0  3.984377  0  0  -0.126441  0  4.004073  0  -0.074376  0  -0.088725  -0.125932  0  3.971021  0
C  C105  1  0.37314450  0.27070257  0.97581812  1  0  -0.105408  0  3.729991  0  0  -0.126289  0  3.984508  0  0  -0.126428  0  4.004192  0  -0.074261  0  -0.088808  -0.125932  0  3.971156  0
C  C106  1  0.70700177  0.83919975  0.46899595  1  0  -0.088341  0  3.813133  0  0  -0.106035  0  4.070364  0  0  -0.110328  0  4.093572  0  -0.088655  0  -0.101474  -0.103301  0  4.054655  0
C  C107  1  0.29299505  0.16080041  0.96899963  1  0  -0.08839  0  3.81293  0  0  -0.106074  0  4.070146  0  0  -0.110364  0  4.093349  0  -0.088993  0  -0.101457  -0.10334  0  4.054437  0
C  C108  1  0.70326078  0.89514680  0.40360069  1  0  -0.066445  0  3.806309  0  0  -0.080001  0  4.057478  0  0  -0.079945  0  4.079938  0  -0.021378  0  -0.095037  -0.07973  0  4.042027  0
C  C109  1  0.29674726  0.10485847  0.90360069  1  0  -0.066562  0  3.806267  0  0  -0.080088  0  4.057456  0  0  -0.080036  0  4.079921  0  -0.021273  0  -0.095065  -0.079816  0  4.041998  0
C  C110  1  0.62128377  0.84083246  0.34608478  1  0  -0.136915  0  3.775717  0  0  -0.156619  0  4.023011  0  0  -0.162398  0  4.046715  0  -0.115667  0  -0.101501  -0.152822  0  4.00686  0
C  C111  1  0.37871692  0.15916770  0.84608689  1  0  -0.136933  0  3.775825  0  0  -0.156589  0  4.023123  0  0  -0.162367  0  4.046831  0  -0.115781  0  -0.101542  -0.152788  0  4.006972  0
C  C112  1  0.53915931  0.72726224  0.35063115  1  0  0.050282  0  3.751411  0  0  0.061578  0  3.980924  0  0  0.064763  0  4.007341  0  -0.027993  0  -2e-05  0.059705  0  3.963043  0
C  C113  1  0.46084009  0.27273792  0.85063010  1  0  0.050283  0  3.751199  0  0  0.061491  0  3.980859  0  0  0.064678  0  4.007277  0  -0.027958  0  -5.3e-05  0.059618  0  3.962976  0
C  C114  1  0.45185780  0.71720296  0.22399306  1  0  0.19558  0  3.702321  0  0  0.149799  0  3.974316  0  0  0.17011  0  3.981373  0  0.628447  0  0.08195  0.136479  0  3.969081  0
C  C115  1  0.54813275  0.28279805  0.72399253  1  0  0.19556  0  3.702219  0  0  0.149805  0  3.974264  0  0  0.170117  0  3.981319  0  0.628467  0  0.081978  0.136485  0  3.969027  0
C  C116  1  0.40637920  0.64871947  0.04367170  1  0  0.090909  0  3.638138  0  0  0.033598  0  3.911466  0  0  0.043875  0  3.916719  0  0.421847  0  -0.073949  0.02667  0  3.907482  0
C  C117  1  0.59362004  0.35127983  0.54367222  1  0  0.090779  0  3.638247  0  0  0.033495  0  3.911525  0  0  0.043781  0  3.916786  0  0.421915  0  -0.073984  0.02657  0  3.907538  0
C  C118  1  0.39097158  0.73581906  0.10230106  1  0  0.114908  0  3.642483  0  0  0.100174  0  3.889062  0  0  0.103336  0  3.905081  0  0.322237  0  0.003045  0.098143  0  3.877977  0
C  C119  1  0.60902782  0.26418110  0.60230421  1  0  0.114837  0  3.642617  0  0  0.10015  0  3.889177  0  0  0.103274  0  3.90526  0  0.32224  0  0.003032  0.098119  0  3.878091  0
C  C120  1  0.23154116  0.79986410  0.09479987  1  0  -0.112031  0  3.669978  0  0  -0.14836  0  3.925163  0  0  -0.149754  0  3.939373  0  -0.030908  0  -0.164108  -0.147289  0  3.915317  0
C  C121  1  0.76845793  0.20013436  0.59479935  1  0  -0.112044  0  3.670124  0  0  -0.14842  0  3.92534  0  0  -0.14981  0  3.939576  0  -0.030859  0  -0.164139  -0.147346  0  3.915491  0
C  C122  1  0.24729154  0.88158119  0.03261663  1  0  -0.283976  0  3.750608  0  0  -0.358822  0  3.997872  0  0  -0.361802  0  4.011116  0  -0.081356  0  -0.247698  -0.356522  0  3.988676  0
C  C123  1  0.75271172  0.11841897  0.53261610  1  0  -0.283916  0  3.750649  0  0  -0.358752  0  3.997927  0  0  -0.36173  0  4.011171  0  -0.080848  0  -0.247684  -0.356453  0  3.988734  0
N  N124  1  0.80856742  0.32973712  0.16347026  1  0  -0.405753  0  3.210588  0  0  -0.358914  0  3.484919  0  0  -0.381707  0  3.504836  0  -1.195634  0  -0.366266  -0.343367  0  3.471274  0
N  N125  1  0.19144000  0.67026474  0.66347499  1  0  -0.405818  0  3.210675  0  0  -0.358966  0  3.485022  0  0  -0.38176  0  3.504938  0  -1.195803  0  -0.366347  -0.343422  0  3.471379  0
N  N126  1  0.38116737  0.67038307  0.16781045  1  0  -0.409193  0  3.226267  0  0  -0.363423  0  3.506538  0  0  -0.386923  0  3.527293  0  -1.201559  0  -0.367158  -0.347426  0  3.492166  0
N  N127  1  0.61882915  0.32961539  0.66780992  1  0  -0.409114  0  3.226323  0  0  -0.363426  0  3.506648  0  0  -0.386916  0  3.527414  0  -1.201597  0  -0.367196  -0.347438  0  3.492289  0
O  O128  1  0.53513347  0.47810835  0.14885868  1  0  -0.836142  0  1.774868  0  0  -0.846206  0  2.070337  0  0  -0.883058  0  2.066719  0  -0.949525  0  -0.56249  -0.819537  0  2.073174  0
O  O129  1  0.46485950  0.52189181  0.64886025  1  0  -0.836126  0  1.774835  0  0  -0.846185  0  2.070312  0  0  -0.883041  0  2.066695  0  -0.949528  0  -0.562528  -0.81952  0  2.073146  0
O  O130  1  0.78840519  0.66102522  0.13417293  1  0  -0.672746  0  1.388244  0  0  -0.670237  0  1.616709  0  0  -0.693158  0  1.606814  0  -0.832089  0  -0.524609  -0.654004  0  1.624444  0
O  O131  1  0.21160032  0.33897324  0.63417346  1  0  -0.672774  0  1.388228  0  0  -0.670268  0  1.616715  0  0  -0.693191  0  1.606815  0  -0.832164  0  -0.524638  -0.654034  0  1.624453  0
O  O132  1  0.77792995  0.50756263  0.25169779  1  0  -0.556586  0  2.165456  0  0  -0.521407  0  2.421162  0  0  -0.552482  0  2.420509  0  -1.08626  0  -0.341934  -0.499142  0  2.421324  0
O  O133  1  0.22205896  0.49244349  0.75169779  1  0  -0.556483  0  2.165411  0  0  -0.521274  0  2.421111  0  0  -0.552365  0  2.42045  0  -1.086277  0  -0.341864  -0.499006  0  2.421274  0
O  O134  1  0.80901268  0.46425417  0.05677484  1  0  -0.570636  0  2.056733  0  0  -0.540333  0  2.340247  0  0  -0.571027  0  2.341476  0  -1.014931  0  -0.392526  -0.518352  0  2.339177  0
O  O135  1  0.19099171  0.53574514  0.55677431  1  0  -0.570702  0  2.056786  0  0  -0.540389  0  2.340276  0  0  -0.571084  0  2.341499  0  -1.015042  0  -0.392547  -0.518399  0  2.339193  0
O  O136  1  0.04306109  0.52445239  0.16134487  1  0  -0.838874  0  1.7745  0  0  -0.849312  0  2.069387  0  0  -0.88648  0  2.066266  0  -0.950554  0  -0.562015  -0.822463  0  2.071886  0
O  O137  1  0.95693779  0.47555203  0.66134645  1  0  -0.838972  0  1.774348  0  0  -0.849417  0  2.069233  0  0  -0.886591  0  2.066115  0  -0.95057  0  -0.562063  -0.82258  0  2.071724  0
O  O138  1  0.22513853  0.34318525  0.13401620  1  0  -0.672262  0  1.396382  0  0  -0.670446  0  1.627551  0  0  -0.693409  0  1.617332  0  -0.826356  0  -0.523174  -0.654256  0  1.635389  0
O  O139  1  0.77486200  0.65681406  0.63401410  1  0  -0.6723  0  1.396316  0  0  -0.670502  0  1.627476  0  0  -0.693462  0  1.617254  0  -0.826367  0  -0.523191  -0.654321  0  1.635306  0
O  O140  1  0.30253715  0.48635446  0.25247094  1  0  -0.555386  0  2.169385  0  0  -0.519871  0  2.425949  0  0  -0.551098  0  2.42502  0  -1.094633  0  -0.340032  -0.497636  0  2.426312  0
O  O141  1  0.69746111  0.51364655  0.75247041  1  0  -0.555527  0  2.169385  0  0  -0.519987  0  2.425912  0  0  -0.551212  0  2.424981  0  -1.094639  0  -0.340062  -0.497758  0  2.426273  0
O  O142  1  0.29828955  0.54620877  0.05886288  1  0  -0.562249  0  2.027194  0  0  -0.530338  0  2.304485  0  0  -0.560956  0  2.305339  0  -1.01162  0  -0.392672  -0.508475  0  2.303655  0
O  O143  1  0.70171196  0.45378884  0.55886551  1  0  -0.562205  0  2.02728  0  0  -0.530328  0  2.304594  0  0  -0.560945  0  2.30545  0  -1.011665  0  -0.392664  -0.50847  0  2.303761  0
