# generated using pymatgen
data_CuH20C18(NO)4
_symmetry_space_group_name_H-M   'P 1'
_cell_length_a   7.18279849
_cell_length_b   8.52858299
_cell_length_c   17.12436417
_cell_angle_alpha   77.85748145
_cell_angle_beta   77.90211580
_cell_angle_gamma   65.12637543
_symmetry_Int_Tables_number   1
_chemical_formula_structural   CuH20C18(NO)4
_chemical_formula_sum   'Cu2 H40 C36 N8 O8'
_cell_volume   921.70644829
_cell_formula_units_Z   2
loop_
 _symmetry_equiv_pos_site_id
 _symmetry_equiv_pos_as_xyz
  1  'x, y, z'
loop_
 _atom_site_type_symbol
 _atom_site_label
 _atom_site_symmetry_multiplicity
 _atom_site_fract_x
 _atom_site_fract_y
 _atom_site_fract_z
 _atom_site_occupancy
 _atom_site_hle17_ddec_charge
 _atom_site_hle17_ddec_spin_density
 _atom_site_hle17_ddec_sum_bond_order
 _atom_site_hle17_magmom
 _atom_site_hse06_10hf_ddec_charge
 _atom_site_hse06_10hf_ddec_spin_density
 _atom_site_hse06_10hf_ddec_sum_bond_order
 _atom_site_hse06_10hf_magmom
 _atom_site_hse06_ddec_charge
 _atom_site_hse06_ddec_spin_density
 _atom_site_hse06_ddec_sum_bond_order
 _atom_site_hse06_magmom
 _atom_site_pbe_cm5_charge
 _atom_site_pbe_ddec_charge
 _atom_site_pbe_ddec_spin_density
 _atom_site_pbe_ddec_sum_bond_order
 _atom_site_pbe_magmom
Cu  Cu0  1  0.99999847  0.49999663  0.50000186  1  0.850696  -0.726012  1.778862  -0.509  0.826486  -0.804577  2.159884  -0.618  0.918262  -0.875242  2.088597  -0.697  0.743933  0.768596  -0.755671  2.21098  -0.568
Cu  Cu1  1  0.00000079  0.00000262  0.00000066  1  0.850538  0.725984  1.780964  0.509  0.826674  0.804513  2.161991  0.618  0.918218  0.875174  2.090921  0.697  0.744259  0.769262  0.755638  2.212519  0.569
H  H2  1  0.50112657  0.33478078  0.46534815  1  0.118094  -0.000151  0.978675  0.0  0.124509  -0.000167  1.045546  0.0  0.127618  -0.000132  1.04156  0.0  0.134897  0.122093  -0.000198  1.048486  0.0
H  H3  1  0.30167924  0.16530336  0.03469361  1  0.119065  0.00015  0.978218  0.0  0.124404  0.000167  1.046543  0.0  0.127509  0.000132  1.042588  0.0  0.135057  0.121998  0.000198  1.049471  0.0
H  H4  1  0.49886723  0.66521119  0.53464893  1  0.118048  -0.000151  0.978662  0.0  0.124445  -0.000167  1.045576  0.0  0.127557  -0.000132  1.041587  0.0  0.134847  0.122034  -0.000198  1.048519  0.0
H  H5  1  0.69832080  0.83469778  0.96530517  1  0.119096  0.000149  0.97821  0.0  0.124424  0.000167  1.046547  0.0  0.127528  0.000132  1.042596  0.0  0.135055  0.122018  0.000198  1.049475  0.0
H  H6  1  0.81398584  0.90807445  0.38706563  1  0.0861  -0.000148  0.94482  0.0  0.10049  -0.000153  1.00789  0.0  0.102036  -7e-05  1.007403  0.0  0.108924  0.099236  -0.000238  1.008464  0.0
H  H7  1  0.10941935  0.59196442  0.11308701  1  0.086333  0.000139  0.944905  0.0  0.10076  0.000152  1.007978  0.0  0.102249  6.9e-05  1.007541  0.0  0.108964  0.099558  0.000237  1.008473  0.0
H  H8  1  0.18599988  0.09192009  0.61292677  1  0.086054  -0.00014  0.94466  0.0  0.10045  -0.000153  1.007787  0.0  0.102003  -7e-05  1.007278  0.0  0.108916  0.099189  -0.000238  1.00837  0.0
H  H9  1  0.89058515  0.40803801  0.88691089  1  0.086328  0.000143  0.944918  0.0  0.100733  0.000152  1.007993  0.0  0.102223  6.9e-05  1.00755  0.0  0.108979  0.099532  0.000237  1.00849  0.0
H  H10  1  0.82723478  0.07512113  0.42955073  1  0.066822  1e-05  0.929072  0.0  0.083805  -3.8e-05  0.990085  0.0  0.083924  -2.4e-05  0.990506  0.0  0.109665  0.083576  -5.3e-05  0.989991  0.0
H  H11  1  0.33222886  0.42513830  0.07057883  1  0.06658  -1.4e-05  0.929685  0.0  0.083829  3.7e-05  0.990441  0.0  0.083936  2.4e-05  0.99087  0.0  0.10964  0.083614  5.3e-05  0.990313  0.0
H  H12  1  0.17275699  0.92486433  0.57044756  1  0.066743  1.3e-05  0.929108  0.0  0.083747  -3.8e-05  0.990159  0.0  0.08387  -2.4e-05  0.99056  0.0  0.109669  0.083509  -5.3e-05  0.990073  0.0
H  H13  1  0.66777746  0.57486022  0.92941932  1  0.066535  -1.2e-05  0.929702  0.0  0.083796  3.7e-05  0.990433  0.0  0.08389  2.4e-05  0.990877  0.0  0.109618  0.083582  5.3e-05  0.990304  0.0
H  H14  1  0.44618082  0.96011535  0.35413868  1  0.105963  -0.000493  0.999043  -0.001  0.115224  -0.00039  1.062783  0.0  0.116171  -0.000293  1.064777  0.0  0.115803  0.114403  -0.000467  1.061628  -0.001
H  H15  1  0.76101922  0.53957988  0.14596464  1  0.105624  0.000484  0.999026  0.001  0.114742  0.000389  1.063032  0.0  0.115792  0.000292  1.06491  0.0  0.115822  0.113881  0.000466  1.06192  0.001
H  H16  1  0.55380353  0.03987794  0.64586001  1  0.105909  -0.000492  0.999105  -0.001  0.115199  -0.00039  1.062815  0.0  0.116152  -0.000293  1.064805  0.0  0.115789  0.114378  -0.000467  1.061661  -0.001
H  H17  1  0.23899043  0.46041734  0.85403514  1  0.105638  0.000491  0.99891  0.001  0.114734  0.000389  1.062947  0.0  0.115783  0.000292  1.064828  0.0  0.11582  0.113873  0.000466  1.061837  0.001
H  H18  1  0.05115499  0.19193412  0.41091561  1  0.102973  -0.000228  0.985005  0.0  0.112403  -0.000371  1.046025  -0.001  0.114489  -0.000274  1.045201  0.0  0.115712  0.11073  -0.00045  1.04689  -0.001
H  H19  1  0.65468737  0.30780408  0.08897484  1  0.103231  0.000229  0.984322  0.0  0.1123  0.000372  1.045915  0.001  0.114315  0.000275  1.045147  0.0  0.115591  0.110675  0.000451  1.046713  0.001
H  H20  1  0.94882874  0.80806315  0.58908871  1  0.1029  -0.00023  0.985126  0.0  0.112328  -0.000371  1.046153  -0.001  0.114382  -0.000274  1.045368  0.0  0.115678  0.110655  -0.00045  1.047019  -0.001
H  H21  1  0.34531669  0.69220358  0.91102355  1  0.103345  0.000229  0.984443  0.0  0.112443  0.000371  1.045969  0.001  0.114451  0.000275  1.045199  0.0  0.115683  0.11082  0.000451  1.046768  0.001
H  H22  1  0.88117606  0.75028592  0.24999667  1  0.108313  -0.0  0.958138  0.0  0.117499  1e-06  1.02322  0.0  0.121818  1e-06  1.019325  0.0  0.106926  0.114385  1e-06  1.026056  0.0
H  H23  1  0.11883053  0.24972050  0.75000839  1  0.108372  -0.0  0.958269  0.0  0.117531  1e-06  1.023359  0.0  0.121848  1e-06  1.019467  0.0  0.106931  0.114419  1e-06  1.026194  0.0
H  H24  1  0.38963180  0.58314881  0.36456078  1  0.105994  0.000173  0.954416  0.0  0.112981  0.00013  1.021016  0.0  0.115968  0.000122  1.018589  0.0  0.107633  0.110635  0.000129  1.023055  0.0
H  H25  1  0.33761826  0.91644152  0.13525892  1  0.106151  -0.000173  0.953833  0.0  0.113032  -0.00013  1.020485  0.0  0.116121  -0.000123  1.017919  0.0  0.107431  0.110645  -0.000129  1.022574  0.0
H  H26  1  0.61037395  0.41684841  0.63543863  1  0.106006  0.000171  0.954447  0.0  0.112994  0.00013  1.021052  0.0  0.115978  0.000123  1.018624  0.0  0.107643  0.110646  0.000129  1.02309  0.0
H  H27  1  0.66239317  0.08356356  0.86474343  1  0.106127  -0.00017  0.953878  0.0  0.112986  -0.00013  1.020579  0.0  0.116075  -0.000123  1.018015  0.0  0.107436  0.110596  -0.000129  1.022666  0.0
H  H28  1  0.19037244  0.74965160  0.24989900  1  0.101328  0.0  0.94877  0.0  0.11437  -0.0  1.003127  0.0  0.117722  -0.0  1.001561  0.0  0.106148  0.111961  -0.0  1.004388  0.0
H  H29  1  0.80963785  0.25034953  0.75009949  1  0.101319  -0.0  0.94877  0.0  0.114323  0.0  1.003172  0.0  0.117673  -0.0  1.001608  0.0  0.106117  0.111915  -0.0  1.004433  0.0
H  H30  1  0.99698066  0.07561270  0.28551481  1  0.104094  -5.1e-05  0.952534  0.0  0.128242  -3.8e-05  1.009157  0.0  0.128545  -2.6e-05  1.010966  0.0  0.090492  0.127953  -5e-05  1.007946  0.0
H  H31  1  0.35856673  0.42467498  0.21455552  1  0.104063  5.6e-05  0.954304  0.0  0.128282  3.8e-05  1.010795  0.0  0.128569  2.6e-05  1.012612  0.0  0.090448  0.128006  5e-05  1.00957  0.0
H  H32  1  0.00300993  0.92438975  0.71448559  1  0.104109  -5.4e-05  0.952461  0.0  0.128248  -3.8e-05  1.009103  0.0  0.128551  -2.6e-05  1.010912  0.0  0.090492  0.127957  -5e-05  1.007895  0.0
H  H33  1  0.64143788  0.57532746  0.78544367  1  0.104096  5.5e-05  0.954324  0.0  0.128314  3.8e-05  1.010806  0.0  0.128601  2.6e-05  1.012623  0.0  0.09047  0.128038  5e-05  1.009581  0.0
H  H34  1  0.77385697  0.27279434  0.29625465  1  0.100054  -1e-05  0.967334  0.0  0.116195  -1.1e-05  1.038213  0.0  0.116901  -6e-06  1.039747  0.0  0.085247  0.115626  -1.6e-05  1.037179  0.0
H  H35  1  0.34340860  0.22739612  0.20386772  1  0.099885  1e-05  0.967111  0.0  0.116578  1.1e-05  1.037313  0.0  0.117224  6e-06  1.038902  0.0  0.085537  0.11604  1.5e-05  1.03627  0.0
H  H36  1  0.22613578  0.72720683  0.70374854  1  0.100073  -1.3e-05  0.967332  0.0  0.116206  -1.1e-05  1.038201  0.0  0.116909  -6e-06  1.039749  0.0  0.085263  0.115639  -1.6e-05  1.037169  0.0
H  H37  1  0.65659543  0.77260633  0.79613205  1  0.099857  1.2e-05  0.967102  0.0  0.116553  1.1e-05  1.037301  0.0  0.117199  6e-06  1.038892  0.0  0.085532  0.116014  1.5e-05  1.036257  0.0
H  H38  1  0.76524512  0.10381164  0.25292181  1  0.10303  -1.7e-05  0.9573  0.0  0.123843  -4e-06  1.01972  0.0  0.124812  -6e-06  1.020716  0.0  0.087004  0.123048  -2e-06  1.019124  0.0
H  H39  1  0.12260627  0.39619498  0.24725601  1  0.103883  1.8e-05  0.956855  0.0  0.124313  5e-06  1.019564  0.0  0.125284  6e-06  1.02053  0.0  0.087469  0.123526  2e-06  1.01897  0.0
H  H40  1  0.23474659  0.89620121  0.74707336  1  0.10309  -2e-05  0.957281  0.0  0.123918  -4e-06  1.01965  0.0  0.124888  -6e-06  1.020646  0.0  0.087041  0.123135  -2e-06  1.019043  0.0
H  H41  1  0.87739641  0.60381007  0.75274230  1  0.103922  2e-05  0.956783  0.0  0.124326  5e-06  1.019526  0.0  0.125299  6e-06  1.020493  0.0  0.087473  0.123539  2e-06  1.018934  0.0
C  C42  1  0.42851571  0.26402890  0.44526385  1  0.146629  0.005029  3.626189  0.005  0.088858  0.000836  3.893735  0.001  0.104162  0.00162  3.906782  0.002  0.138833  0.079161  0.000253  3.884902  0.0
C  C43  1  0.13828868  0.23594762  0.05477667  1  0.146239  -0.004997  3.62788  -0.005  0.08906  -0.000825  3.896257  -0.001  0.104358  -0.001609  3.909286  -0.002  0.138468  0.07935  -0.000239  3.887469  0.0
C  C44  1  0.57148020  0.73596439  0.55473468  1  0.146687  0.005017  3.626156  0.005  0.088871  0.000836  3.893741  0.001  0.104174  0.00162  3.906794  0.002  0.138856  0.079171  0.000252  3.884916  0.0
C  C45  1  0.86171675  0.76405614  0.94522386  1  0.146309  -0.004999  3.627817  -0.005  0.089151  -0.000826  3.896159  -0.001  0.104444  -0.001609  3.909187  -0.002  0.138507  0.079439  -0.00024  3.887367  0.0
C  C46  1  0.76215307  0.05001923  0.38325876  1  0.041619  -0.001137  3.625067  -0.001  -0.016119  -0.000876  3.8836  -0.001  -0.011966  -0.000627  3.895084  -0.001  -0.055504  -0.018783  -0.001096  3.875853  -0.001
C  C47  1  0.19580917  0.45004165  0.11687179  1  0.042404  0.001163  3.627255  0.001  -0.015576  0.000876  3.886097  0.001  -0.01136  0.000627  3.897541  0.001  -0.054766  -0.018245  0.001094  3.878257  0.001
C  C48  1  0.23783304  0.94997405  0.61673818  1  0.042013  -0.001159  3.624776  -0.001  -0.015868  -0.000876  3.883529  -0.001  -0.01169  -0.000627  3.894954  -0.001  -0.055456  -0.018523  -0.001096  3.875785  -0.001
C  C49  1  0.80419606  0.54995949  0.88312748  1  0.042363  0.001151  3.627361  0.001  -0.015575  0.000875  3.886145  0.001  -0.011346  0.000627  3.89759  0.001  -0.054822  -0.018244  0.001094  3.878305  0.001
C  C50  1  0.39661193  0.07140137  0.38574494  1  -0.063174  -0.003545  3.677041  -0.003  -0.100099  -0.001946  3.926592  -0.002  -0.098053  -0.001715  3.945606  -0.002  -0.000642  -0.10137  -0.002122  3.913787  -0.002
C  C51  1  0.85431710  0.42837283  0.11432778  1  -0.061879  0.003587  3.677453  0.004  -0.098659  0.001942  3.926663  0.002  -0.096706  0.001712  3.945623  0.002  -0.000767  -0.099897  0.002118  3.913903  0.002
C  C52  1  0.60336763  0.92859716  0.61425575  1  -0.063123  -0.003566  3.676876  -0.004  -0.100076  -0.001946  3.926395  -0.002  -0.098034  -0.001714  3.945404  -0.002  -0.000646  -0.101346  -0.002122  3.913587  -0.002
C  C53  1  0.14568440  0.57162571  0.88567375  1  -0.061807  0.003535  3.677203  0.003  -0.098575  0.001943  3.926446  0.002  -0.096622  0.001711  3.945403  0.002  -0.000778  -0.099816  0.002118  3.913686  0.002
C  C54  1  0.20331743  0.18492588  0.41422743  1  -0.013656  0.000366  3.756813  0.001  -0.042908  -0.000668  4.023015  0.0  -0.039594  2e-06  4.043227  0.0  -0.006976  -0.044942  -0.001166  4.009638  -0.001
C  C55  1  0.80309594  0.31489284  0.08571597  1  -0.012848  -0.000419  3.758368  -0.001  -0.041601  0.00065  4.024337  0.0  -0.038224  -1.8e-05  4.04462  0.0  -0.006099  -0.043672  0.001147  4.010924  0.001
C  C56  1  0.79667187  0.81506876  0.58577556  1  -0.013529  0.00039  3.756766  0.001  -0.042794  -0.000668  4.022963  0.0  -0.039454  3e-06  4.043191  0.0  -0.006947  -0.044832  -0.001165  4.009584  -0.001
C  C57  1  0.19691730  0.68511478  0.91427755  1  -0.01314  -0.000386  3.758361  -0.001  -0.041932  0.00065  4.024386  0.0  -0.038543  -1.7e-05  4.044652  0.0  -0.006282  -0.044005  0.001148  4.010973  0.001
C  C58  1  0.76602407  0.56424736  0.38508635  1  0.614653  0.004419  3.932621  0.008  0.571307  0.000621  4.23512  0.004  0.60751  0.001079  4.230389  0.003  0.194159  0.546925  0.000154  4.237346  0.004
C  C59  1  0.71535089  0.93581370  0.11484097  1  0.614748  -0.004425  3.932482  -0.008  0.571328  -0.000628  4.235092  -0.004  0.607555  -0.00108  4.230304  -0.003  0.193896  0.546922  -0.000159  4.237391  -0.004
C  C60  1  0.23398290  0.43574725  0.61491323  1  0.614519  0.004423  3.932946  0.008  0.571181  0.000621  4.235436  0.004  0.607384  0.001079  4.230705  0.003  0.194046  0.5468  0.000154  4.237665  0.004
C  C61  1  0.28465240  0.06419271  0.88516314  1  0.614376  -0.00443  3.933001  -0.008  0.570942  -0.000627  4.235652  -0.004  0.607166  -0.00108  4.230874  -0.003  0.193748  0.546542  -0.000158  4.237942  -0.004
C  C62  1  0.64823839  0.65661937  0.31465290  1  -0.077045  -0.008346  3.780635  -0.009  -0.050139  -0.005274  4.012298  -0.006  -0.058817  -0.003751  4.03324  -0.004  -0.02258  -0.044598  -0.006414  3.998106  -0.007
C  C63  1  0.61947644  0.84346741  0.18527423  1  -0.077029  0.008297  3.781162  0.009  -0.049895  0.005266  4.012689  0.006  -0.058698  0.003745  4.033887  0.004  -0.021718  -0.044295  0.006403  3.998379  0.007
C  C64  1  0.35176698  0.34338048  0.68534834  1  -0.076887  -0.008343  3.780373  -0.009  -0.050005  -0.005275  4.012059  -0.006  -0.058681  -0.003751  4.033001  -0.004  -0.022507  -0.044466  -0.006414  3.997871  -0.007
C  C65  1  0.38053181  0.15653768  0.81472846  1  -0.076951  0.008307  3.781272  0.009  -0.049811  0.005267  4.01279  0.006  -0.058612  0.003745  4.03399  0.004  -0.021812  -0.044218  0.006404  3.998478  0.007
C  C66  1  0.72981380  0.75013967  0.24997483  1  -0.085659  2.3e-05  3.719883  0.0  -0.121198  1e-06  3.967229  0.0  -0.116723  0.0  3.982024  0.0  -0.081275  -0.123802  1e-06  3.957108  0.0
C  C67  1  0.27018551  0.24986412  0.75002894  1  -0.085961  2e-05  3.719785  0.0  -0.121471  2e-06  3.96715  0.0  -0.116995  1e-06  3.981941  0.0  -0.081366  -0.124075  1e-06  3.957031  0.0
C  C68  1  0.45363853  0.65554752  0.31409378  1  -0.062638  -0.000706  3.708707  -0.001  -0.089263  -0.000599  3.95553  -0.001  -0.08706  -0.000384  3.97402  0.0  -0.077751  -0.090425  -0.000784  3.943009  -0.001
C  C69  1  0.42348082  0.84418080  0.18573991  1  -0.062813  0.000727  3.708666  0.001  -0.089472  0.000599  3.955506  0.001  -0.087308  0.000381  3.974007  0.0  -0.077772  -0.090602  0.000784  3.942978  0.001
C  C70  1  0.54636422  0.34445363  0.68590654  1  -0.062644  -0.000706  3.708773  -0.001  -0.089274  -0.000599  3.955607  -0.001  -0.087068  -0.000384  3.974094  0.0  -0.077757  -0.090432  -0.000784  3.943079  -0.001
C  C71  1  0.57652740  0.15582559  0.81426211  1  -0.062587  0.000704  3.708896  0.001  -0.089242  0.000598  3.955717  0.001  -0.087078  0.000381  3.97422  0.0  -0.077639  -0.090368  0.000784  3.943183  0.001
C  C72  1  0.34205643  0.74978996  0.24990666  1  -0.079763  -1.1e-05  3.762097  0.0  -0.088447  0.0  4.011918  0.0  -0.092613  1e-06  4.032469  0.0  -0.088274  -0.085766  0.0  3.997922  0.0
C  C73  1  0.65795019  0.25021249  0.75009337  1  -0.079768  2e-06  3.762039  0.0  -0.088415  -0.0  4.011856  0.0  -0.092581  0.0  4.032406  0.0  -0.088232  -0.085735  0.0  3.99786  0.0
C  C74  1  0.82734787  0.13084139  0.29961756  1  -0.309037  3.9e-05  3.697791  0.0  -0.384472  2e-06  3.94008  0.0  -0.387393  1.2e-05  3.951293  0.0  -0.245855  -0.382147  -1.5e-05  3.932364  0.0
C  C75  1  0.25825476  0.36932976  0.20050969  1  -0.310162  -5e-05  3.69908  0.0  -0.385777  -1e-06  3.941479  0.0  -0.388634  -1.2e-05  3.952688  0.0  -0.247022  -0.38352  1.6e-05  3.933727  0.0
C  C76  1  0.17264059  0.86916104  0.70038071  1  -0.309233  5.4e-05  3.697753  0.0  -0.384601  1e-06  3.940102  0.0  -0.38754  1.2e-05  3.951309  0.0  -0.245932  -0.382289  -1.5e-05  3.932381  0.0
C  C77  1  0.74174986  0.63067268  0.79948950  1  -0.310154  -5.5e-05  3.699031  0.0  -0.385777  -1e-06  3.941419  0.0  -0.388636  -1.2e-05  3.952629  0.0  -0.247039  -0.383519  1.6e-05  3.933668  0.0
N  N78  1  0.22575670  0.30402436  0.45112053  1  -0.352383  -0.069524  3.365492  -0.086  -0.309374  -0.048641  3.682715  -0.063  -0.340503  -0.041165  3.70199  -0.056  -0.383731  -0.290207  -0.052589  3.671216  -0.066
N  N79  1  0.98144688  0.19591437  0.04881872  1  -0.353659  0.069559  3.369849  0.086  -0.310852  0.048654  3.68708  0.063  -0.341922  0.041175  3.706284  0.056  -0.384561  -0.291794  0.052601  3.675616  0.066
N  N80  1  0.77423639  0.69596897  0.54888222  1  -0.352402  -0.069518  3.365451  -0.086  -0.309336  -0.048637  3.682629  -0.063  -0.340463  -0.041161  3.701889  -0.056  -0.383693  -0.290169  -0.052585  3.671135  -0.066
N  N81  1  0.01855903  0.80408808  0.95118059  1  -0.353562  0.069561  3.369849  0.086  -0.310754  0.048653  3.687078  0.063  -0.341814  0.041173  3.706271  0.056  -0.384509  -0.291696  0.052602  3.675609  0.066
N  N82  1  0.53668075  0.12330663  0.40576749  1  -0.055165  -0.001624  3.548079  -0.002  0.041462  -0.001293  3.761626  -0.002  0.026881  -0.000937  3.787106  -0.001  -0.239795  0.051072  -0.001553  3.74421  -0.002
N  N83  1  0.06624677  0.37657608  0.09434396  1  -0.056957  0.001608  3.548677  0.002  0.039572  0.001299  3.762686  0.002  0.02499  0.00094  3.788159  0.001  -0.240092  0.049159  0.001557  3.745275  0.002
N  N84  1  0.46330656  0.87668534  0.59422896  1  -0.055361  -0.001613  3.547838  -0.002  0.041354  -0.001293  3.761371  -0.002  0.026757  -0.000937  3.786854  -0.001  -0.23979  0.050964  -0.001553  3.743954  -0.002
N  N85  1  0.93375850  0.62342246  0.90565665  1  -0.057029  0.00162  3.548702  0.002  0.039499  0.001299  3.762666  0.002  0.024918  0.00094  3.788134  0.001  -0.240009  0.049085  0.001557  3.745255  0.002
O  O86  1  0.90987143  0.61354840  0.39061346  1  -0.593914  -0.104979  2.02632  -0.136  -0.569587  -0.069279  2.298914  -0.098  -0.612478  -0.054316  2.292927  -0.081  -0.326835  -0.540772  -0.078859  2.303  -0.108
O  O87  1  0.91391787  0.88671861  0.10941666  1  -0.594388  0.104993  2.025461  0.136  -0.57002  0.069321  2.298096  0.098  -0.61286  0.054355  2.292073  0.081  -0.327218  -0.541293  0.078894  2.302174  0.108
O  O88  1  0.09013622  0.38644101  0.60938821  1  -0.593909  -0.104989  2.026376  -0.136  -0.569585  -0.069282  2.298953  -0.098  -0.61248  -0.054319  2.29297  -0.081  -0.326799  -0.54077  -0.078863  2.303038  -0.108
O  O89  1  0.08608939  0.11328123  0.89058412  1  -0.594265  0.104983  2.025679  0.136  -0.569875  0.069318  2.2983  0.098  -0.612713  0.054353  2.29228  0.081  -0.327164  -0.54115  0.07889  2.302376  0.108
O  O90  1  0.72071073  0.45064890  0.43515918  1  -0.616442  0.000469  1.928412  -0.001  -0.581632  0.000352  2.165521  -0.001  -0.607284  0.001117  2.155194  0.001  -0.322585  -0.563841  -0.000369  2.172247  -0.002
O  O91  1  0.60673953  0.04915176  0.06466279  1  -0.615861  -0.000476  1.9289  0.001  -0.580876  -0.000356  2.166052  0.001  -0.606505  -0.001118  2.155704  -0.001  -0.322046  -0.563137  0.000363  2.172852  0.002
O  O92  1  0.27928696  0.54934307  0.56483828  1  -0.616426  0.000469  1.928704  -0.001  -0.581568  0.000353  2.165751  -0.001  -0.607221  0.001117  2.155424  0.001  -0.322541  -0.563755  -0.000369  2.172429  -0.002
O  O93  1  0.39326511  0.95086774  0.93534438  1  -0.615729  -0.000467  1.929185  0.001  -0.580746  -0.000357  2.166348  0.001  -0.606373  -0.001118  2.156002  -0.001  -0.321981  -0.563007  0.000363  2.173145  0.002
