# generated using pymatgen
data_GdH11(C5O3)3
_symmetry_space_group_name_H-M   'P 1'
_cell_length_a   9.03425349
_cell_length_b   9.79178931
_cell_length_c   12.85356330
_cell_angle_alpha   68.93526997
_cell_angle_beta   85.71674403
_cell_angle_gamma   61.06148307
_symmetry_Int_Tables_number   1
_chemical_formula_structural   GdH11(C5O3)3
_chemical_formula_sum   'Gd2 H22 C30 O18'
_cell_volume   921.69780296
_cell_formula_units_Z   2
loop_
 _symmetry_equiv_pos_site_id
 _symmetry_equiv_pos_as_xyz
  1  'x, y, z'
loop_
 _atom_site_type_symbol
 _atom_site_label
 _atom_site_symmetry_multiplicity
 _atom_site_fract_x
 _atom_site_fract_y
 _atom_site_fract_z
 _atom_site_occupancy
 _atom_site_hle17_bader_spin_density
 _atom_site_hle17_ddec_charge
 _atom_site_hle17_ddec_spin_density
 _atom_site_hle17_ddec_sum_bond_order
 _atom_site_hle17_magmom
 _atom_site_hse06_10hf_bader_spin_density
 _atom_site_hse06_10hf_ddec_charge
 _atom_site_hse06_10hf_ddec_spin_density
 _atom_site_hse06_10hf_ddec_sum_bond_order
 _atom_site_hse06_10hf_magmom
 _atom_site_hse06_bader_spin_density
 _atom_site_hse06_ddec_charge
 _atom_site_hse06_ddec_spin_density
 _atom_site_hse06_ddec_sum_bond_order
 _atom_site_hse06_magmom
 _atom_site_pbe_bader_spin_density
 _atom_site_pbe_cm5_charge
 _atom_site_pbe_ddec_charge
 _atom_site_pbe_ddec_spin_density
 _atom_site_pbe_ddec_sum_bond_order
 _atom_site_pbe_magmom
Gd  Gd0  1  0.25305896  0.44994245  0.01924801  1  0  2.200854  0  1.739698  0  0  2.111339  0  2.090681  0  0  2.167599  0  2.034356  0  0  1.454509  2.067729  0  2.135926  0
Gd  Gd1  1  0.74694663  0.55005783  0.98075213  1  0  2.200868  0  1.739635  0  0  2.111273  0  2.090714  0  0  2.167554  0  2.034359  0  0  1.454494  2.067671  0  2.135967  0
H  H2  1  0.12496809  0.35498427  0.86065321  1  0  0.446054  0  0.854601  0  0  0.414382  0  0.91888  0  0  0.425611  0  0.902509  0  0  0.300569  0.406455  0  0.930412  0
H  H3  1  0.87502219  0.64502255  0.13934348  1  0  0.445972  0  0.854729  0  0  0.414344  0  0.918921  0  0  0.425567  0  0.902561  0  0  0.300562  0.406416  0  0.930455  0
H  H4  1  0.32880405  0.23225112  0.89375734  1  0  0.436573  0  0.819429  0  0  0.421255  0  0.867018  0  0  0.429448  0  0.85501  0  0  0.326972  0.41539  0  0.875634  0
H  H5  1  0.67118920  0.76775194  0.10623942  1  0  0.436531  0  0.819466  0  0  0.421213  0  0.867072  0  0  0.429406  0  0.855064  0  0  0.326987  0.41535  0  0.875686  0
H  H6  1  0.62919100  0.24067775  0.99576860  1  0  0.447894  0  0.851242  0  0  0.416382  0  0.915593  0  0  0.42765  0  0.89931  0  0  0.301402  0.408406  0  0.927092  0
H  H7  1  0.37080999  0.75932506  0.00423184  1  0  0.447799  0  0.851357  0  0  0.41632  0  0.91567  0  0  0.427587  0  0.899388  0  0  0.30138  0.408341  0  0.927176  0
H  H8  1  0.56172597  0.13463527  0.09104570  1  0  0.43182  0  0.823076  0  0  0.412793  0  0.881957  0  0  0.420874  0  0.872774  0  0  0.321448  0.407074  0  0.888421  0
H  H9  1  0.43827861  0.86536256  0.90895433  1  0  0.431831  0  0.823056  0  0  0.412807  0  0.881931  0  0  0.420889  0  0.872747  0  0  0.321472  0.407089  0  0.888397  0
H  H10  1  0.03152907  0.83331656  0.50135055  1  0  0.11097  0  0.951446  0  0  0.120121  0  1.013093  0  0  0.123359  0  1.011996  0  0  0.104421  0.117797  0  1.013988  0
H  H11  1  0.96847011  0.16669005  0.49864822  1  0  0.111066  0  0.951494  0  0  0.120192  0  1.013143  0  0  0.123439  0  1.012035  0  0  0.104477  0.117868  0  1.014042  0
H  H12  1  0.25086866  0.77595963  0.36841624  1  0  0.085379  0  0.976541  0  0  0.093891  0  1.040852  0  0  0.094942  0  1.042565  0  0  0.09769  0.093121  0  1.039703  0
H  H13  1  0.74913451  0.22403198  0.63158540  1  0  0.085378  0  0.976516  0  0  0.093858  0  1.040867  0  0  0.094908  0  1.042579  0  0  0.097666  0.093086  0  1.039726  0
H  H14  1  0.55455145  0.66277309  0.43460799  1  0  0.095267  0  0.935669  0  0  0.109056  0  0.986379  0  0  0.111989  0  0.985691  0  0  0.104999  0.106949  0  0.986999  0
H  H15  1  0.44544993  0.33720863  0.56539466  1  0  0.095262  0  0.935535  0  0  0.109082  0  0.986219  0  0  0.112016  0  0.985528  0  0  0.105024  0.106972  0  0.986841  0
H  H16  1  0.63771984  0.60072848  0.63462309  1  0  0.109453  0  0.930616  0  0  0.120397  0  0.985618  0  0  0.123739  0  0.983708  0  0  0.110763  0.117959  0  0.987082  0
H  H17  1  0.36228331  0.39926311  0.36537933  1  0  0.109523  0  0.930535  0  0  0.120454  0  0.98555  0  0  0.123802  0  0.983639  0  0  0.110775  0.118011  0  0.987013  0
H  H18  1  0.76804292  0.06093616  0.92373606  1  0  0.108226  0  0.961073  0  0  0.116996  0  1.025277  0  0  0.120934  0  1.021809  0  0  0.109353  0.114119  0  1.027828  0
H  H19  1  0.23195806  0.93906663  0.07626517  1  0  0.108195  0  0.961096  0  0  0.116968  0  1.025306  0  0  0.120907  0  1.021834  0  0  0.109322  0.11409  0  1.027854  0
H  H20  1  0.10850506  0.22260447  0.73808512  1  0  0.10191  0  0.936834  0  0  0.114099  0  0.991369  0  0  0.118024  0  0.987823  0  0  0.10937  0.111229  0  0.993996  0
H  H21  1  0.89148135  0.77740381  0.26190667  1  0  0.101849  0  0.936858  0  0  0.114021  0  0.991407  0  0  0.117946  0  0.987864  0  0  0.109346  0.111153  0  0.994028  0
H  H22  1  0.20951279  0.99684767  0.66165882  1  0  0.118771  0  0.94624  0  0  0.130533  0  0.999092  0  0  0.133941  0  0.998508  0  0  0.1117  0.128065  0  0.999742  0
H  H23  1  0.79047986  0.00315667  0.33833685  1  0  0.118753  0  0.946227  0  0  0.130518  0  0.999086  0  0  0.133911  0  0.99852  0  0  0.11168  0.12805  0  0.99973  0
C  C24  1  0.44468178  0.62690099  0.80026317  1  0  0.739218  0  3.858582  0  0  0.693974  0  4.151357  0  0  0.730108  0  4.139654  0  0  0.236101  0.669346  0  4.158507  0
C  C25  1  0.55532414  0.37310292  0.19973916  1  0  0.739484  0  3.858195  0  0  0.694078  0  4.151235  0  0  0.730223  0  4.139522  0  0  0.236153  0.669448  0  4.158383  0
C  C26  1  0.38484245  0.67623602  0.68007118  1  0  -0.167397  0  3.730779  0  0  -0.151146  0  3.963877  0  0  -0.161061  0  3.98465  0  0  -0.020606  -0.144754  0  3.950075  0
C  C27  1  0.61516482  0.32376291  0.31993158  1  0  -0.167557  0  3.730593  0  0  -0.151236  0  3.963729  0  0  -0.161154  0  3.984498  0  0  -0.020605  -0.144838  0  3.949915  0
C  C28  1  0.21394981  0.74519260  0.63969517  1  0  0.26069  0  3.760459  0  0  0.243781  0  4.021721  0  0  0.255034  0  4.037564  0  0  0.090044  0.236126  0  4.010976  0
C  C29  1  0.78605766  0.25480134  0.36030885  1  0  0.260699  0  3.760181  0  0  0.243776  0  4.021501  0  0  0.255031  0  4.037341  0  0  0.090126  0.236126  0  4.010747  0
C  C30  1  0.16570287  0.78028911  0.52869553  1  0  -0.176353  0  3.755238  0  0  -0.200246  0  4.012395  0  0  -0.205933  0  4.032306  0  0  -0.099208  -0.196457  0  3.998986  0
C  C31  1  0.83430284  0.21970605  0.47130980  1  0  -0.176425  0  3.755257  0  0  -0.20028  0  4.012405  0  0  -0.205974  0  4.032308  0  0  -0.099289  -0.196496  0  3.999004  0
C  C32  1  0.28850388  0.74952632  0.45500931  1  0  -0.037436  0  3.773712  0  0  -0.052714  0  4.026861  0  0  -0.052092  0  4.049035  0  0  -0.085691  -0.052918  0  4.011657  0
C  C33  1  0.71149861  0.25046645  0.54499518  1  0  -0.037383  0  3.773663  0  0  -0.052639  0  4.0268  0  0  -0.052015  0  4.048971  0  0  -0.085644  -0.052847  0  4.011608  0
C  C34  1  0.45860406  0.68645713  0.49221169  1  0  -0.07983  0  3.7901  0  0  -0.096261  0  4.045164  0  0  -0.100249  0  4.067272  0  0  -0.092775  -0.093648  0  4.030087  0
C  C35  1  0.54140418  0.31353313  0.50779089  1  0  -0.079923  0  3.790036  0  0  -0.09637  0  4.04509  0  0  -0.100357  0  4.067199  0  0  -0.092851  -0.093756  0  4.030015  0
C  C36  1  0.50559986  0.65090226  0.60353479  1  0  -0.051706  0  3.734499  0  0  -0.075055  0  3.98216  0  0  -0.074222  0  4.002643  0  0  -0.079174  -0.07536  0  3.968199  0
C  C37  1  0.49440420  0.34909430  0.39646635  1  0  -0.051697  0  3.734461  0  0  -0.075043  0  3.982118  0  0  -0.074214  0  4.002605  0  0  -0.079177  -0.075349  0  3.96815  0
C  C38  1  0.04602048  0.90120706  0.75087159  1  0  0.301612  0  3.745331  0  0  0.27659  0  4.015663  0  0  0.292758  0  4.027631  0  0  0.112206  0.265733  0  4.007411  0
C  C39  1  0.95397774  0.09879450  0.24913082  1  0  0.301528  0  3.745526  0  0  0.276467  0  4.015979  0  0  0.292633  0  4.027948  0  0  0.112134  0.265604  0  4.007737  0
C  C40  1  0.92184759  0.91945664  0.82568189  1  0  -0.154287  0  3.72059  0  0  -0.138285  0  3.966734  0  0  -0.148634  0  3.984037  0  0  -0.013806  -0.131776  0  3.955281  0
C  C41  1  0.07814718  0.08054483  0.17432534  1  0  -0.154273  0  3.720709  0  0  -0.138245  0  3.966849  0  0  -0.14859  0  3.984157  0  0  -0.013806  -0.131742  0  3.955411  0
C  C42  1  0.86537002  0.04754341  0.86685883  1  0  -0.040472  0  3.693905  0  0  -0.075983  0  3.941632  0  0  -0.070868  0  3.958074  0  0  -0.071847  -0.079013  0  3.930492  0
C  C43  1  0.13462676  0.95246562  0.13314253  1  0  -0.0405  0  3.693917  0  0  -0.076013  0  3.941646  0  0  -0.070903  0  3.95809  0  0  -0.071818  -0.079047  0  3.930512  0
C  C44  1  0.93336470  0.15643541  0.83751031  1  0  -0.100396  0  3.791468  0  0  -0.080563  0  4.037386  0  0  -0.091292  0  4.060326  0  0  -0.030746  -0.073817  0  4.022055  0
C  C45  1  0.06663065  0.84357006  0.16248733  1  0  -0.100478  0  3.791463  0  0  -0.080648  0  4.037396  0  0  -0.091372  0  4.060335  0  0  -0.030852  -0.073895  0  4.02206  0
C  C46  1  0.05762042  0.13622715  0.76328009  1  0  -0.033988  0  3.746023  0  0  -0.058909  0  3.996001  0  0  -0.053776  0  4.012519  0  0  -0.076856  -0.061995  0  3.984721  0
C  C47  1  0.94237205  0.86378223  0.23671276  1  0  -0.033915  0  3.746108  0  0  -0.058812  0  3.996061  0  0  -0.053679  0  4.012575  0  0  -0.07682  -0.061902  0  3.984778  0
C  C48  1  0.11422274  0.01006885  0.71999099  1  0  -0.208974  0  3.761179  0  0  -0.227557  0  4.021136  0  0  -0.235726  0  4.039854  0  0  -0.104057  -0.222264  0  4.008601  0
C  C49  1  0.88577287  0.98993170  0.28000555  1  0  -0.208942  0  3.761016  0  0  -0.227505  0  4.020971  0  0  -0.23566  0  4.039694  0  0  -0.104026  -0.222217  0  4.008434  0
C  C50  1  0.85957223  0.79561702  0.86847660  1  0  0.714662  0  3.872078  0  0  0.663558  0  4.176021  0  0  0.699776  0  4.164192  0  0  0.221542  0.638956  0  4.183051  0
C  C51  1  0.14043256  0.20437845  0.13151934  1  0  0.714756  0  3.871951  0  0  0.663632  0  4.175914  0  0  0.699847  0  4.164088  0  0  0.221564  0.639034  0  4.182943  0
C  C52  1  0.87688192  0.28803275  0.88571405  1  0  0.654104  0  3.905582  0  0  0.602871  0  4.204872  0  0  0.636715  0  4.198703  0  0  0.206171  0.580003  0  4.208084  0
C  C53  1  0.12311151  0.71197900  0.11428128  1  0  0.654163  0  3.905522  0  0  0.602918  0  4.204849  0  0  0.636761  0  4.198675  0  0  0.206275  0.580054  0  4.208052  0
O  O54  1  0.37057439  0.56962724  0.87737224  1  0  -0.732775  0  2.087984  0  0  -0.697017  0  2.357279  0  0  -0.722861  0  2.343848  0  0  -0.409046  -0.678271  0  2.365898  0
O  O55  1  0.62942577  0.43036806  0.12263169  1  0  -0.732839  0  2.088067  0  0  -0.696982  0  2.357394  0  0  -0.72283  0  2.343954  0  0  -0.409023  -0.678245  0  2.366027  0
O  O56  1  0.57113211  0.64283061  0.81743683  1  0  -0.724641  0  2.050737  0  0  -0.684278  0  2.294298  0  0  -0.710478  0  2.282931  0  0  -0.39583  -0.665514  0  2.30163  0
O  O57  1  0.42886859  0.35716597  0.18256520  1  0  -0.72476  0  2.05031  0  0  -0.684354  0  2.293948  0  0  -0.710558  0  2.282581  0  0  -0.395883  -0.665589  0  2.301281  0
O  O58  1  0.08443325  0.78050581  0.70819322  1  0  -0.269  0  2.374034  0  0  -0.200027  0  2.598291  0  0  -0.218796  0  2.599597  0  0  -0.129022  -0.186699  0  2.596833  0
O  O59  1  0.91557432  0.21948828  0.29180608  1  0  -0.268834  0  2.374173  0  0  -0.199913  0  2.598521  0  0  -0.218687  0  2.599838  0  0  -0.128986  -0.186585  0  2.597064  0
O  O60  1  0.97163063  0.63931386  0.91622451  1  0  -0.789077  0  2.122621  0  0  -0.748395  0  2.385317  0  0  -0.776609  0  2.374728  0  0  -0.418394  -0.727787  0  2.391795  0
O  O61  1  0.02837379  0.36068636  0.08377803  1  0  -0.789193  0  2.122586  0  0  -0.748468  0  2.385228  0  0  -0.776677  0  2.374624  0  0  -0.418415  -0.727864  0  2.391712  0
O  O62  1  0.70280312  0.84175665  0.86410433  1  0  -0.653586  0  1.91807  0  0  -0.612335  0  2.138572  0  0  -0.636067  0  2.127  0  0  -0.349681  -0.59561  0  2.14615  0
O  O63  1  0.29719806  0.15824380  0.13589281  1  0  -0.653597  0  1.918098  0  0  -0.612351  0  2.138613  0  0  -0.636079  0  2.127043  0  0  -0.349684  -0.595623  0  2.146185  0
O  O64  1  0.77424851  0.29638521  0.96062815  1  0  -0.698233  0  2.089522  0  0  -0.646652  0  2.328159  0  0  -0.674266  0  2.322245  0  0  -0.355294  -0.627193  0  2.331761  0
O  O65  1  0.22574918  0.70361509  0.03937538  1  0  -0.698163  0  2.089631  0  0  -0.646607  0  2.328285  0  0  -0.674217  0  2.322369  0  0  -0.3553  -0.627152  0  2.331884  0
O  O66  1  0.93029504  0.39448244  0.85423937  1  0  -0.679952  0  2.021254  0  0  -0.62943  0  2.247676  0  0  -0.654459  0  2.237561  0  0  -0.341261  -0.61175  0  2.25412  0
O  O67  1  0.06970322  0.60552184  0.14575535  1  0  -0.680013  0  2.021129  0  0  -0.629522  0  2.247565  0  0  -0.654547  0  2.23745  0  0  -0.34133  -0.611846  0  2.254009  0
O  O68  1  0.23661691  0.34650399  0.87728627  1  0  -0.881941  0  1.842543  0  0  -0.844283  0  2.015408  0  0  -0.862975  0  1.985301  0  0  -0.63066  -0.830721  0  2.036615  0
O  O69  1  0.76338171  0.65350131  0.12271519  1  0  -0.881835  0  1.842718  0  0  -0.844178  0  2.015569  0  0  -0.862869  0  1.985463  0  0  -0.630681  -0.830621  0  2.036782  0
O  O70  1  0.53440478  0.21264510  0.01334138  1  0  -0.883411  0  1.856926  0  0  -0.842847  0  2.039743  0  0  -0.862117  0  2.011859  0  0  -0.615278  -0.828862  0  2.059242  0
O  O71  1  0.46559572  0.78735650  0.98665861  1  0  -0.88333  0  1.856965  0  0  -0.84279  0  2.039712  0  0  -0.862063  0  2.011827  0  0  -0.615275  -0.8288  0  2.059214  0
