# generated using pymatgen
data_MnH5C5N2ClO3
_symmetry_space_group_name_H-M   'P 1'
_cell_length_a   8.71970980
_cell_length_b   8.71967319
_cell_length_c   11.80129894
_cell_angle_alpha   101.76796155
_cell_angle_beta   101.76813082
_cell_angle_gamma   110.16934098
_symmetry_Int_Tables_number   1
_chemical_formula_structural   MnH5C5N2ClO3
_chemical_formula_sum   'Mn4 H20 C20 N8 Cl4 O12'
_cell_volume   786.97892667
_cell_formula_units_Z   4
loop_
 _symmetry_equiv_pos_site_id
 _symmetry_equiv_pos_as_xyz
  1  'x, y, z'
loop_
 _atom_site_type_symbol
 _atom_site_label
 _atom_site_symmetry_multiplicity
 _atom_site_fract_x
 _atom_site_fract_y
 _atom_site_fract_z
 _atom_site_occupancy
 _atom_site_hle17_ddec_charge
 _atom_site_hle17_ddec_spin_density
 _atom_site_hle17_ddec_sum_bond_order
 _atom_site_hle17_magmom
 _atom_site_hse06_10hf_ddec_charge
 _atom_site_hse06_10hf_ddec_spin_density
 _atom_site_hse06_10hf_ddec_sum_bond_order
 _atom_site_hse06_10hf_magmom
 _atom_site_hse06_ddec_charge
 _atom_site_hse06_ddec_spin_density
 _atom_site_hse06_ddec_sum_bond_order
 _atom_site_hse06_magmom
 _atom_site_pbe_cm5_charge
 _atom_site_pbe_ddec_charge
 _atom_site_pbe_ddec_spin_density
 _atom_site_pbe_ddec_sum_bond_order
 _atom_site_pbe_magmom
Mn  Mn0  1  0.70492070  0.95509989  0.27297356  1  0.98546  4.779836  1.999366  4.652  0.829748  4.701415  2.501603  4.508  0.886133  4.747374  2.438569  4.575  0.494099  0.787136  4.652835  2.547468  4.439
Mn  Mn1  1  0.95509971  0.70492129  0.77297447  1  0.985456  4.779832  1.999429  4.652  0.829742  4.701408  2.501669  4.508  0.886124  4.747366  2.438639  4.575  0.494097  0.787146  4.652825  2.547508  4.439
Mn  Mn2  1  0.29507784  0.04489800  0.72702597  1  0.985469  4.779825  1.999394  4.652  0.829754  4.7014  2.50164  4.508  0.886138  4.74736  2.438609  4.575  0.494093  0.78717  4.652823  2.54744  4.439
Mn  Mn3  1  0.04489935  0.29507788  0.22702704  1  0.985455  4.779819  1.99943  4.652  0.829732  4.701398  2.501674  4.508  0.886116  4.747358  2.438643  4.575  0.494094  0.787136  4.652818  2.54751  4.439
H  H4  1  0.68344626  0.99605553  0.49893128  1  0.417499  0.00015  0.888361  0.001  0.386626  0.001011  0.953145  0.002  0.397152  0.000688  0.938029  0.001  0.288261  0.379239  0.001307  0.963686  0.002
H  H5  1  0.99605548  0.68344628  0.99892966  1  0.417499  0.00015  0.888367  0.001  0.386623  0.001011  0.953141  0.002  0.397149  0.000688  0.938025  0.001  0.288254  0.379237  0.001307  0.963679  0.002
H  H6  1  0.31655514  0.00394363  0.50106888  1  0.417474  0.00015  0.8884  0.001  0.386598  0.001011  0.953189  0.002  0.397125  0.000688  0.938072  0.001  0.288243  0.379207  0.001307  0.963737  0.002
H  H7  1  0.00394293  0.31655417  0.00106855  1  0.417486  0.00015  0.888377  0.001  0.386617  0.001011  0.953156  0.002  0.397143  0.000688  0.93804  0.001  0.288253  0.379231  0.001307  0.963696  0.002
H  H8  1  0.68188566  0.33357182  0.39243636  1  0.102535  3e-06  0.927817  0.0  0.106377  0.000474  0.993748  0.001  0.109523  0.000208  0.99213  0.0  0.123968  0.103866  0.000755  0.995344  0.001
H  H9  1  0.33357226  0.68188595  0.89243649  1  0.102521  1e-06  0.927831  0.0  0.106364  0.000474  0.993767  0.001  0.10951  0.000208  0.992148  0.0  0.123961  0.103854  0.000755  0.995361  0.001
H  H10  1  0.31811509  0.66642862  0.60756389  1  0.102532  4e-06  0.927821  0.0  0.106373  0.000473  0.993757  0.001  0.109519  0.000208  0.992138  0.0  0.123969  0.103862  0.000755  0.995355  0.001
H  H11  1  0.66642797  0.31811322  0.10756434  1  0.102512  2e-06  0.927813  0.0  0.106347  0.000474  0.993755  0.001  0.109487  0.000208  0.992142  0.0  0.12396  0.103836  0.000755  0.995347  0.001
H  H12  1  0.44226105  0.43992413  0.37277201  1  0.111872  -6e-05  0.930971  0.0  0.118596  0.000257  0.99038  0.001  0.122608  7.3e-05  0.986913  0.001  0.131743  0.115424  0.00047  0.993407  0.001
H  H13  1  0.43992457  0.44226172  0.87276929  1  0.111906  -5.7e-05  0.930932  0.0  0.118621  0.000257  0.990342  0.001  0.122649  7.3e-05  0.986854  0.001  0.131766  0.115451  0.00047  0.993361  0.001
H  H14  1  0.55773802  0.56007504  0.62723034  1  0.111908  -6e-05  0.930959  0.0  0.118613  0.000257  0.990377  0.001  0.122637  7.4e-05  0.986894  0.001  0.131768  0.115444  0.00047  0.9934  0.001
H  H15  1  0.56007566  0.55773745  0.12723155  1  0.111883  -6.1e-05  0.930972  0.0  0.118619  0.000257  0.990365  0.001  0.122636  7.3e-05  0.986891  0.001  0.131764  0.115448  0.00047  0.993388  0.001
H  H16  1  0.10003119  0.96435746  0.13662624  1  0.100883  0.000476  0.942405  0.001  0.104246  0.001284  1.013704  0.001  0.107607  0.000863  1.010928  0.001  0.121767  0.101508  0.001721  1.016243  0.001
H  H17  1  0.96435605  0.10003079  0.63662596  1  0.100876  0.000473  0.9424  0.001  0.104261  0.001284  1.01367  0.001  0.107623  0.000862  1.010894  0.001  0.12178  0.101526  0.001721  1.016215  0.001
H  H18  1  0.89997008  0.03564426  0.86337343  1  0.100862  0.000476  0.942422  0.001  0.104209  0.001285  1.013722  0.001  0.107569  0.000862  1.010945  0.001  0.121764  0.101475  0.001721  1.016263  0.001
H  H19  1  0.03564470  0.89996965  0.36337345  1  0.100902  0.000475  0.942377  0.001  0.104259  0.001284  1.013672  0.001  0.107621  0.000862  1.010897  0.001  0.121783  0.101525  0.001721  1.016215  0.001
H  H20  1  0.51233258  0.84565683  0.41849327  1  0.416344  -5.3e-05  0.883852  0.001  0.383863  0.000624  0.954473  0.002  0.395622  0.000374  0.937579  0.001  0.288119  0.375614  0.000851  0.966247  0.002
H  H21  1  0.84565661  0.51233233  0.91849246  1  0.416331  -5.3e-05  0.883811  0.001  0.383851  0.000624  0.954476  0.002  0.39561  0.000374  0.937582  0.001  0.288105  0.375602  0.000851  0.96625  0.002
H  H22  1  0.48766882  0.15434233  0.58150604  1  0.41633  -5.3e-05  0.883855  0.001  0.383845  0.000624  0.954494  0.002  0.395605  0.000374  0.937599  0.001  0.288102  0.375598  0.000852  0.966264  0.002
H  H23  1  0.15434297  0.48766811  0.08150592  1  0.416321  -5.3e-05  0.883869  0.001  0.383831  0.000624  0.954519  0.002  0.395591  0.000374  0.937624  0.001  0.288098  0.37558  0.000851  0.966296  0.002
C  C24  1  0.55162786  0.25169213  0.33479188  1  0.092286  0.001564  3.65279  0.002  0.061394  0.004612  3.918157  0.004  0.063725  0.002859  3.934029  0.003  0.066175  0.05914  0.006803  3.908865  0.005
C  C25  1  0.25169356  0.55162854  0.83479143  1  0.092348  0.00158  3.652825  0.002  0.061442  0.004611  3.918184  0.004  0.063772  0.002862  3.934059  0.003  0.066202  0.059183  0.006804  3.908898  0.005
C  C26  1  0.44837173  0.74830832  0.66520905  1  0.092321  0.001557  3.652749  0.002  0.061417  0.004613  3.918111  0.004  0.063747  0.002858  3.933986  0.003  0.066196  0.059159  0.006803  3.908828  0.005
C  C27  1  0.74830784  0.44837062  0.16520957  1  0.092342  0.001561  3.652801  0.002  0.061455  0.004612  3.918172  0.004  0.06379  0.002861  3.934047  0.003  0.066203  0.059196  0.006804  3.908882  0.005
C  C28  1  0.42073130  0.30992110  0.32478824  1  0.100774  0.002073  3.606489  0.002  0.069285  0.004825  3.858405  0.004  0.073977  0.003287  3.872232  0.003  0.071765  0.065577  0.007194  3.850388  0.006
C  C29  1  0.30991993  0.42073111  0.82478500  1  0.100725  0.002055  3.60644  0.002  0.069266  0.004826  3.858343  0.004  0.073946  0.003287  3.872166  0.003  0.071762  0.065558  0.007194  3.850322  0.006
C  C30  1  0.57926893  0.69007807  0.67521344  1  0.100706  0.002078  3.60645  0.002  0.069254  0.004824  3.858346  0.004  0.073935  0.003291  3.872169  0.003  0.071744  0.065551  0.007194  3.85033  0.006
C  C31  1  0.69007861  0.57926678  0.17521454  1  0.100746  0.002084  3.606432  0.002  0.069253  0.004826  3.858379  0.004  0.073942  0.00329  3.872204  0.003  0.071743  0.065549  0.007194  3.850353  0.006
C  C32  1  0.23016653  0.04640875  0.19415596  1  0.096557  0.00203  3.627353  0.002  0.056885  0.005367  3.882889  0.003  0.061823  0.003799  3.897501  0.003  0.071251  0.052896  0.007275  3.874777  0.004
C  C33  1  0.04640749  0.23016626  0.69415428  1  0.096619  0.002037  3.627338  0.002  0.056969  0.005366  3.882873  0.003  0.061906  0.003798  3.897485  0.003  0.07127  0.052973  0.007274  3.874781  0.004
C  C34  1  0.76983422  0.95359170  0.80584430  1  0.096666  0.002034  3.627344  0.002  0.057021  0.005366  3.882855  0.003  0.061961  0.003801  3.897464  0.003  0.07129  0.05303  0.007274  3.874753  0.004
C  C35  1  0.95359157  0.76983291  0.30584553  1  0.096589  0.002043  3.627319  0.002  0.056957  0.005367  3.882853  0.003  0.061893  0.003798  3.897465  0.003  0.07125  0.052962  0.007274  3.87475  0.004
C  C36  1  0.36076004  0.98739979  0.20563928  1  0.067816  0.0006  3.708481  0.001  0.070681  0.003584  3.957073  0.003  0.069383  0.002137  3.973242  0.002  0.127295  0.070418  0.005324  3.947981  0.004
C  C37  1  0.98740086  0.36076028  0.70563998  1  0.067801  0.0006  3.708386  0.001  0.070592  0.003585  3.957076  0.003  0.069289  0.002135  3.973242  0.002  0.127293  0.070326  0.005324  3.947998  0.004
C  C38  1  0.63923954  0.01260065  0.79435911  1  0.067724  0.00059  3.708493  0.001  0.070625  0.003585  3.957034  0.003  0.069324  0.002133  3.973196  0.002  0.127314  0.07036  0.005324  3.947945  0.004
C  C39  1  0.01259937  0.63923888  0.29436000  1  0.067723  0.000591  3.708389  0.001  0.070567  0.003585  3.957029  0.003  0.069264  0.002137  3.973186  0.002  0.127295  0.070304  0.005324  3.947943  0.004
C  C40  1  0.32968920  0.80442819  0.14673017  1  0.632965  0.00297  3.916366  0.003  0.571745  0.006758  4.223552  0.006  0.606186  0.004804  4.216458  0.005  0.219779  0.548079  0.009009  4.227794  0.008
C  C41  1  0.80443224  0.32969745  0.64673317  1  0.633198  0.002973  3.916113  0.003  0.571994  0.006758  4.223308  0.006  0.606446  0.004803  4.216195  0.005  0.219847  0.54833  0.009009  4.227555  0.008
C  C42  1  0.67031103  0.19557097  0.85326727  1  0.633187  0.002977  3.916086  0.003  0.571956  0.006757  4.223277  0.006  0.606409  0.004803  4.216161  0.005  0.219828  0.548287  0.009009  4.227526  0.008
C  C43  1  0.19557008  0.67030683  0.35326705  1  0.633251  0.00297  3.916081  0.003  0.572005  0.006757  4.223313  0.006  0.606469  0.004802  4.216181  0.005  0.219875  0.548338  0.009008  4.227562  0.008
N  N44  1  0.52150945  0.09132337  0.27426703  1  -0.27459  0.027411  3.230175  0.018  -0.219014  0.033823  3.494758  0.021  -0.230901  0.029464  3.509598  0.017  -0.287823  -0.211024  0.039448  3.486055  0.026
N  N45  1  0.09132506  0.52151099  0.77426657  1  -0.274654  0.027405  3.230173  0.018  -0.219045  0.033823  3.494766  0.021  -0.230932  0.029466  3.509605  0.017  -0.287847  -0.211051  0.03945  3.486064  0.026
N  N46  1  0.47849130  0.90867708  0.72573323  1  -0.274557  0.027417  3.230156  0.018  -0.218987  0.033822  3.494728  0.021  -0.230874  0.029467  3.509568  0.017  -0.287821  -0.210995  0.039448  3.486023  0.026
N  N47  1  0.90867517  0.47848817  0.22573341  1  -0.274586  0.027414  3.230154  0.018  -0.218983  0.033822  3.494715  0.021  -0.230871  0.029464  3.509553  0.017  -0.287834  -0.210993  0.039447  3.486013  0.026
N  N48  1  0.26055327  0.20736773  0.25345394  1  -0.245667  0.026887  3.202467  0.015  -0.17614  0.033074  3.46809  0.017  -0.190744  0.028761  3.482126  0.014  -0.289634  -0.166356  0.038181  3.459685  0.021
N  N49  1  0.20736692  0.26055302  0.75345251  1  -0.245723  0.026889  3.202411  0.015  -0.17622  0.033073  3.468041  0.017  -0.190825  0.028761  3.482082  0.014  -0.289677  -0.166431  0.038181  3.459634  0.021
N  N50  1  0.73944631  0.79263272  0.74654783  1  -0.245718  0.026885  3.202489  0.015  -0.17621  0.033074  3.468104  0.017  -0.190815  0.028758  3.482143  0.014  -0.289666  -0.16643  0.038181  3.459707  0.021
N  N51  1  0.79263214  0.73944615  0.24654899  1  -0.245684  0.026874  3.202379  0.015  -0.1762  0.033072  3.468047  0.017  -0.190805  0.028758  3.482084  0.014  -0.289653  -0.166408  0.03818  3.459635  0.021
Cl  Cl52  1  0.96429380  0.20414174  0.40475499  1  -0.56287  0.086179  1.004095  0.05  -0.507678  0.114683  1.303377  0.058  -0.532572  0.099327  1.277256  0.048  -0.24748  -0.485842  0.128544  1.321133  0.068
Cl  Cl53  1  0.20414067  0.96429347  0.90475338  1  -0.562879  0.086182  1.004094  0.05  -0.507706  0.114686  1.303403  0.058  -0.532597  0.099332  1.27728  0.048  -0.247496  -0.485873  0.128549  1.321135  0.068
Cl  Cl54  1  0.03570475  0.79585616  0.59524710  1  -0.562868  0.08618  1.004085  0.05  -0.507698  0.114685  1.303396  0.058  -0.53259  0.099329  1.277273  0.048  -0.247489  -0.485859  0.128546  1.321125  0.068
Cl  Cl55  1  0.79585956  0.03570570  0.09524490  1  -0.562874  0.08618  1.004098  0.05  -0.507693  0.114684  1.303389  0.058  -0.532586  0.099329  1.277266  0.048  -0.247491  -0.485859  0.128545  1.321142  0.068
O  O56  1  0.46019265  0.76910127  0.15422034  1  -0.597546  0.033132  2.049472  0.025  -0.53315  0.038302  2.306626  0.027  -0.563818  0.033797  2.295707  0.023  -0.300787  -0.510405  0.042527  2.3132  0.031
O  O57  1  0.76910403  0.46019442  0.65422194  1  -0.597558  0.03313  2.049587  0.025  -0.533161  0.038301  2.306723  0.027  -0.563829  0.033795  2.295797  0.023  -0.300773  -0.510416  0.042525  2.313295  0.031
O  O58  1  0.53980693  0.23089918  0.84577889  1  -0.597616  0.033134  2.049397  0.025  -0.533214  0.038302  2.30654  0.027  -0.563888  0.033798  2.295615  0.023  -0.300795  -0.510467  0.042529  2.313108  0.031
O  O59  1  0.23089841  0.53980730  0.34577875  1  -0.597604  0.033133  2.049536  0.025  -0.533196  0.038302  2.306692  0.027  -0.563869  0.033798  2.295758  0.023  -0.300779  -0.510451  0.042527  2.313268  0.031
O  O60  1  0.17647623  0.69612403  0.09790883  1  -0.630875  0.003418  2.059456  0.005  -0.56481  0.006562  2.283546  0.008  -0.592186  0.004628  2.276206  0.006  -0.295706  -0.545674  0.008871  2.288293  0.01
O  O61  1  0.69612336  0.17647701  0.59790921  1  -0.631054  0.003418  2.059235  0.005  -0.564983  0.006563  2.283333  0.008  -0.592365  0.00463  2.275984  0.006  -0.295776  -0.545852  0.008871  2.288089  0.01
O  O62  1  0.82352153  0.30387770  0.90208693  1  -0.631007  0.003413  2.059323  0.005  -0.564962  0.006563  2.28345  0.008  -0.592341  0.004626  2.276098  0.006  -0.295778  -0.54583  0.00887  2.288206  0.01
O  O63  1  0.30387621  0.82352343  0.40208748  1  -0.631059  0.003417  2.059256  0.005  -0.564984  0.006563  2.283381  0.008  -0.592369  0.004628  2.276027  0.006  -0.295803  -0.545847  0.008871  2.288136  0.01
O  O64  1  0.63871589  0.88794012  0.43148886  1  -0.813436  0.033387  1.887342  0.025  -0.758631  0.043351  2.090817  0.032  -0.783497  0.037561  2.057245  0.027  -0.582794  -0.739585  0.04889  2.113734  0.036
O  O65  1  0.88794034  0.63871677  0.93148648  1  -0.813419  0.033391  1.887341  0.025  -0.758604  0.043354  2.090893  0.032  -0.783469  0.037564  2.057321  0.027  -0.582762  -0.739561  0.048892  2.113809  0.036
O  O66  1  0.36128499  0.11205777  0.56851272  1  -0.813409  0.033389  1.887405  0.025  -0.758604  0.043353  2.090902  0.032  -0.783471  0.037562  2.057331  0.027  -0.582766  -0.739564  0.048891  2.113819  0.036
O  O67  1  0.11205924  0.36128368  0.06851275  1  -0.813407  0.033388  1.887383  0.025  -0.758603  0.043352  2.090874  0.032  -0.783469  0.037562  2.057302  0.027  -0.582757  -0.739558  0.04889  2.113788  0.036
