# generated using pymatgen
data_LiH5C7O3
_symmetry_space_group_name_H-M   'P 1'
_cell_length_a   7.13906069
_cell_length_b   10.48665537
_cell_length_c   16.17136291
_cell_angle_alpha   90.00006077
_cell_angle_beta   90.00008636
_cell_angle_gamma   89.99996434
_symmetry_Int_Tables_number   1
_chemical_formula_structural   LiH5C7O3
_chemical_formula_sum   'Li8 H40 C56 O24'
_cell_volume   1210.66696800
_cell_formula_units_Z   8
loop_
 _symmetry_equiv_pos_site_id
 _symmetry_equiv_pos_as_xyz
  1  'x, y, z'
loop_
 _atom_site_type_symbol
 _atom_site_label
 _atom_site_symmetry_multiplicity
 _atom_site_fract_x
 _atom_site_fract_y
 _atom_site_fract_z
 _atom_site_occupancy
 _atom_site_hle17_bader_spin_density
 _atom_site_hle17_ddec_charge
 _atom_site_hle17_ddec_spin_density
 _atom_site_hle17_ddec_sum_bond_order
 _atom_site_hle17_magmom
 _atom_site_hse06_10hf_bader_spin_density
 _atom_site_hse06_10hf_ddec_charge
 _atom_site_hse06_10hf_ddec_spin_density
 _atom_site_hse06_10hf_ddec_sum_bond_order
 _atom_site_hse06_10hf_magmom
 _atom_site_hse06_bader_spin_density
 _atom_site_hse06_ddec_charge
 _atom_site_hse06_ddec_spin_density
 _atom_site_hse06_ddec_sum_bond_order
 _atom_site_hse06_magmom
 _atom_site_pbe_bader_spin_density
 _atom_site_pbe_cm5_charge
 _atom_site_pbe_ddec_charge
 _atom_site_pbe_ddec_spin_density
 _atom_site_pbe_ddec_sum_bond_order
 _atom_site_pbe_magmom
Li  Li0  1  0.18862625  0.51989158  0.49120930  1  0  0.851793  0  0.412002  0  0  0.815119  0  0.510223  0  0  0.824042  0  0.494407  0  0  0.527955  0.808543  0  0.521776  0
Li  Li1  1  0.68862517  0.98010836  0.00879141  1  0  0.851809  0  0.411976  0  0  0.815134  0  0.510193  0  0  0.824056  0  0.494377  0  0  0.527955  0.808559  0  0.521745  0
Li  Li2  1  0.81137432  0.48010796  0.99120817  1  0  0.851799  0  0.411991  0  0  0.815124  0  0.510215  0  0  0.824046  0  0.494399  0  0  0.527959  0.808547  0  0.521769  0
Li  Li3  1  0.31137375  0.01989135  0.50879087  1  0  0.851789  0  0.411999  0  0  0.815113  0  0.510219  0  0  0.824035  0  0.494404  0  0  0.527951  0.808537  0  0.521773  0
Li  Li4  1  0.81137349  0.48010852  0.50879057  1  0  0.851797  0  0.411998  0  0  0.815121  0  0.510218  0  0  0.824041  0  0.494404  0  0  0.527959  0.808544  0  0.521772  0
Li  Li5  1  0.31137458  0.01989174  0.99120908  1  0  0.851797  0  0.411995  0  0  0.815133  0  0.510199  0  0  0.824055  0  0.494384  0  0  0.527966  0.808558  0  0.521751  0
Li  Li6  1  0.18862683  0.51989214  0.00879109  1  0  0.851804  0  0.411986  0  0  0.81513  0  0.510202  0  0  0.824052  0  0.494387  0  0  0.527956  0.808553  0  0.521755  0
Li  Li7  1  0.68862740  0.98010875  0.49120901  1  0  0.851789  0  0.412007  0  0  0.815116  0  0.510228  0  0  0.824037  0  0.494412  0  0  0.527953  0.808539  0  0.521782  0
H  H8  1  0.30875688  0.74208541  0.53638186  1  0  0.426577  0  0.868552  0  0  0.397544  0  0.929146  0  0  0.40705  0  0.915094  0  0  0.304075  0.390882  0  0.938993  0
H  H9  1  0.80875755  0.75791530  0.96361813  1  0  0.426575  0  0.868548  0  0  0.39755  0  0.92913  0  0  0.407056  0  0.915078  0  0  0.304074  0.390888  0  0.938976  0
H  H10  1  0.69124354  0.25791434  0.03638130  1  0  0.426564  0  0.868561  0  0  0.397532  0  0.929154  0  0  0.407038  0  0.915103  0  0  0.304067  0.39087  0  0.939  0
H  H11  1  0.19124292  0.24208515  0.46361784  1  0  0.426576  0  0.86856  0  0  0.397549  0  0.929144  0  0  0.407056  0  0.915092  0  0  0.304074  0.390888  0  0.93899  0
H  H12  1  0.69124287  0.25791469  0.46361801  1  0  0.426579  0  0.86855  0  0  0.397551  0  0.929136  0  0  0.407057  0  0.915085  0  0  0.304076  0.390889  0  0.938983  0
H  H13  1  0.19124360  0.24208576  0.03638236  1  0  0.426522  0  0.868627  0  0  0.397558  0  0.929119  0  0  0.407064  0  0.915068  0  0  0.304092  0.390896  0  0.938966  0
H  H14  1  0.30875761  0.74208576  0.96361796  1  0  0.426515  0  0.86863  0  0  0.397557  0  0.929113  0  0  0.407063  0  0.915062  0  0  0.304089  0.390895  0  0.93896  0
H  H15  1  0.80875682  0.75791495  0.53638204  1  0  0.426588  0  0.868538  0  0  0.397555  0  0.929131  0  0  0.407061  0  0.91508  0  0  0.304074  0.390892  0  0.938978  0
H  H16  1  0.48122780  0.64615870  0.54170488  1  0  0.423108  0  0.880869  0  0  0.391931  0  0.945692  0  0  0.402681  0  0.930001  0  0  0.295717  0.384324  0  0.956779  0
H  H17  1  0.98122837  0.85384193  0.95829523  1  0  0.423146  0  0.880828  0  0  0.391954  0  0.945672  0  0  0.402705  0  0.929979  0  0  0.295731  0.384346  0  0.956757  0
H  H18  1  0.51877264  0.35384106  0.04170426  1  0  0.423118  0  0.88086  0  0  0.391943  0  0.94568  0  0  0.402693  0  0.929987  0  0  0.295729  0.384336  0  0.956765  0
H  H19  1  0.01877209  0.14615851  0.45829538  1  0  0.423118  0  0.880861  0  0  0.391946  0  0.945678  0  0  0.402696  0  0.929986  0  0  0.295718  0.384338  0  0.956765  0
H  H20  1  0.51877195  0.35384140  0.45829562  1  0  0.423099  0  0.880886  0  0  0.391927  0  0.945702  0  0  0.402678  0  0.930009  0  0  0.295723  0.38432  0  0.956788  0
H  H21  1  0.01877278  0.14615912  0.04170464  1  0  0.423127  0  0.880842  0  0  0.39195  0  0.945666  0  0  0.4027  0  0.929974  0  0  0.295729  0.384342  0  0.956751  0
H  H22  1  0.48122851  0.64615904  0.95829500  1  0  0.423139  0  0.880832  0  0  0.391945  0  0.945678  0  0  0.402695  0  0.929986  0  0  0.295724  0.384337  0  0.956764  0
H  H23  1  0.98122906  0.85384159  0.54170450  1  0  0.423158  0  0.880812  0  0  0.391957  0  0.945668  0  0  0.402708  0  0.929975  0  0  0.295731  0.38435  0  0.956752  0
H  H24  1  0.65709806  0.61009939  0.40336470  1  0  0.093807  0  0.962425  0  0  0.101947  0  1.028255  0  0  0.106838  0  1.023911  0  0  0.120903  0.098393  0  1.03154  0
H  H25  1  0.15709745  0.88990247  0.09663600  1  0  0.093822  0  0.96244  0  0  0.10196  0  1.028269  0  0  0.106849  0  1.023928  0  0  0.120911  0.098406  0  1.031553  0
H  H26  1  0.34290361  0.38990287  0.90336381  1  0  0.093832  0  0.962422  0  0  0.101971  0  1.028243  0  0  0.106862  0  1.023901  0  0  0.120917  0.098418  0  1.031527  0
H  H27  1  0.84290317  0.11009738  0.59663587  1  0  0.093811  0  0.962448  0  0  0.101951  0  1.028272  0  0  0.10684  0  1.023931  0  0  0.120905  0.098397  0  1.031556  0
H  H28  1  0.34290309  0.38990262  0.59663518  1  0  0.093808  0  0.962407  0  0  0.101917  0  1.028267  0  0  0.106806  0  1.023928  0  0  0.120916  0.098364  0  1.031551  0
H  H29  1  0.84290229  0.11009763  0.90336512  1  0  0.093811  0  0.96243  0  0  0.101952  0  1.028257  0  0  0.106843  0  1.023913  0  0  0.120902  0.098398  0  1.031541  0
H  H30  1  0.65709613  0.61009723  0.09663545  1  0  0.093815  0  0.962421  0  0  0.101951  0  1.028255  0  0  0.106841  0  1.023912  0  0  0.120915  0.098397  0  1.031538  0
H  H31  1  0.15709658  0.88990272  0.40336463  1  0  0.093822  0  0.962386  0  0  0.101931  0  1.028247  0  0  0.10682  0  1.023908  0  0  0.120923  0.098377  0  1.031532  0
H  H32  1  0.38077443  0.68711536  0.32761159  1  0  0.095441  0  0.959665  0  0  0.105358  0  1.020661  0  0  0.107923  0  1.020342  0  0  0.108554  0.103513  0  1.020978  0
H  H33  1  0.88077406  0.81288449  0.17238802  1  0  0.095465  0  0.959619  0  0  0.10538  0  1.020622  0  0  0.107945  0  1.020303  0  0  0.108566  0.103535  0  1.020938  0
H  H34  1  0.61922559  0.31288391  0.82761145  1  0  0.09546  0  0.959643  0  0  0.105378  0  1.020641  0  0  0.107943  0  1.020323  0  0  0.108566  0.103533  0  1.020958  0
H  H35  1  0.11922543  0.18711452  0.67238808  1  0  0.095454  0  0.959658  0  0  0.105373  0  1.020653  0  0  0.107937  0  1.020335  0  0  0.10856  0.103527  0  1.02097  0
H  H36  1  0.61922532  0.31288474  0.67238767  1  0  0.095462  0  0.959637  0  0  0.105382  0  1.020634  0  0  0.107946  0  1.020315  0  0  0.108559  0.103537  0  1.02095  0
H  H37  1  0.11922569  0.18711561  0.82761186  1  0  0.095475  0  0.959624  0  0  0.10539  0  1.020623  0  0  0.107955  0  1.020304  0  0  0.108564  0.103546  0  1.020939  0
H  H38  1  0.38077276  0.68711523  0.17238781  1  0  0.095434  0  0.959643  0  0  0.10535  0  1.020648  0  0  0.107915  0  1.020329  0  0  0.108557  0.103505  0  1.020964  0
H  H39  1  0.88077572  0.81288462  0.32761180  1  0  0.095471  0  0.959648  0  0  0.10539  0  1.020643  0  0  0.107955  0  1.020323  0  0  0.108563  0.103545  0  1.020959  0
H  H40  1  0.53094983  0.28321534  0.32596476  1  0  0.102511  0  0.971269  0  0  0.111684  0  1.034204  0  0  0.114602  0  1.033343  0  0  0.107247  0.109575  0  1.034928  0
H  H41  1  0.03094965  0.21678422  0.17403489  1  0  0.102509  0  0.971276  0  0  0.11168  0  1.034217  0  0  0.114598  0  1.033358  0  0  0.107242  0.109568  0  1.03495  0
H  H42  1  0.46905018  0.71678489  0.82596542  1  0  0.102533  0  0.971221  0  0  0.111666  0  1.034213  0  0  0.114582  0  1.033355  0  0  0.107245  0.109555  0  1.034941  0
H  H43  1  0.96905124  0.78321480  0.67403469  1  0  0.102492  0  0.971308  0  0  0.111663  0  1.03424  0  0  0.114578  0  1.033388  0  0  0.107238  0.109554  0  1.034965  0
H  H44  1  0.46905132  0.71678476  0.67403512  1  0  0.102498  0  0.971295  0  0  0.111678  0  1.034222  0  0  0.114596  0  1.033363  0  0  0.107239  0.109569  0  1.034946  0
H  H45  1  0.96905010  0.78321588  0.82596499  1  0  0.102504  0  0.971293  0  0  0.111676  0  1.034227  0  0  0.114594  0  1.033368  0  0  0.107234  0.109567  0  1.034952  0
H  H46  1  0.53094957  0.28321617  0.17403446  1  0  0.102504  0  0.97127  0  0  0.11167  0  1.034217  0  0  0.114588  0  1.033359  0  0  0.107237  0.109555  0  1.034962  0
H  H47  1  0.03094991  0.21678435  0.32596519  1  0  0.102514  0  0.971288  0  0  0.111688  0  1.034223  0  0  0.114605  0  1.033364  0  0  0.107238  0.109577  0  1.03495  0
C  C48  1  0.28060174  0.39703625  0.33975947  1  0  0.380684  0  3.830278  0  0  0.362499  0  4.091317  0  0  0.381386  0  4.101771  0  0  0.111288  0.349832  0  4.083939  0
C  C49  1  0.78060292  0.10296321  0.16023973  1  0  0.380667  0  3.830318  0  0  0.362455  0  4.091391  0  0  0.381347  0  4.101843  0  0  0.111272  0.349793  0  4.084008  0
C  C50  1  0.71939832  0.60296304  0.83976083  1  0  0.380657  0  3.830344  0  0  0.362484  0  4.091354  0  0  0.381375  0  4.1018  0  0  0.111295  0.349812  0  4.083983  0
C  C51  1  0.21939792  0.89703770  0.66023910  1  0  0.380675  0  3.830305  0  0  0.362481  0  4.091351  0  0  0.381381  0  4.101783  0  0  0.111285  0.34981  0  4.08398  0
C  C52  1  0.71939801  0.60296290  0.66023979  1  0  0.380693  0  3.8303  0  0  0.362482  0  4.09136  0  0  0.381369  0  4.101811  0  0  0.111274  0.349814  0  4.083982  0
C  C53  1  0.21939683  0.89703785  0.83976077  1  0  0.380694  0  3.830268  0  0  0.362492  0  4.091285  0  0  0.381385  0  4.10173  0  0  0.111298  0.349821  0  4.083913  0
C  C54  1  0.28060283  0.39703705  0.16023904  1  0  0.380666  0  3.830359  0  0  0.362471  0  4.091406  0  0  0.381363  0  4.101851  0  0  0.111282  0.349807  0  4.084023  0
C  C55  1  0.78060322  0.10296335  0.33975954  1  0  0.380685  0  3.830264  0  0  0.362471  0  4.091297  0  0  0.381361  0  4.10175  0  0  0.111289  0.349807  0  4.083917  0
C  C56  1  0.97788109  0.51537221  0.33952971  1  0  0.412261  0  3.773974  0  0  0.391264  0  4.037069  0  0  0.416461  0  4.039119  0  0  0.146755  0.374565  0  4.035114  0
C  C57  1  0.47788202  0.98462569  0.16046873  1  0  0.41229  0  3.774405  0  0  0.391301  0  4.037471  0  0  0.416531  0  4.039479  0  0  0.146824  0.374605  0  4.035513  0
C  C58  1  0.02211756  0.48462517  0.83953176  1  0  0.41231  0  3.774453  0  0  0.391325  0  4.037504  0  0  0.416547  0  4.039516  0  0  0.146814  0.374625  0  4.035548  0
C  C59  1  0.52211742  0.01537235  0.66046894  1  0  0.412276  0  3.774422  0  0  0.391311  0  4.037457  0  0  0.41652  0  4.039492  0  0  0.146818  0.374612  0  4.035501  0
C  C60  1  0.02211586  0.48462503  0.66046893  1  0  0.412253  0  3.774531  0  0  0.391252  0  4.037609  0  0  0.416474  0  4.039626  0  0  0.146795  0.374552  0  4.035655  0
C  C61  1  0.52211633  0.01537631  0.83953177  1  0  0.412343  0  3.774452  0  0  0.391351  0  4.037455  0  0  0.41657  0  4.039474  0  0  0.14687  0.374651  0  4.0355  0
C  C62  1  0.97788359  0.51537397  0.16046873  1  0  0.412278  0  3.774466  0  0  0.391286  0  4.037521  0  0  0.416508  0  4.039539  0  0  0.146819  0.374588  0  4.035566  0
C  C63  1  0.47788092  0.98463061  0.33953032  1  0  0.412149  0  3.774014  0  0  0.391108  0  4.037181  0  0  0.416322  0  4.039209  0  0  0.146698  0.374412  0  4.035223  0
C  C64  1  0.13280908  0.45961482  0.29498523  1  0  -0.203448  0  3.735728  0  0  -0.198418  0  3.982856  0  0  -0.214899  0  4.013672  0  0  -0.034314  -0.187593  0  3.962185  0
C  C65  1  0.63281047  0.04038469  0.20501572  1  0  -0.203389  0  3.735633  0  0  -0.198383  0  3.982758  0  0  -0.214879  0  4.013567  0  0  -0.034299  -0.18756  0  3.962085  0
C  C66  1  0.86718942  0.54038440  0.79498480  1  0  -0.203427  0  3.735718  0  0  -0.19839  0  3.982795  0  0  -0.214882  0  4.013606  0  0  -0.03431  -0.187564  0  3.962125  0
C  C67  1  0.36718912  0.95961628  0.70501586  1  0  -0.203438  0  3.735711  0  0  -0.19846  0  3.982839  0  0  -0.21495  0  4.013651  0  0  -0.034338  -0.187634  0  3.962167  0
C  C68  1  0.86718927  0.54038528  0.70501526  1  0  -0.203411  0  3.735721  0  0  -0.198358  0  3.982812  0  0  -0.214847  0  4.013624  0  0  -0.03429  -0.187532  0  3.96214  0
C  C69  1  0.36718928  0.95961636  0.79498477  1  0  -0.203347  0  3.735615  0  0  -0.198235  0  3.98262  0  0  -0.214727  0  4.013432  0  0  -0.034248  -0.18741  0  3.961949  0
C  C70  1  0.13281033  0.45961475  0.20501508  1  0  -0.203407  0  3.735744  0  0  -0.198374  0  3.982854  0  0  -0.214866  0  4.013664  0  0  -0.03429  -0.187549  0  3.962181  0
C  C71  1  0.63280922  0.04038477  0.29498587  1  0  -0.203366  0  3.735641  0  0  -0.198232  0  3.982686  0  0  -0.214721  0  4.013498  0  0  -0.03426  -0.187412  0  3.962017  0
C  C72  1  0.81160281  0.55772794  0.29356755  1  0  -0.051243  0  3.761711  0  0  -0.037877  0  3.989243  0  0  -0.042986  0  4.011972  0  0  -0.006947  -0.034513  0  3.973818  0
C  C73  1  0.31160394  0.94227385  0.20643386  1  0  -0.051302  0  3.761565  0  0  -0.03789  0  3.989107  0  0  -0.04301  0  4.011832  0  0  -0.006926  -0.034528  0  3.973683  0
C  C74  1  0.18839568  0.44227413  0.79356598  1  0  -0.05127  0  3.761684  0  0  -0.037886  0  3.989203  0  0  -0.043001  0  4.011925  0  0  -0.00693  -0.034523  0  3.973779  0
C  C75  1  0.68839706  0.05772427  0.70643359  1  0  -0.051211  0  3.76159  0  0  -0.037829  0  3.989074  0  0  -0.042941  0  4.0118  0  0  -0.00691  -0.034468  0  3.973651  0
C  C76  1  0.18839553  0.44227406  0.70643232  1  0  -0.051243  0  3.761618  0  0  -0.037882  0  3.989161  0  0  -0.042998  0  4.011884  0  0  -0.006935  -0.034519  0  3.973737  0
C  C77  1  0.68839721  0.05772530  0.79356663  1  0  -0.051325  0  3.761736  0  0  -0.037931  0  3.989217  0  0  -0.043048  0  4.011942  0  0  -0.006944  -0.034568  0  3.973793  0
C  C78  1  0.81160407  0.55772501  0.20643328  1  0  -0.051271  0  3.761614  0  0  -0.037864  0  3.989096  0  0  -0.042981  0  4.01182  0  0  -0.006923  -0.034502  0  3.973672  0
C  C79  1  0.31160129  0.94227487  0.29356814  1  0  -0.051114  0  3.761515  0  0  -0.037809  0  3.989164  0  0  -0.042925  0  4.011893  0  0  -0.006918  -0.034449  0  3.973741  0
C  C80  1  0.65564677  0.60622870  0.33617617  1  0  -0.061322  0  3.703868  0  0  -0.086091  0  3.957203  0  0  -0.085976  0  3.973279  0  0  -0.065495  -0.086101  0  3.946382  0
C  C81  1  0.15564640  0.89377030  0.16382390  1  0  -0.061369  0  3.703856  0  0  -0.086134  0  3.957177  0  0  -0.086018  0  3.973254  0  0  -0.06552  -0.086143  0  3.946356  0
C  C82  1  0.34435327  0.39376963  0.83617591  1  0  -0.061373  0  3.703867  0  0  -0.086132  0  3.957187  0  0  -0.086019  0  3.973263  0  0  -0.065526  -0.086143  0  3.946366  0
C  C83  1  0.84435446  0.10622966  0.66382377  1  0  -0.061354  0  3.703775  0  0  -0.086119  0  3.957096  0  0  -0.086004  0  3.97317  0  0  -0.065518  -0.086129  0  3.946275  0
C  C84  1  0.34435297  0.39376949  0.66382309  1  0  -0.061222  0  3.703703  0  0  -0.085949  0  3.957017  0  0  -0.085834  0  3.973093  0  0  -0.06545  -0.08596  0  3.946197  0
C  C85  1  0.84435335  0.10623076  0.83617659  1  0  -0.061279  0  3.703797  0  0  -0.086052  0  3.957097  0  0  -0.085938  0  3.973174  0  0  -0.065471  -0.086062  0  3.946275  0
C  C86  1  0.65564648  0.60623046  0.16382397  1  0  -0.061334  0  3.703807  0  0  -0.0861  0  3.957117  0  0  -0.085986  0  3.973194  0  0  -0.065513  -0.08611  0  3.946295  0
C  C87  1  0.15564669  0.89377044  0.33617610  1  0  -0.061303  0  3.703769  0  0  -0.086014  0  3.957114  0  0  -0.085899  0  3.973191  0  0  -0.065493  -0.086025  0  3.946295  0
C  C88  1  0.50115997  0.65182093  0.29335538  1  0  -0.05024  0  3.732597  0  0  -0.0667  0  3.987559  0  0  -0.067946  0  4.008105  0  0  -0.075301  -0.065786  0  3.973563  0
C  C89  1  0.00115978  0.84818195  0.20664521  1  0  -0.050217  0  3.732628  0  0  -0.066676  0  3.987583  0  0  -0.067921  0  4.008131  0  0  -0.075295  -0.065762  0  3.973586  0
C  C90  1  0.49883993  0.34818115  0.79335457  1  0  -0.050255  0  3.732647  0  0  -0.066723  0  3.987618  0  0  -0.067968  0  4.008165  0  0  -0.075322  -0.065809  0  3.973622  0
C  C91  1  0.99883982  0.15181713  0.70664460  1  0  -0.050236  0  3.732694  0  0  -0.066705  0  3.98766  0  0  -0.06795  0  4.008207  0  0  -0.075313  -0.065791  0  3.973663  0
C  C92  1  0.49883978  0.34818108  0.70664450  1  0  -0.050319  0  3.732708  0  0  -0.066788  0  3.987672  0  0  -0.068033  0  4.008217  0  0  -0.075335  -0.065875  0  3.973676  0
C  C93  1  0.99883997  0.15181815  0.79335528  1  0  -0.050306  0  3.732702  0  0  -0.066768  0  3.987662  0  0  -0.068014  0  4.008209  0  0  -0.075325  -0.065855  0  3.973664  0
C  C94  1  0.50115982  0.65181799  0.20664407  1  0  -0.050203  0  3.73263  0  0  -0.066667  0  3.987592  0  0  -0.067912  0  4.008139  0  0  -0.075298  -0.065754  0  3.973595  0
C  C95  1  0.00115993  0.84818202  0.29335528  1  0  -0.050314  0  3.732687  0  0  -0.06678  0  3.987647  0  0  -0.068026  0  4.008193  0  0  -0.075319  -0.065866  0  3.97365  0
C  C96  1  0.42016486  0.33146236  0.29201831  1  0  -0.135768  0  3.703801  0  0  -0.155633  0  3.956269  0  0  -0.158973  0  3.973527  0  0  -0.085007  -0.153293  0  3.944481  0
C  C97  1  0.92016475  0.16853703  0.20798098  1  0  -0.135663  0  3.703755  0  0  -0.15552  0  3.95622  0  0  -0.158858  0  3.973466  0  0  -0.084947  -0.153185  0  3.944431  0
C  C98  1  0.57983503  0.66853780  0.79201901  1  0  -0.135672  0  3.703694  0  0  -0.15551  0  3.956158  0  0  -0.158849  0  3.973409  0  0  -0.084963  -0.153171  0  3.944372  0
C  C99  1  0.07983626  0.83146205  0.70798084  1  0  -0.135649  0  3.703746  0  0  -0.155506  0  3.956191  0  0  -0.158852  0  3.973449  0  0  -0.084966  -0.153167  0  3.944405  0
C  C100  1  0.57983488  0.66853773  0.70798157  1  0  -0.135732  0  3.703823  0  0  -0.155602  0  3.956288  0  0  -0.158942  0  3.973544  0  0  -0.084978  -0.153264  0  3.944501  0
C  C101  1  0.07983360  0.83146307  0.79201828  1  0  -0.135757  0  3.703797  0  0  -0.15562  0  3.956244  0  0  -0.158958  0  3.973489  0  0  -0.084979  -0.153281  0  3.944458  0
C  C102  1  0.42016472  0.33146325  0.20798087  1  0  -0.135613  0  3.703689  0  0  -0.155472  0  3.956141  0  0  -0.158814  0  3.973394  0  0  -0.084925  -0.153139  0  3.94435  0
C  C103  1  0.92016629  0.16853710  0.29201842  1  0  -0.135762  0  3.703819  0  0  -0.155622  0  3.956284  0  0  -0.158961  0  3.973534  0  0  -0.084987  -0.153285  0  3.944497  0
O  O104  1  0.29622578  0.39260973  0.42023568  1  0  -0.696165  0  2.013883  0  0  -0.632804  0  2.231264  0  0  -0.657056  0  2.224172  0  0  -0.382239  -0.615905  0  2.235831  0
O  O105  1  0.79622668  0.10738971  0.07976476  1  0  -0.69623  0  2.013977  0  0  -0.632831  0  2.231341  0  0  -0.657086  0  2.224252  0  0  -0.382243  -0.615932  0  2.235905  0
O  O106  1  0.70377455  0.60738969  0.92023580  1  0  -0.696204  0  2.013958  0  0  -0.632846  0  2.231338  0  0  -0.657102  0  2.224249  0  0  -0.382255  -0.615944  0  2.235908  0
O  O107  1  0.20377389  0.89261010  0.57976474  1  0  -0.696229  0  2.014019  0  0  -0.632827  0  2.231381  0  0  -0.657083  0  2.224285  0  0  -0.382245  -0.615927  0  2.235949  0
O  O108  1  0.70377397  0.60739037  0.57976481  1  0  -0.696214  0  2.013958  0  0  -0.632821  0  2.23133  0  0  -0.657074  0  2.224241  0  0  -0.382243  -0.61592  0  2.235897  0
O  O109  1  0.20377306  0.89261038  0.92023574  1  0  -0.696189  0  2.013955  0  0  -0.632846  0  2.231344  0  0  -0.657103  0  2.224254  0  0  -0.382257  -0.615945  0  2.235912  0
O  O110  1  0.29622660  0.39261041  0.07976469  1  0  -0.696206  0  2.014023  0  0  -0.632831  0  2.231385  0  0  -0.657087  0  2.224296  0  0  -0.382243  -0.615932  0  2.235949  0
O  O111  1  0.79622586  0.10738999  0.42023575  1  0  -0.696168  0  2.013894  0  0  -0.632806  0  2.231284  0  0  -0.657059  0  2.224196  0  0  -0.382229  -0.615906  0  2.23585  0
O  O112  1  0.97722567  0.52899626  0.41783604  1  0  -0.687535  0  2.042002  0  0  -0.644808  0  2.278487  0  0  -0.662044  0  2.267127  0  0  -0.422894  -0.632862  0  2.286036  0
O  O113  1  0.47722634  0.97100356  0.08216673  1  0  -0.687575  0  2.042439  0  0  -0.644862  0  2.278925  0  0  -0.662106  0  2.267547  0  0  -0.42298  -0.632918  0  2.286473  0
O  O114  1  0.02277465  0.47100316  0.91783314  1  0  -0.687563  0  2.042498  0  0  -0.644848  0  2.27898  0  0  -0.66209  0  2.267603  0  0  -0.42295  -0.632905  0  2.28653  0
O  O115  1  0.52277423  0.02899531  0.58216695  1  0  -0.68755  0  2.042431  0  0  -0.644846  0  2.278907  0  0  -0.662084  0  2.267539  0  0  -0.422962  -0.632901  0  2.286456  0
O  O116  1  0.02277268  0.47100289  0.58216631  1  0  -0.687535  0  2.042469  0  0  -0.644811  0  2.278948  0  0  -0.662053  0  2.267575  0  0  -0.422936  -0.632866  0  2.286496  0
O  O117  1  0.52277200  0.02899845  0.91783315  1  0  -0.687599  0  2.042478  0  0  -0.6449  0  2.278967  0  0  -0.662141  0  2.267591  0  0  -0.423008  -0.632956  0  2.286517  0
O  O118  1  0.97722650  0.52899598  0.08216674  1  0  -0.687551  0  2.042433  0  0  -0.644837  0  2.27892  0  0  -0.66208  0  2.267547  0  0  -0.422966  -0.632893  0  2.286469  0
O  O119  1  0.47722691  0.97100288  0.41783850  1  0  -0.68755  0  2.042008  0  0  -0.644797  0  2.278496  0  0  -0.662039  0  2.26713  0  0  -0.422898  -0.63285  0  2.286041  0
O  O120  1  0.35456403  0.65866889  0.51689617  1  0  -0.900518  0  1.727387  0  0  -0.855099  0  1.885475  0  0  -0.871186  0  1.855111  0  0  -0.650351  -0.843651  0  1.906706  0
O  O121  1  0.85456469  0.84133084  0.98310386  1  0  -0.900565  0  1.72735  0  0  -0.855125  0  1.885447  0  0  -0.871212  0  1.855082  0  0  -0.650366  -0.843678  0  1.906677  0
O  O122  1  0.64543632  0.34133082  0.01689625  1  0  -0.900515  0  1.727384  0  0  -0.855096  0  1.885469  0  0  -0.871182  0  1.855106  0  0  -0.650351  -0.843646  0  1.9067  0
O  O123  1  0.14543725  0.15866964  0.48310348  1  0  -0.900518  0  1.727353  0  0  -0.855123  0  1.885465  0  0  -0.87121  0  1.8551  0  0  -0.650346  -0.843675  0  1.906696  0
O  O124  1  0.64543572  0.34133121  0.48310371  1  0  -0.90052  0  1.727401  0  0  -0.855099  0  1.885472  0  0  -0.871186  0  1.855107  0  0  -0.650356  -0.843651  0  1.906702  0
O  O125  1  0.14543646  0.15866926  0.01689602  1  0  -0.900487  0  1.727425  0  0  -0.85513  0  1.885422  0  0  -0.871216  0  1.855059  0  0  -0.650376  -0.843682  0  1.906653  0
O  O126  1  0.35456482  0.65866928  0.98310363  1  0  -0.900497  0  1.727402  0  0  -0.855121  0  1.885427  0  0  -0.871208  0  1.855063  0  0  -0.650373  -0.843673  0  1.906658  0
O  O127  1  0.85456530  0.84133046  0.51689578  1  0  -0.90057  0  1.72731  0  0  -0.855142  0  1.885452  0  0  -0.871228  0  1.855087  0  0  -0.650362  -0.843695  0  1.906683  0
