# generated using pymatgen
data_SrCuH10C14N2O11
_symmetry_space_group_name_H-M   'P 1'
_cell_length_a   9.23649297
_cell_length_b   9.60269041
_cell_length_c   10.27193523
_cell_angle_alpha   106.70108008
_cell_angle_beta   92.45581009
_cell_angle_gamma   116.16554374
_symmetry_Int_Tables_number   1
_chemical_formula_structural   SrCuH10C14N2O11
_chemical_formula_sum   'Sr2 Cu2 H20 C28 N4 O22'
_cell_volume   767.82620962
_cell_formula_units_Z   2
loop_
 _symmetry_equiv_pos_site_id
 _symmetry_equiv_pos_as_xyz
  1  'x, y, z'
loop_
 _atom_site_type_symbol
 _atom_site_label
 _atom_site_symmetry_multiplicity
 _atom_site_fract_x
 _atom_site_fract_y
 _atom_site_fract_z
 _atom_site_occupancy
 _atom_site_hle17_ddec_charge
 _atom_site_hle17_ddec_spin_density
 _atom_site_hle17_ddec_sum_bond_order
 _atom_site_hle17_magmom
 _atom_site_hse06_10hf_ddec_charge
 _atom_site_hse06_10hf_ddec_spin_density
 _atom_site_hse06_10hf_ddec_sum_bond_order
 _atom_site_hse06_10hf_magmom
 _atom_site_hse06_ddec_charge
 _atom_site_hse06_ddec_spin_density
 _atom_site_hse06_ddec_sum_bond_order
 _atom_site_hse06_magmom
 _atom_site_pbe_cm5_charge
 _atom_site_pbe_ddec_charge
 _atom_site_pbe_ddec_spin_density
 _atom_site_pbe_ddec_sum_bond_order
 _atom_site_pbe_magmom
Sr  Sr0  1  0.58658466  0.40066388  0.11653885  1  1.657516  0.000336  1.025773  0.0  1.525945  0.000191  1.384104  0.0  1.564144  0.00015  1.339179  0.0  0.938322  1.495917  1e-05  1.418555  0.0
Sr  Sr1  1  0.41341479  0.59933284  0.88346090  1  1.657481  -0.000347  1.025773  0.0  1.525882  -0.000193  1.384138  0.0  1.564085  -0.00015  1.339205  0.0  0.93828  1.495851  -9e-06  1.41859  0.0
Cu  Cu2  1  0.16413977  0.82322338  0.19269396  1  0.900039  -0.727595  1.740529  -0.517  0.866326  -0.81009  2.130495  -0.633  0.960838  -0.886296  2.060191  -0.722  0.758596  0.808755  -0.750167  2.17832  -0.571
Cu  Cu3  1  0.83585769  0.17678073  0.80730486  1  0.90011  0.727632  1.740564  0.517  0.866331  0.810089  2.130505  0.633  0.960827  0.886297  2.060229  0.722  0.758633  0.80879  0.750153  2.178365  0.572
H  H4  1  0.05478528  0.23703177  0.22644352  1  0.129825  -0.000407  0.926728  -0.001  0.138692  -0.000362  0.985091  0.0  0.14355  -0.000244  0.981349  0.0  0.120012  0.134755  -0.000393  0.988548  -0.001
H  H5  1  0.94521423  0.76296741  0.77355691  1  0.129793  0.000409  0.926833  0.001  0.138665  0.000362  0.985194  0.0  0.143521  0.000244  0.981453  0.0  0.120015  0.134733  0.000393  0.988653  0.001
H  H6  1  0.24198144  0.65502028  0.60280069  1  0.123896  -0.000539  0.962322  -0.001  0.128862  -0.000424  1.032497  -0.001  0.133113  -0.000283  1.029719  0.0  0.119561  0.126187  -0.000551  1.03442  -0.001
H  H7  1  0.75801212  0.34498012  0.39719599  1  0.123882  0.000545  0.962233  0.001  0.128811  0.000423  1.032467  0.001  0.133065  0.000283  1.029686  0.0  0.119537  0.126133  0.000551  1.034388  0.001
H  H8  1  0.32964648  0.90715237  0.68684170  1  0.122408  -0.000812  0.993405  -0.001  0.131094  -0.000616  1.054637  -0.001  0.134733  -0.000424  1.05227  -0.001  0.11666  0.128309  -0.000759  1.056346  -0.001
H  H9  1  0.67034959  0.09283945  0.31315267  1  0.122394  0.000813  0.993462  0.001  0.131069  0.000616  1.054688  0.001  0.134706  0.000424  1.052326  0.001  0.116633  0.128281  0.000759  1.056405  0.001
H  H10  1  0.47314834  0.35050655  0.58466350  1  0.140283  -0.000992  0.925133  -0.001  0.146139  -0.000777  0.990142  -0.001  0.150665  -0.000526  0.986966  -0.001  0.129146  0.142691  -0.000912  0.992513  -0.001
H  H11  1  0.52685169  0.64949137  0.41533952  1  0.140326  0.00099  0.92509  0.001  0.146155  0.000777  0.990112  0.001  0.150682  0.000527  0.986935  0.001  0.12914  0.142708  0.000911  0.992484  0.001
H  H12  1  0.97034092  0.96565207  0.31866302  1  0.434388  2.3e-05  0.860228  0.0  0.405485  -1.5e-05  0.921883  0.0  0.416466  1e-06  0.905863  0.0  0.292154  0.398182  -3.3e-05  0.932448  0.0
H  H13  1  0.02966409  0.03434962  0.68133829  1  0.434354  -2.3e-05  0.860289  0.0  0.405425  1.5e-05  0.921961  0.0  0.416403  -1e-06  0.905948  0.0  0.292136  0.398126  3.3e-05  0.932522  0.0
H  H14  1  0.87994033  0.77370853  0.29455112  1  0.406489  7.9e-05  0.899176  0.0  0.371894  4.7e-05  0.977822  0.0  0.383937  5.2e-05  0.960329  0.0  0.28593  0.363214  3e-05  0.990602  0.0
H  H15  1  0.12006142  0.22629314  0.70544911  1  0.406478  -7.9e-05  0.899162  0.0  0.371855  -4.8e-05  0.977873  0.0  0.383897  -5.1e-05  0.960379  0.0  0.285907  0.363173  -3e-05  0.990656  0.0
H  H16  1  0.19297002  0.18645536  0.92119634  1  0.428851  2e-06  0.864607  0.0  0.40335  -7e-06  0.918496  0.0  0.412769  -3e-06  0.904703  0.0  0.292967  0.396562  5e-06  0.928439  0.0
H  H17  1  0.80702623  0.81354378  0.07880494  1  0.428868  -2e-06  0.86458  0.0  0.403366  7e-06  0.918463  0.0  0.412779  2e-06  0.904681  0.0  0.292974  0.396574  -4e-06  0.928412  0.0
H  H18  1  0.23049461  0.13697943  0.05081990  1  0.412084  -0.000179  0.889871  0.0  0.385771  -0.000239  0.946583  0.0  0.397578  -0.000138  0.929182  0.0  0.292818  0.377344  -0.000302  0.959028  0.0
H  H19  1  0.76950330  0.86302095  0.94918179  1  0.412004  0.000179  0.889971  0.0  0.385706  0.000239  0.946657  0.0  0.39751  0.000137  0.92926  0.0  0.292798  0.377277  0.000303  0.959109  0.0
H  H20  1  0.59389761  0.05602313  0.12002745  1  0.437743  -1.3e-05  0.846108  0.0  0.411709  -2e-06  0.905372  0.0  0.421673  -5e-06  0.890635  0.0  0.306902  0.403825  7e-06  0.917075  0.0
H  H21  1  0.40609501  0.94396125  0.87996765  1  0.43766  1.3e-05  0.846092  0.0  0.411604  2e-06  0.905498  0.0  0.42157  6e-06  0.890755  0.0  0.306844  0.403718  -7e-06  0.917205  0.0
H  H22  1  0.75735710  0.18975964  0.09399865  1  0.425928  9.8e-05  0.87158  0.0  0.396736  0.00011  0.933045  0.0  0.407467  3.7e-05  0.917316  0.0  0.299533  0.388912  0.000174  0.944537  0.0
H  H23  1  0.24263450  0.81022718  0.90599807  1  0.425864  -9.8e-05  0.871678  0.0  0.396667  -0.00011  0.933151  0.0  0.407397  -3.7e-05  0.917425  0.0  0.299488  0.388841  -0.000174  0.944646  0.0
C  C24  1  0.10719364  0.47154541  0.20722348  1  0.147479  0.009065  3.662787  0.01  0.154139  0.002834  3.909353  0.004  0.159915  0.002846  3.923786  0.004  0.141778  0.151242  0.002874  3.898038  0.004
C  C25  1  0.89281034  0.52845884  0.79276878  1  0.147342  -0.009083  3.662753  -0.01  0.154031  -0.002833  3.909304  -0.004  0.159805  -0.002845  3.923731  -0.004  0.141802  0.15114  -0.002872  3.897997  -0.004
C  C26  1  0.09776096  0.36747366  0.28177747  1  -0.093789  -0.00535  3.609994  -0.006  -0.128661  -0.003088  3.856657  -0.004  -0.130318  -0.002675  3.86999  -0.003  -0.056771  -0.126424  -0.003437  3.847152  -0.004
C  C27  1  0.90223496  0.63253412  0.71822328  1  -0.093659  0.005366  3.609947  0.006  -0.128602  0.003087  3.856652  0.004  -0.130254  0.002676  3.869986  0.003  -0.056829  -0.126375  0.003437  3.847163  0.004
C  C28  1  0.14620001  0.43197736  0.42597696  1  0.012563  0.004414  3.686121  0.004  0.030293  0.001862  3.923888  0.002  0.030381  0.001891  3.940465  0.002  0.012451  0.029822  0.001888  3.914281  0.002
C  C29  1  0.85379322  0.56803161  0.57402500  1  0.012494  -0.004425  3.686237  -0.004  0.030292  -0.001861  3.923928  -0.002  0.030368  -0.001891  3.940524  -0.002  0.012552  0.029825  -0.001888  3.914323  -0.002
C  C30  1  0.20155225  0.60022828  0.49061994  1  -0.12613  -0.00228  3.661274  -0.002  -0.156236  -0.001148  3.907354  -0.001  -0.160225  -0.001131  3.925585  -0.001  -0.063852  -0.156805  -0.001316  3.900436  -0.001
C  C31  1  0.79844642  0.39978076  0.50938028  1  -0.126178  0.002288  3.661119  0.002  -0.156288  0.001146  3.907163  0.001  -0.160257  0.001132  3.925418  0.001  -0.063915  -0.15685  0.001317  3.900239  0.001
C  C32  1  0.20406876  0.69615631  0.41052852  1  0.16904  0.002094  3.765767  0.002  0.169737  -0.000726  4.012623  -0.001  0.175271  -9e-05  4.034513  0.0  0.119044  0.165804  -0.000989  4.000434  -0.001
C  C33  1  0.79592749  0.30384286  0.58947082  1  0.169054  -0.002116  3.765483  -0.002  0.169805  0.000727  4.012246  0.001  0.175277  8.8e-05  4.034218  0.0  0.119056  0.165875  0.00099  4.000066  0.001
C  C34  1  0.26973363  0.87520644  0.47184798  1  0.197555  0.004187  3.778406  0.005  0.192224  8e-06  4.025779  0.001  0.200761  0.001213  4.045823  0.003  0.126282  0.185897  -0.001018  4.014578  0.0
C  C35  1  0.73027236  0.12479036  0.52815006  1  0.197684  -0.004173  3.778297  -0.005  0.192319  -6e-06  4.025641  -0.001  0.200873  -0.001209  4.045692  -0.002  0.126319  0.185989  0.001019  4.01446  0.0
C  C36  1  0.33505135  0.96785484  0.61143600  1  -0.109026  -0.00786  3.616877  -0.008  -0.142292  -0.003431  3.860937  -0.004  -0.145344  -0.003168  3.877013  -0.003  -0.063259  -0.138391  -0.003634  3.849705  -0.004
C  C37  1  0.66494829  0.03214927  0.38856484  1  -0.109073  0.007845  3.617094  0.008  -0.142265  0.003427  3.861106  0.004  -0.145318  0.003162  3.87718  0.003  -0.063237  -0.138366  0.003635  3.849883  0.004
C  C38  1  0.40782349  0.13946154  0.65399096  1  0.011652  0.007573  3.672719  0.007  0.029977  0.002639  3.910588  0.003  0.029632  0.002838  3.925253  0.003  0.01289  0.029178  0.002518  3.900439  0.002
C  C39  1  0.59217895  0.86054630  0.34601003  1  0.011749  -0.007564  3.672792  -0.007  0.02999  -0.002636  3.910656  -0.003  0.029645  -0.002836  3.925323  -0.003  0.012903  0.029186  -0.002518  3.900506  -0.002
C  C40  1  0.41557072  0.21676612  0.55593680  1  -0.089763  -0.006694  3.619799  -0.007  -0.126537  -0.003111  3.870965  -0.003  -0.127549  -0.003073  3.884715  -0.003  -0.053189  -0.124694  -0.003277  3.863297  -0.003
C  C41  1  0.58443263  0.78323436  0.44406120  1  -0.0898  0.006687  3.619738  0.007  -0.126505  0.003111  3.870891  0.003  -0.127514  0.003075  3.88464  0.003  -0.053138  -0.124661  0.003277  3.863228  0.003
C  C42  1  0.34731542  0.11638780  0.41817112  1  0.117972  0.006192  3.734007  0.007  0.122452  0.001016  3.979395  0.002  0.127896  0.001809  3.99584  0.003  0.120672  0.117523  0.000444  3.971098  0.002
C  C43  1  0.65268794  0.88361267  0.58182786  1  0.117998  -0.006182  3.733921  -0.007  0.12245  -0.001017  3.979339  -0.002  0.127891  -0.001812  3.995784  -0.003  0.120643  0.117523  -0.000443  3.971058  -0.002
C  C44  1  0.35152723  0.17368128  0.29652298  1  0.620839  0.003338  3.899031  0.005  0.571856  -0.000877  4.200677  0.0  0.606715  -0.000776  4.197112  0.0  0.223246  0.54824  -0.00103  4.202284  0.0
C  C45  1  0.64848117  0.82632533  0.70348176  1  0.620762  -0.003334  3.898712  -0.005  0.571763  0.000875  4.200411  0.0  0.606625  0.000775  4.196845  0.0  0.223204  0.548156  0.001032  4.202027  0.0
C  C46  1  0.48158996  0.23596258  0.80504305  1  0.663215  -0.00045  3.938562  -0.001  0.610147  -0.000211  4.23836  0.0  0.643725  -0.000195  4.229173  0.0  0.2127  0.587788  -0.00014  4.243028  0.0
C  C47  1  0.51840771  0.76402793  0.19495880  1  0.662987  0.000447  3.938918  0.001  0.610028  0.000208  4.238534  0.0  0.643606  0.000195  4.229364  0.0  0.212649  0.587677  0.00014  4.243187  0.0
C  C48  1  0.13423538  0.32147767  0.51010691  1  0.642889  -0.000431  3.921748  -0.001  0.594342  -0.000103  4.217488  0.0  0.626431  -9.8e-05  4.210784  0.0  0.209821  0.573334  -0.000107  4.220934  0.0
C  C49  1  0.86577526  0.67853149  0.48989278  1  0.642972  0.000434  3.921896  0.001  0.594412  0.000103  4.217639  0.0  0.626505  9.5e-05  4.210932  0.0  0.209786  0.573402  0.000107  4.221086  0.0
C  C50  1  0.06145545  0.40191872  0.05089847  1  0.657346  -0.004049  3.876673  -0.007  0.606587  -0.001225  4.17489  -0.004  0.643156  -0.001106  4.165865  -0.003  0.235513  0.581341  -0.001179  4.180687  -0.004
C  C51  1  0.93854349  0.59807927  0.94909772  1  0.657327  0.004046  3.876741  0.007  0.606563  0.001225  4.174957  0.004  0.643132  0.001109  4.165935  0.003  0.235473  0.581315  0.001181  4.180748  0.004
N  N52  1  0.15710185  0.63327195  0.27001963  1  -0.336282  -0.06236  3.186784  -0.077  -0.31165  -0.047436  3.479733  -0.063  -0.338308  -0.037631  3.49943  -0.053  -0.301463  -0.293745  -0.052511  3.466235  -0.067
N  N53  1  0.84289933  0.36672849  0.72997927  1  -0.336293  0.062376  3.1868  0.077  -0.311647  0.047437  3.479672  0.063  -0.338278  0.037636  3.499383  0.053  -0.301466  -0.293746  0.052511  3.466199  0.067
N  N54  1  0.27569934  0.95165546  0.38039634  1  -0.338073  -0.094442  3.436976  -0.116  -0.303306  -0.064446  3.730995  -0.084  -0.335973  -0.052717  3.754374  -0.072  -0.359929  -0.285768  -0.070215  3.719877  -0.088
N  N55  1  0.72430292  0.04834498  0.61960356  1  -0.338176  0.094417  3.436977  0.116  -0.303407  0.064441  3.731028  0.084  -0.336065  0.052712  3.754398  0.072  -0.359975  -0.285879  0.07021  3.719961  0.088
O  O56  1  0.26997601  0.05673216  0.17910642  1  -0.583702  -0.089665  2.02107  -0.119  -0.548051  -0.058788  2.281561  -0.085  -0.591362  -0.043781  2.274251  -0.067  -0.299008  -0.519192  -0.068301  2.286424  -0.095
O  O57  1  0.73002964  0.94327317  0.82089983  1  -0.583685  0.089664  2.020912  0.119  -0.548027  0.058787  2.281393  0.085  -0.591334  0.043781  2.274086  0.067  -0.298978  -0.519163  0.068303  2.28627  0.095
O  O58  1  0.43485447  0.32306704  0.31141620  1  -0.604708  -0.022821  1.935371  -0.028  -0.562543  -0.011367  2.173992  -0.015  -0.591696  -0.005194  2.168805  -0.007  -0.329704  -0.540582  -0.017583  2.176232  -0.023
O  O59  1  0.56514907  0.67694077  0.68858775  1  -0.604681  0.022818  1.935266  0.028  -0.562499  0.011371  2.173913  0.015  -0.591655  0.005195  2.168726  0.007  -0.329691  -0.540536  0.017586  2.176152  0.023
O  O60  1  0.50034159  0.38165494  0.85259476  1  -0.724485  0.000616  2.007559  0.001  -0.660782  0.000333  2.256823  0.0  -0.687025  0.000307  2.247304  0.0  -0.394106  -0.641746  0.000302  2.262936  0.0
O  O61  1  0.49964662  0.61832675  0.14741601  1  -0.724477  -0.000615  2.007648  -0.001  -0.660816  -0.000329  2.256864  0.0  -0.687052  -0.000303  2.247332  0.0  -0.394089  -0.641788  -0.000302  2.26297  0.0
O  O62  1  0.52143944  0.16592524  0.87708810  1  -0.704471  -0.000204  2.011343  0.001  -0.662233  -0.00046  2.270083  0.0  -0.687572  -0.000435  2.256817  0.0  -0.348164  -0.644901  -0.000431  2.279524  0.0
O  O63  1  0.47855496  0.83406522  0.12291654  1  -0.70428  0.000207  2.011477  -0.001  -0.662106  0.000461  2.270199  0.0  -0.687442  0.000433  2.256916  0.0  -0.348061  -0.644745  0.00043  2.279555  0.0
O  O64  1  0.19514468  0.39122981  0.64031765  1  -0.69328  9.9e-05  1.95173  0.0  -0.632228  2e-06  2.189338  0.0  -0.659243  -4e-06  2.181132  0.0  -0.339748  -0.613541  0.000202  2.194835  0.0
O  O65  1  0.80485610  0.60877679  0.35968197  1  -0.69323  -0.000102  1.951672  0.0  -0.632183  -3e-06  2.189266  0.0  -0.659197  4e-06  2.18106  0.0  -0.339671  -0.613492  -0.000202  2.19476  0.0
O  O66  1  0.06189863  0.16821691  0.44604010  1  -0.623326  0.000734  1.969468  0.001  -0.571984  0.000296  2.195132  0.0  -0.596343  0.000271  2.188923  0.0  -0.315883  -0.555275  0.000166  2.19919  0.0
O  O67  1  0.93812444  0.83178858  0.55396677  1  -0.6234  -0.000737  1.969564  -0.001  -0.572058  -0.000295  2.195232  0.0  -0.596412  -0.00027  2.189016  0.0  -0.315916  -0.555364  -0.000166  2.199317  0.0
O  O68  1  0.92337295  0.26646979  0.00350297  1  -0.609611  0.068331  2.145963  0.088  -0.564554  0.040717  2.425189  0.057  -0.606732  0.031962  2.414273  0.047  -0.313799  -0.536405  0.04545  2.432923  0.061
O  O69  1  0.07662777  0.73353439  0.99649208  1  -0.609598  -0.068333  2.146006  -0.088  -0.564551  -0.040717  2.425241  -0.057  -0.606732  -0.031963  2.414324  -0.047  -0.313791  -0.536394  -0.04545  2.432937  -0.061
O  O70  1  0.15079732  0.47357490  0.97882721  1  -0.633743  -0.000823  2.021431  0.0  -0.590658  -0.000216  2.276288  0.0  -0.61825  -0.000265  2.269829  0.0  -0.332597  -0.571199  -0.00041  2.282178  0.0
O  O71  1  0.84920437  0.52642435  0.02116845  1  -0.633678  0.000822  2.02139  0.0  -0.590632  0.000219  2.276315  0.0  -0.618224  0.000264  2.26986  0.0  -0.332568  -0.571173  0.000411  2.2822  0.0
O  O72  1  0.92924373  0.85588118  0.24636554  1  -0.842167  -0.004783  1.884583  -0.007  -0.794082  -0.0038  2.07296  -0.006  -0.818016  -0.002494  2.037683  -0.005  -0.569764  -0.777404  -0.005152  2.097751  -0.007
O  O73  1  0.07075693  0.14412047  0.75363561  1  -0.842115  0.004783  1.884575  0.007  -0.793954  0.003799  2.073062  0.006  -0.817899  0.002492  2.037808  0.005  -0.569723  -0.777274  0.00515  2.097858  0.007
O  O74  1  0.26131074  0.22821226  0.01424781  1  -0.881445  -0.000942  1.842582  -0.001  -0.827503  -0.000539  2.007683  -0.001  -0.847455  -0.000315  1.977854  0.0  -0.614846  -0.812961  -0.000884  2.028905  -0.001
O  O75  1  0.73868340  0.77178931  0.98575505  1  -0.881387  0.000942  1.842636  0.001  -0.82744  0.000539  2.007751  0.001  -0.847387  0.000318  1.977933  0.0  -0.614852  -0.812901  0.000885  2.028975  0.001
O  O76  1  0.66668296  0.17587905  0.14549488  1  -0.866018  0.00059  1.797169  0.001  -0.810421  0.000363  1.964103  0.0  -0.829365  0.00016  1.933491  0.0  -0.610946  -0.79578  0.000457  1.986843  0.001
O  O77  1  0.33330915  0.82410655  0.85450152  1  -0.865854  -0.000587  1.79717  -0.001  -0.810244  -0.000363  1.964175  0.0  -0.829188  -0.00016  1.933566  0.0  -0.610839  -0.795593  -0.000456  1.986918  -0.001
