# generated using pymatgen
data_NiH12C18(SN3)2
_symmetry_space_group_name_H-M   'P 1'
_cell_length_a   10.84657635
_cell_length_b   14.70259895
_cell_length_c   15.73675726
_cell_angle_alpha   90.00038992
_cell_angle_beta   89.99972750
_cell_angle_gamma   90.00018183
_symmetry_Int_Tables_number   1
_chemical_formula_structural   NiH12C18(SN3)2
_chemical_formula_sum   'Ni4 H48 C72 S8 N24'
_cell_volume   2509.58571834
_cell_formula_units_Z   4
loop_
 _symmetry_equiv_pos_site_id
 _symmetry_equiv_pos_as_xyz
  1  'x, y, z'
loop_
 _atom_site_type_symbol
 _atom_site_label
 _atom_site_symmetry_multiplicity
 _atom_site_fract_x
 _atom_site_fract_y
 _atom_site_fract_z
 _atom_site_occupancy
 _atom_site_pbe_bader_charge
 _atom_site_pbe_bader_spin_density
 _atom_site_pbe_cm5_charge
 _atom_site_pbe_ddec_charge
 _atom_site_pbe_ddec_spin_density
 _atom_site_pbe_ddec_sum_bond_order
 _atom_site_pbe_magmom
Ni  Ni0  1  0.15728770  0.00000159  0.75000113  1  0.938929  1.381641  0.557424  0.406823  1.711351  2.957255  1.37
Ni  Ni1  1  0.34271473  0.50000072  0.24999977  1  0.938936  1.381626  0.557465  0.406539  1.711338  2.957677  1.37
Ni  Ni2  1  0.84272408  0.00000133  0.24999797  1  0.939003  -1.381626  0.55747  0.406783  -1.711338  2.957245  -1.37
Ni  Ni3  1  0.65727039  0.49999683  0.74999932  1  0.938891  -1.381633  0.557504  0.406729  -1.711352  2.957266  -1.37
H  H4  1  0.45042823  0.91439656  0.69327710  1  0.04566  0.00155  0.1182  0.081447  0.000722  0.966878  0.001
H  H5  1  0.04960047  0.58560200  0.19328428  1  0.045951  0.00155  0.11818  0.081556  0.000723  0.966781  0.001
H  H6  1  0.45042995  0.08560133  0.80672352  1  0.045583  0.00155  0.11822  0.081524  0.000723  0.966917  0.001
H  H7  1  0.04958962  0.41439391  0.30671880  1  0.04588  0.001549  0.118216  0.08158  0.000722  0.966788  0.001
H  H8  1  0.54957533  0.08562003  0.30670865  1  0.045784  -0.001548  0.118263  0.081497  -0.000722  0.966971  -0.001
H  H9  1  0.95040770  0.41439215  0.80672053  1  0.045946  -0.00155  0.118174  0.081502  -0.000723  0.966902  -0.001
H  H10  1  0.54957453  0.91437649  0.19328637  1  0.045875  -0.001548  0.11823  0.081443  -0.000722  0.967023  -0.001
H  H11  1  0.95039918  0.58561452  0.69328283  1  0.046089  -0.00155  0.118214  0.08152  -0.000722  0.966989  -0.001
H  H12  1  0.49351935  0.78984138  0.58872841  1  0.133542  -0.000292  0.100806  0.116867  -0.000462  1.081848  0.0
H  H13  1  0.00650266  0.71016117  0.08873716  1  0.133866  -0.000293  0.100749  0.116687  -0.000462  1.08165  0.0
H  H14  1  0.49352454  0.21015390  0.91127587  1  0.133514  -0.000292  0.100815  0.116792  -0.000462  1.081926  0.0
H  H15  1  0.00649341  0.28983599  0.41126607  1  0.133711  -0.000292  0.100708  0.11664  -0.000462  1.081601  0.0
H  H16  1  0.50648328  0.21019901  0.41123764  1  0.133874  0.000293  0.100652  0.116478  0.000463  1.08183  0.0
H  H17  1  0.99349721  0.28983025  0.91127083  1  0.133694  0.000293  0.100701  0.116678  0.000462  1.081607  0.0
H  H18  1  0.50648639  0.78979128  0.08876579  1  0.133784  0.000293  0.100688  0.116495  0.000463  1.081825  0.0
H  H19  1  0.99348802  0.71017584  0.58873239  1  0.133844  0.000293  0.100741  0.116687  0.000462  1.081531  0.0
H  H20  1  0.50960285  0.68561734  0.50314816  1  0.160121  3.7e-05  0.101582  0.107508  -0.000216  1.080339  0.0
H  H21  1  0.99040716  0.81436820  0.00315529  1  0.16002  3.5e-05  0.101608  0.1075  -0.000216  1.080197  0.0
H  H22  1  0.50960880  0.31437730  0.99685607  1  0.159953  3.7e-05  0.10159  0.107581  -0.000215  1.08023  0.0
H  H23  1  0.99040155  0.18563491  0.49684713  1  0.160044  3.5e-05  0.101647  0.10759  -0.000216  1.080163  0.0
H  H24  1  0.49038780  0.31435844  0.49687190  1  0.160073  -3.6e-05  0.101595  0.10761  0.000215  1.080099  0.0
H  H25  1  0.00959640  0.18562459  0.99684825  1  0.160128  -3.6e-05  0.101574  0.107561  0.000216  1.080279  0.0
H  H26  1  0.49039660  0.68562637  0.00313349  1  0.159938  -3.6e-05  0.101559  0.107524  0.000215  1.080359  0.0
H  H27  1  0.00958541  0.81437964  0.50315196  1  0.160251  -3.6e-05  0.101595  0.107488  0.000216  1.080163  0.0
H  H28  1  0.11413810  0.69321604  0.46803362  1  0.09787  0.001004  0.105606  0.109793  0.00042  1.045695  0.001
H  H29  1  0.38587218  0.80678182  0.96801263  1  0.097722  0.001004  0.105595  0.109707  0.000419  1.045854  0.001
H  H30  1  0.11414065  0.30678956  0.03196352  1  0.098495  0.001003  0.105607  0.109817  0.000419  1.045719  0.001
H  H31  1  0.38586691  0.19321659  0.53199075  1  0.097836  0.001004  0.105556  0.109651  0.000419  1.045853  0.001
H  H32  1  0.88587099  0.30685905  0.53191781  1  0.09848  -0.001003  0.105721  0.110054  -0.000419  1.045621  -0.001
H  H33  1  0.61412216  0.19317220  0.03195786  1  0.098635  -0.001003  0.105634  0.109947  -0.000419  1.045644  -0.001
H  H34  1  0.88587397  0.69314609  0.96807179  1  0.098713  -0.001003  0.105693  0.110072  -0.000419  1.045684  -0.001
H  H35  1  0.61411452  0.80683197  0.46803821  1  0.098493  -0.001003  0.105617  0.109864  -0.000419  1.045817  -0.001
H  H36  1  0.52014925  0.58155026  0.37873717  1  0.114494  0.00276  0.112152  0.089008  0.001231  0.995808  0.001
H  H37  1  0.97984444  0.91843259  0.87874708  1  0.114518  0.00276  0.112049  0.088812  0.001231  0.995728  0.001
H  H38  1  0.52015439  0.41844823  0.12126621  1  0.114721  0.002761  0.112195  0.08906  0.001231  0.99572  0.001
H  H39  1  0.97983170  0.08157416  0.62125618  1  0.114544  0.00276  0.112192  0.089067  0.001231  0.995624  0.001
H  H40  1  0.47983956  0.41840103  0.62130068  1  0.114618  -0.00276  0.112122  0.088947  -0.001231  0.99597  -0.001
H  H41  1  0.02016372  0.08158537  0.12127298  1  0.114483  -0.002761  0.112083  0.088892  -0.001232  0.995758  -0.001
H  H42  1  0.47984547  0.58158741  0.87870302  1  0.114617  -0.002761  0.112151  0.088958  -0.001231  0.995963  -0.001
H  H43  1  0.02015618  0.91842271  0.37873210  1  0.114484  -0.002761  0.112096  0.088846  -0.001232  0.995813  -0.001
H  H44  1  0.14199685  0.58565710  0.34737051  1  0.06511  0.00175  0.114041  0.076883  0.000677  1.005886  0.001
H  H45  1  0.35800039  0.91439973  0.84740431  1  0.064857  0.00175  0.114055  0.076949  0.000678  1.005959  0.001
H  H46  1  0.14199809  0.41435198  0.15262336  1  0.065299  0.00175  0.114015  0.076916  0.000677  1.005869  0.001
H  H47  1  0.35798654  0.08560133  0.65260044  1  0.065008  0.001751  0.11405  0.076961  0.000678  1.005869  0.001
H  H48  1  0.85800393  0.41442615  0.65257711  1  0.065081  -0.00175  0.114172  0.077004  -0.000678  1.005832  -0.001
H  H49  1  0.64200593  0.08556449  0.15258271  1  0.065258  -0.00175  0.114159  0.076973  -0.000677  1.005822  -0.001
H  H50  1  0.85800638  0.58557484  0.84741513  1  0.065142  -0.00175  0.114183  0.077061  -0.000678  1.005763  -0.001
H  H51  1  0.64200042  0.91444179  0.34741645  1  0.06511  -0.00175  0.114239  0.077113  -0.000677  1.005915  -0.001
C  C52  1  0.30972417  0.70113268  0.49521108  1  -0.03086  -0.007464  0.009411  0.075972  -0.00463  3.956003  -0.004
C  C53  1  0.19029423  0.79885721  0.99520596  1  -0.031536  -0.007461  0.009386  0.075795  -0.004628  3.956217  -0.004
C  C54  1  0.30973055  0.29886595  0.00478857  1  -0.03111  -0.007463  0.009332  0.075883  -0.00463  3.95611  -0.004
C  C55  1  0.19028272  0.20114068  0.50479364  1  -0.031438  -0.007461  0.009446  0.075994  -0.004629  3.956075  -0.004
C  C56  1  0.69027662  0.29889208  0.50477339  1  -0.030782  0.007465  0.009436  0.07582  0.004632  3.955979  0.004
C  C57  1  0.80971117  0.20112197  0.00478423  1  -0.030622  0.007465  0.009427  0.076034  0.004631  3.955682  0.004
C  C58  1  0.69028038  0.70110303  0.99522450  1  -0.030601  0.007462  0.009366  0.075898  0.00463  3.956027  0.004
C  C59  1  0.80969779  0.79888067  0.49521435  1  -0.030811  0.007463  0.009303  0.075779  0.00463  3.955803  0.004
C  C60  1  0.29638622  0.76885359  0.56428590  1  0.4718  -0.007251  0.130831  0.246804  -0.004693  3.988712  -0.004
C  C61  1  0.20363688  0.73114266  0.06428459  1  0.470595  -0.007255  0.130718  0.246495  -0.004695  3.988677  -0.004
C  C62  1  0.29638764  0.23114730  0.93571524  1  0.47159  -0.00725  0.130819  0.246814  -0.004692  3.98883  -0.004
C  C63  1  0.20362923  0.26885501  0.43571543  1  0.470932  -0.007255  0.13073  0.24644  -0.004695  3.988765  -0.004
C  C64  1  0.70361273  0.23117184  0.43569412  1  0.472862  0.007256  0.130822  0.246677  0.004695  3.988486  0.004
C  C65  1  0.79636852  0.26884468  0.93571323  1  0.470596  0.007252  0.130649  0.246446  0.004693  3.988478  0.004
C  C66  1  0.70361868  0.76882304  0.06430419  1  0.472879  0.007253  0.130873  0.246777  0.004694  3.988511  0.004
C  C67  1  0.79635773  0.73115546  0.56428811  1  0.470401  0.007253  0.130647  0.246572  0.004693  3.988063  0.004
C  C68  1  0.37517133  0.87800890  0.66195999  1  0.489844  -0.002761  0.055268  0.134  -0.000495  3.993812  0.0
C  C69  1  0.12485296  0.62199351  0.16196587  1  0.489971  -0.002763  0.055142  0.133544  -0.000495  3.993901  0.0
C  C70  1  0.37517114  0.12198811  0.83803962  1  0.489931  -0.002762  0.055265  0.133811  -0.000496  3.994027  0.0
C  C71  1  0.12484176  0.37800328  0.33803695  1  0.49014  -0.002761  0.05509  0.133433  -0.000494  3.993959  0.0
C  C72  1  0.62482669  0.12201313  0.33802639  1  0.489714  0.002759  0.055037  0.133526  0.000494  3.994396  0.0
C  C73  1  0.87515428  0.37799860  0.83803894  1  0.49003  0.002756  0.055207  0.133678  0.000492  3.994237  0.0
C  C74  1  0.62482780  0.87798699  0.16197282  1  0.489802  0.002762  0.055183  0.133822  0.000495  3.994173  0.0
C  C75  1  0.87514704  0.62200447  0.66196277  1  0.48983  0.002756  0.05508  0.133589  0.000492  3.994282  0.0
C  C76  1  0.16440161  0.85669533  0.64566912  1  0.87263  -0.003887  0.219082  0.372874  -0.004139  4.066316  -0.006
C  C77  1  0.33562371  0.64331240  0.14567506  1  0.873099  -0.003885  0.219118  0.372789  -0.004136  4.066321  -0.006
C  C78  1  0.16440508  0.14330930  0.85432993  1  0.872617  -0.003887  0.219094  0.372869  -0.00414  4.066425  -0.006
C  C79  1  0.33561417  0.35668765  0.35432451  1  0.87316  -0.003883  0.218987  0.372683  -0.004136  4.066518  -0.006
C  C80  1  0.83559825  0.14331786  0.35432107  1  0.872735  0.003886  0.219002  0.372646  0.004138  4.066557  0.006
C  C81  1  0.66438446  0.35667902  0.85432149  1  0.873364  0.003885  0.218943  0.372596  0.004137  4.066314  0.006
C  C82  1  0.83560031  0.85668417  0.14567615  1  0.872721  0.003888  0.219106  0.372794  0.004139  4.066438  0.006
C  C83  1  0.66437740  0.64331602  0.64567776  1  0.87326  0.003886  0.219059  0.372836  0.004137  4.066181  0.006
C  C84  1  0.39913195  0.80986906  0.60285988  1  0.041841  0.002523  -0.103808  -0.248486  0.001166  3.960171  0.004
C  C85  1  0.10089365  0.69012679  0.10286501  1  0.041731  0.002525  -0.103694  -0.247993  0.001168  3.959745  0.004
C  C86  1  0.39913901  0.19013073  0.89714536  1  0.04198  0.002525  -0.10381  -0.24833  0.001167  3.960004  0.004
C  C87  1  0.10088734  0.30987197  0.39713599  1  0.041468  0.002523  -0.1036  -0.247836  0.001167  3.959726  0.004
C  C88  1  0.60087621  0.19015365  0.39711189  1  0.040208  -0.002525  -0.103624  -0.247713  -0.001165  3.96033  -0.004
C  C89  1  0.89911083  0.30986735  0.89713345  1  0.04133  -0.002524  -0.103677  -0.24801  -0.001167  3.95971  -0.004
C  C90  1  0.60087930  0.80983825  0.10288487  1  0.040347  -0.002526  -0.103805  -0.248022  -0.001165  3.960276  -0.004
C  C91  1  0.89910055  0.69013578  0.60286755  1  0.041691  -0.002524  -0.103671  -0.248007  -0.001167  3.959754  -0.004
C  C92  1  0.42502693  0.66738156  0.46974238  1  0.022457  0.003536  -0.082905  -0.158193  0.00207  3.926899  0.003
C  C93  1  0.07498426  0.83260406  0.96974422  1  0.023164  0.003536  -0.082868  -0.157942  0.00207  3.926621  0.003
C  C94  1  0.42503143  0.33261465  0.03026006  1  0.022758  0.003537  -0.082926  -0.15818  0.002071  3.926749  0.003
C  C95  1  0.07497706  0.16739693  0.53025640  1  0.022712  0.003536  -0.08292  -0.158105  0.00207  3.926693  0.003
C  C96  1  0.57496833  0.33261123  0.53026243  1  0.022221  -0.003535  -0.082905  -0.158095  -0.00207  3.926815  -0.003
C  C97  1  0.92502206  0.16738736  0.03025423  1  0.022556  -0.003538  -0.082879  -0.158224  -0.002071  3.926779  -0.003
C  C98  1  0.57497213  0.66738018  0.96974158  1  0.02229  -0.003536  -0.082853  -0.158073  -0.00207  3.92688  -0.003
C  C99  1  0.92501082  0.83261762  0.46974586  1  0.02273  -0.003537  -0.082836  -0.15806  -0.002071  3.926381  -0.003
C  C100  1  0.20588872  0.67000455  0.45064353  1  -0.031117  0.004346  -0.083011  -0.156817  0.002778  3.942036  0.004
C  C101  1  0.29412075  0.82999318  0.95064016  1  -0.030566  0.004344  -0.083024  -0.156732  0.002777  3.942308  0.004
C  C102  1  0.20589309  0.32999653  0.04935266  1  -0.031771  0.004349  -0.082998  -0.15691  0.002778  3.942191  0.004
C  C103  1  0.29411343  0.17000567  0.54936099  1  -0.030987  0.004345  -0.082967  -0.156657  0.002777  3.942009  0.004
C  C104  1  0.79411299  0.33004741  0.54932570  1  -0.031447  -0.004347  -0.083217  -0.157225  -0.002778  3.942715  -0.004
C  C105  1  0.70588373  0.16997377  0.04934559  1  -0.031817  -0.004346  -0.083156  -0.157242  -0.002777  3.94231  -0.004
C  C106  1  0.79411415  0.66995545  0.95067057  1  -0.031696  -0.004348  -0.083232  -0.157434  -0.002779  3.94254  -0.004
C  C107  1  0.70587260  0.83003065  0.45065462  1  -0.031738  -0.004346  -0.083091  -0.15694  -0.002777  3.94253  -0.004
C  C108  1  0.43215464  0.60832033  0.40089826  1  0.419642  -0.005297  0.045832  0.092586  -0.002766  3.934486  -0.004
C  C109  1  0.06784410  0.89166819  0.90090114  1  0.420078  -0.005294  0.045872  0.092668  -0.002765  3.934326  -0.004
C  C110  1  0.43215799  0.39167793  0.09910351  1  0.419471  -0.005297  0.0458  0.092485  -0.002765  3.934367  -0.004
C  C111  1  0.06783253  0.10833483  0.59910142  1  0.420481  -0.0053  0.045728  0.092452  -0.002766  3.934173  -0.004
C  C112  1  0.56783693  0.39166430  0.59911417  1  0.419408  0.005301  0.045818  0.092584  0.002769  3.934501  0.004
C  C113  1  0.93216038  0.10833344  0.09910367  1  0.420055  0.005299  0.045819  0.092736  0.002767  3.934492  0.004
C  C114  1  0.56784096  0.60832574  0.90088732  1  0.419147  0.005301  0.045847  0.092652  0.002768  3.934514  0.004
C  C115  1  0.93215258  0.89167292  0.40089704  1  0.419802  0.005299  0.045873  0.092816  0.002766  3.934453  0.004
C  C116  1  0.22118214  0.61033120  0.38322726  1  0.483262  -0.004624  0.040048  0.083994  -0.002204  3.95605  -0.003
C  C117  1  0.27881672  0.88968780  0.88323703  1  0.483217  -0.004623  0.040085  0.084014  -0.002204  3.956048  -0.003
C  C118  1  0.22118536  0.38967400  0.11676951  1  0.483264  -0.004625  0.040124  0.084107  -0.002204  3.955955  -0.003
C  C119  1  0.27880504  0.11031237  0.61676544  1  0.483511  -0.004623  0.040152  0.084058  -0.002204  3.956076  -0.003
C  C120  1  0.77881681  0.38971804  0.61674069  1  0.483014  0.004624  0.039995  0.084163  0.002202  3.956622  0.003
C  C121  1  0.72118592  0.11028595  0.11675125  1  0.482652  0.004625  0.040092  0.084377  0.002204  3.955969  0.003
C  C122  1  0.77881911  0.61027934  0.88325309  1  0.48289  0.004624  0.040027  0.084264  0.002203  3.956084  0.003
C  C123  1  0.72117915  0.88971987  0.38324699  1  0.482619  0.004624  0.039991  0.084033  0.002204  3.956126  0.003
S  S124  1  0.02259277  0.89265626  0.67980294  1  -0.213112  0.15417  -0.188165  -0.382292  0.0943  2.290536  0.1
S  S125  1  0.47742680  0.60735240  0.17981642  1  -0.213375  0.15418  -0.188164  -0.382193  0.094302  2.290721  0.1
S  S126  1  0.02259633  0.10734800  0.82019914  1  -0.212942  0.154166  -0.188119  -0.382203  0.094298  2.290649  0.1
S  S127  1  0.47741854  0.39265006  0.32018647  1  -0.21332  0.154175  -0.188134  -0.382154  0.0943  2.290732  0.1
S  S128  1  0.97741355  0.10735013  0.32019996  1  -0.213113  -0.15419  -0.188232  -0.382281  -0.09431  2.290611  -0.1
S  S129  1  0.52257307  0.39263086  0.82017885  1  -0.213365  -0.154173  -0.188162  -0.382176  -0.094297  2.290559  -0.1
S  S130  1  0.97741368  0.89265363  0.17979614  1  -0.213084  -0.154177  -0.188223  -0.382302  -0.094323  2.290596  -0.1
S  S131  1  0.52256657  0.60735837  0.67981961  1  -0.213387  -0.154186  -0.188205  -0.382272  -0.094305  2.290482  -0.1
N  N132  1  0.26068081  0.90258476  0.68303322  1  -1.206646  0.067748  -0.338386  -0.304523  0.044412  3.532323  0.061
N  N133  1  0.23934611  0.59742189  0.18303792  1  -1.207579  0.067765  -0.338305  -0.304219  0.044419  3.531822  0.061
N  N134  1  0.26068343  0.09741808  0.81696551  1  -1.206651  0.067747  -0.338453  -0.304521  0.044411  3.532579  0.061
N  N135  1  0.23933792  0.40257723  0.31696134  1  -1.207359  0.067762  -0.338241  -0.304161  0.044419  3.532035  0.061
N  N136  1  0.73932828  0.09742775  0.31696079  1  -1.206307  -0.067756  -0.338254  -0.304197  -0.044415  3.532077  -0.061
N  N137  1  0.76066298  0.40256954  0.81695990  1  -1.207085  -0.067757  -0.338265  -0.304269  -0.044416  3.531957  -0.061
N  N138  1  0.73932843  0.90257471  0.18303422  1  -1.206266  -0.067753  -0.338267  -0.304288  -0.044413  3.532114  -0.061
N  N139  1  0.76065365  0.59742779  0.68303839  1  -1.207289  -0.06776  -0.338289  -0.304322  -0.044417  3.5319  -0.061
N  N140  1  0.18046574  0.79155495  0.58641208  1  -1.197511  0.00317  -0.311813  -0.358351  0.002297  3.2648  0.002
N  N141  1  0.31955721  0.70844147  0.08641403  1  -1.196473  0.003171  -0.311705  -0.358149  0.002297  3.2651  0.002
N  N142  1  0.18047276  0.20845040  0.91358692  1  -1.197606  0.003171  -0.311826  -0.358408  0.002297  3.264986  0.002
N  N143  1  0.31955164  0.29155718  0.41358431  1  -1.196549  0.003171  -0.311738  -0.358198  0.002298  3.265097  0.002
N  N144  1  0.81953874  0.20846300  0.41356858  1  -1.197679  -0.003171  -0.31165  -0.358232  -0.002298  3.265028  -0.002
N  N145  1  0.68044635  0.29154656  0.91358061  1  -1.196879  -0.00317  -0.311575  -0.358049  -0.002297  3.265128  -0.002
N  N146  1  0.81954094  0.79153559  0.08642742  1  -1.197811  -0.003171  -0.311778  -0.358348  -0.002298  3.265166  -0.002
N  N147  1  0.68043440  0.70845057  0.58641859  1  -1.19663  -0.003171  -0.311599  -0.358209  -0.002297  3.264739  -0.002
N  N148  1  0.33232230  0.58044878  0.35741544  1  -1.208473  0.069675  -0.323529  -0.182498  0.045567  3.618889  0.063
N  N149  1  0.16767395  0.91955507  0.85742323  1  -1.208681  0.069671  -0.32348  -0.182532  0.045565  3.618877  0.063
N  N150  1  0.33232732  0.41955263  0.14258477  1  -1.208627  0.069676  -0.323515  -0.182538  0.045567  3.618886  0.063
N  N151  1  0.16766291  0.08044685  0.64257898  1  -1.209287  0.069677  -0.323577  -0.182713  0.045567  3.619052  0.063
N  N152  1  0.66767480  0.41956373  0.64257920  1  -1.208096  -0.069667  -0.323512  -0.182653  -0.045559  3.618965  -0.063
N  N153  1  0.83233605  0.08043840  0.14258094  1  -1.208335  -0.06967  -0.323494  -0.182805  -0.045562  3.618974  -0.063
N  N154  1  0.66767624  0.58043268  0.85742004  1  -1.208196  -0.069673  -0.323525  -0.182738  -0.04556  3.619068  -0.063
N  N155  1  0.83232958  0.91956702  0.35742074  1  -1.208352  -0.06967  -0.323462  -0.182644  -0.04556  3.618873  -0.063
