# generated using pymatgen
data_CdH14C14(NO4)2
_symmetry_space_group_name_H-M   'P 1'
_cell_length_a   10.01793988
_cell_length_b   10.00750922
_cell_length_c   11.05983666
_cell_angle_alpha   73.02033158
_cell_angle_beta   85.75640633
_cell_angle_gamma   65.61846362
_symmetry_Int_Tables_number   1
_chemical_formula_structural   CdH14C14(NO4)2
_chemical_formula_sum   'Cd2 H28 C28 N4 O16'
_cell_volume   964.50922000
_cell_formula_units_Z   2
loop_
 _symmetry_equiv_pos_site_id
 _symmetry_equiv_pos_as_xyz
  1  'x, y, z'
loop_
 _atom_site_type_symbol
 _atom_site_label
 _atom_site_symmetry_multiplicity
 _atom_site_fract_x
 _atom_site_fract_y
 _atom_site_fract_z
 _atom_site_occupancy
 _atom_site_hle17_bader_spin_density
 _atom_site_hle17_ddec_charge
 _atom_site_hle17_ddec_spin_density
 _atom_site_hle17_ddec_sum_bond_order
 _atom_site_hle17_magmom
 _atom_site_hse06_10hf_bader_spin_density
 _atom_site_hse06_10hf_ddec_charge
 _atom_site_hse06_10hf_ddec_spin_density
 _atom_site_hse06_10hf_ddec_sum_bond_order
 _atom_site_hse06_10hf_magmom
 _atom_site_hse06_bader_spin_density
 _atom_site_hse06_ddec_charge
 _atom_site_hse06_ddec_spin_density
 _atom_site_hse06_ddec_sum_bond_order
 _atom_site_hse06_magmom
 _atom_site_pbe_bader_spin_density
 _atom_site_pbe_cm5_charge
 _atom_site_pbe_ddec_charge
 _atom_site_pbe_ddec_spin_density
 _atom_site_pbe_ddec_sum_bond_order
 _atom_site_pbe_magmom
Cd  Cd0  1  0.16483830  0.18555865  0.02755404  1  0  1.171886  0  1.599037  0  0  0.988461  0  2.035736  0  0  1.046408  0  1.980359  0  0  0.763482  0.943747  0  2.077465  0
Cd  Cd1  1  0.83515451  0.81444871  0.97244740  1  0  1.171851  0  1.599177  0  0  0.988429  0  2.035888  0  0  1.046374  0  1.980511  0  0  0.763478  0.943715  0  2.077621  0
H  H2  1  0.10641951  0.43113439  0.14519554  1  0  0.432728  0  0.869871  0  0  0.399266  0  0.936928  0  0  0.411081  0  0.919978  0  0  0.287087  0.390827  0  0.949039  0
H  H3  1  0.89357794  0.56886821  0.85480709  1  0  0.432737  0  0.869852  0  0  0.399273  0  0.93691  0  0  0.411088  0  0.91996  0  0  0.287091  0.390834  0  0.949019  0
H  H4  1  0.23097870  0.27173503  0.21710508  1  0  0.397822  0  0.858727  0  0  0.378326  0  0.922257  0  0  0.386197  0  0.913323  0  0  0.30401  0.372583  0  0.928791  0
H  H5  1  0.76901946  0.72826852  0.78289541  1  0  0.397858  0  0.85861  0  0  0.378356  0  0.922154  0  0  0.386227  0  0.913221  0  0  0.304024  0.372611  0  0.928688  0
H  H6  1  0.34462063  0.95975103  0.90832881  1  0  0.429405  0  0.861693  0  0  0.395589  0  0.930585  0  0  0.407417  0  0.913191  0  0  0.285744  0.386907  0  0.943335  0
H  H7  1  0.65537418  0.04025056  0.09167337  1  0  0.429433  0  0.861698  0  0  0.395656  0  0.930494  0  0  0.407484  0  0.913101  0  0  0.285839  0.386985  0  0.943225  0
H  H8  1  0.18926028  0.95342807  0.92090329  1  0  0.429026  0  0.865699  0  0  0.391975  0  0.939662  0  0  0.403873  0  0.922201  0  0  0.28759  0.3834  0  0.952193  0
H  H9  1  0.81072869  0.04657557  0.07910675  1  0  0.429026  0  0.865692  0  0  0.391989  0  0.93963  0  0  0.403886  0  0.92217  0  0  0.287633  0.383413  0  0.95216  0
H  H10  1  0.18659122  0.38061781  0.67546441  1  0  0.112635  0  0.918996  0  0  0.127516  0  0.975741  0  0  0.129537  0  0.974076  0  0  0.122707  0.125754  0  0.977477  0
H  H11  1  0.81341123  0.61937366  0.32453047  1  0  0.112763  0  0.918952  0  0  0.12757  0  0.975754  0  0  0.12959  0  0.974091  0  0  0.122765  0.125811  0  0.977486  0
H  H12  1  0.17349542  0.29349092  0.55942774  1  0  0.063699  0  0.907162  0  0  0.079985  0  0.966973  0  0  0.080487  0  0.966127  0  0  0.10405  0.079674  0  0.967428  0
H  H13  1  0.82650234  0.70650496  0.44057693  1  0  0.063681  0  0.907145  0  0  0.080008  0  0.966901  0  0  0.080512  0  0.966054  0  0  0.104031  0.079693  0  0.967358  0
H  H14  1  0.07843075  0.47378289  0.33684132  1  0  0.072765  0  0.946133  0  0  0.085499  0  1.016254  0  0  0.086614  0  1.014648  0  0  0.104278  0.084648  0  1.017364  0
H  H15  1  0.92157078  0.52620844  0.66315093  1  0  0.072775  0  0.946137  0  0  0.085522  0  1.016226  0  0  0.086639  0  1.014624  0  0  0.1043  0.08467  0  1.01733  0
H  H16  1  0.04262767  0.66954202  0.30717642  1  0  0.083411  0  0.954899  0  0  0.099586  0  1.015606  0  0  0.099067  0  1.017921  0  0  0.112079  0.09983  0  1.014194  0
H  H17  1  0.95737869  0.33044071  0.69282724  1  0  0.08339  0  0.954748  0  0  0.09956  0  1.015484  0  0  0.099041  0  1.0178  0  0  0.112  0.099798  0  1.014068  0
H  H18  1  0.98591426  0.86674871  0.42203572  1  0  0.110426  0  0.936558  0  0  0.12165  0  0.992313  0  0  0.125028  0  0.991313  0  0  0.113378  0.119263  0  0.993139  0
H  H19  1  0.01408616  0.13325432  0.57795936  1  0  0.11043  0  0.936538  0  0  0.121648  0  0.992291  0  0  0.125027  0  0.99129  0  0  0.113358  0.119261  0  0.993117  0
H  H20  1  0.98514228  0.09537076  0.25183299  1  0  0.093046  0  0.927509  0  0  0.103212  0  0.98347  0  0  0.106011  0  0.981081  0  0  0.122409  0.10097  0  0.985514  0
H  H21  1  0.01486228  0.90463725  0.74817120  1  0  0.093028  0  0.9275  0  0  0.103179  0  0.983485  0  0  0.105976  0  0.981097  0  0  0.12238  0.10094  0  0.98553  0
H  H22  1  0.42820415  0.87569341  0.20229848  1  0  0.090481  0  0.923859  0  0  0.100637  0  0.983399  0  0  0.103017  0  0.981186  0  0  0.121382  0.098781  0  0.985251  0
H  H23  1  0.57180559  0.12430844  0.79770367  1  0  0.090406  0  0.923879  0  0  0.100554  0  0.983438  0  0  0.102933  0  0.981229  0  0  0.121382  0.098698  0  0.985289  0
H  H24  1  0.44988749  0.63687268  0.37249112  1  0  0.131853  0  0.972323  0  0  0.138881  0  1.035626  0  0  0.142744  0  1.034049  0  0  0.112115  0.136061  0  1.036934  0
H  H25  1  0.55012376  0.36312514  0.62750403  1  0  0.131848  0  0.972392  0  0  0.138891  0  1.035681  0  0  0.14275  0  1.0341  0  0  0.112094  0.136065  0  1.036997  0
H  H26  1  0.37732400  0.57778863  0.77632084  1  0  0.148745  0  0.928485  0  0  0.159273  0  0.981673  0  0  0.163529  0  0.978331  0  0  0.119869  0.15621  0  0.984195  0
H  H27  1  0.62267575  0.42221648  0.22367092  1  0  0.148762  0  0.928352  0  0  0.159284  0  0.981568  0  0  0.163546  0  0.978222  0  0  0.119877  0.15622  0  0.984092  0
H  H28  1  0.64208852  0.59747792  0.76829516  1  0  0.117378  0  0.948747  0  0  0.132698  0  1.000358  0  0  0.136064  0  0.998243  0  0  0.112112  0.130318  0  1.001977  0
H  H29  1  0.35790851  0.40252279  0.23171260  1  0  0.117368  0  0.948717  0  0  0.132711  0  1.000307  0  0  0.136057  0  0.998218  0  0  0.112094  0.130329  0  1.001928  0
C  C30  1  0.12317437  0.39755139  0.59142109  1  0  -0.00934  0  3.625731  0  0  -0.070987  0  3.888532  0  0  -0.066197  0  3.898602  0  0  -0.055437  -0.074054  0  3.88156  0
C  C31  1  0.87683032  0.60243652  0.40857384  1  0  -0.009575  0  3.625845  0  0  -0.0712  0  3.88863  0  0  -0.066411  0  3.898702  0  0  -0.055493  -0.074253  0  3.881657  0
C  C32  1  0.03630878  0.57041682  0.37795981  1  0  -0.022456  0  3.655429  0  0  -0.088961  0  3.926387  0  0  -0.08502  0  3.939107  0  0  -0.062438  -0.091391  0  3.917389  0
C  C33  1  0.96370151  0.42957522  0.62203354  1  0  -0.022523  0  3.655391  0  0  -0.08903  0  3.926342  0  0  -0.085092  0  3.939066  0  0  -0.062382  -0.091438  0  3.917321  0
C  C34  1  0.22610986  0.58635937  0.50376414  1  0  0.475764  0  3.853059  0  0  0.42776  0  4.143121  0  0  0.456761  0  4.142091  0  0  0.240896  0.408174  0  4.143243  0
C  C35  1  0.77392160  0.41361472  0.49623530  1  0  0.475548  0  3.852994  0  0  0.4274  0  4.143254  0  0  0.456425  0  4.142186  0  0  0.240605  0.407804  0  4.143401  0
C  C36  1  0.21704148  0.73031776  0.40562539  1  0  0.020277  0  3.752862  0  0  0.034922  0  3.992475  0  0  0.034911  0  4.012242  0  0  0.011071  0.034795  0  3.979414  0
C  C37  1  0.78297394  0.26967086  0.59437233  1  0  0.020651  0  3.752913  0  0  0.035337  0  3.992503  0  0  0.035323  0  4.01226  0  0  0.011255  0.03521  0  3.979446  0
C  C38  1  0.08648934  0.86318765  0.37523437  1  0  -0.150218  0  3.731776  0  0  -0.16952  0  3.979718  0  0  -0.175513  0  3.999958  0  0  -0.081763  -0.165751  0  3.966362  0
C  C39  1  0.91351824  0.13680570  0.62477503  1  0  -0.15041  0  3.73189  0  0  -0.169707  0  3.979814  0  0  -0.175702  0  4.000053  0  0  -0.081816  -0.165934  0  3.966452  0
C  C40  1  0.08517897  0.99109503  0.28124084  1  0  0.142032  0  3.70388  0  0  0.110413  0  3.955664  0  0  0.117656  0  3.9736  0  0  0.048512  0.105815  0  3.943352  0
C  C41  1  0.91482322  0.00890220  0.71877040  1  0  0.142184  0  3.703775  0  0  0.110569  0  3.955563  0  0  0.117815  0  3.973493  0  0  0.048629  0.105962  0  3.943258  0
C  C42  1  0.33302456  0.86763407  0.25319703  1  0  0.134509  0  3.693507  0  0  0.100435  0  3.951701  0  0  0.108171  0  3.969403  0  0  0.04795  0.095205  0  3.93978  0
C  C43  1  0.66698283  0.13237463  0.74680317  1  0  0.134628  0  3.693397  0  0  0.100551  0  3.951615  0  0  0.108287  0  3.969314  0  0  0.047976  0.095321  0  3.939689  0
C  C44  1  0.34436872  0.73536845  0.34740063  1  0  -0.131355  0  3.681225  0  0  -0.151235  0  3.926721  0  0  -0.157706  0  3.947346  0  0  -0.07559  -0.147382  0  3.913614  0
C  C45  1  0.65564318  0.26463307  0.65259878  1  0  -0.131563  0  3.681338  0  0  -0.151455  0  3.926835  0  0  -0.15792  0  3.947456  0  0  -0.075667  -0.1476  0  3.913728  0
C  C46  1  0.49402054  0.36183220  0.92269497  1  0  0.091239  0  3.67777  0  0  0.081823  0  3.949312  0  0  0.083379  0  3.964577  0  0  0.068984  0.080642  0  3.939465  0
C  C47  1  0.50596753  0.63818054  0.07729785  1  0  0.091226  0  3.677646  0  0  0.081728  0  3.949295  0  0  0.083282  0  3.964569  0  0  0.068999  0.080552  0  3.939444  0
C  C48  1  0.47650390  0.49804631  0.83387459  1  0  -0.115801  0  3.682523  0  0  -0.150999  0  3.953357  0  0  -0.151098  0  3.967853  0  0  -0.094134  -0.150297  0  3.942821  0
C  C49  1  0.52348600  0.50196670  0.16612347  1  0  -0.115714  0  3.682371  0  0  -0.150896  0  3.953252  0  0  -0.150996  0  3.967749  0  0  -0.094102  -0.150192  0  3.942708  0
C  C50  1  0.61477392  0.50677225  0.82939301  1  0  -0.138554  0  3.725929  0  0  -0.172808  0  3.99888  0  0  -0.173797  0  4.015849  0  0  -0.100078  -0.171566  0  3.986483  0
C  C51  1  0.38521393  0.49323778  0.17060971  1  0  -0.138645  0  3.726155  0  0  -0.17291  0  3.99908  0  0  -0.173886  0  4.016061  0  0  -0.100133  -0.171656  0  3.986687  0
C  C52  1  0.70893484  0.37547668  0.91582357  1  0  0.078326  0  3.709554  0  0  0.06618  0  3.98705  0  0  0.067526  0  4.002468  0  0  0.063554  0.065479  0  3.976538  0
C  C53  1  0.29105085  0.62453677  0.08417732  1  0  0.078229  0  3.70986  0  0  0.066091  0  3.987344  0  0  0.067443  0  4.002753  0  0  0.063564  0.065362  0  3.976868  0
C  C54  1  0.39915016  0.27958026  0.97081311  1  0  0.58377  0  4.037554  0  0  0.534296  0  4.337184  0  0  0.56732  0  4.332155  0  0  0.184582  0.511351  0  4.340323  0
C  C55  1  0.60084375  0.72042691  0.02918652  1  0  0.583683  0  4.037784  0  0  0.53423  0  4.337416  0  0  0.567253  0  4.33239  0  0  0.184521  0.511285  0  4.340551  0
C  C56  1  0.86433391  0.30706344  0.95748211  1  0  0.604956  0  3.985322  0  0  0.552413  0  4.278615  0  0  0.586756  0  4.271165  0  0  0.196924  0.528434  0  4.283349  0
C  C57  1  0.13565679  0.69294150  0.04251567  1  0  0.605052  0  3.985244  0  0  0.552489  0  4.278553  0  0  0.58683  0  4.271099  0  0  0.196897  0.528519  0  4.28329  0
N  N58  1  0.20508329  0.99148965  0.21784974  1  0  -0.341991  0  3.262426  0  0  -0.264647  0  3.530423  0  0  -0.284876  0  3.548962  0  0  -0.329168  -0.250404  0  3.516842  0
N  N59  1  0.79492033  0.00851519  0.78215729  1  0  -0.342023  0  3.262433  0  0  -0.264664  0  3.530416  0  0  -0.284893  0  3.548954  0  0  -0.329222  -0.250422  0  3.516836  0
N  N60  1  0.12766516  0.52871384  0.49171632  1  0  -0.215312  0  3.39286  0  0  -0.130084  0  3.635714  0  0  -0.151691  0  3.657652  0  0  -0.277604  -0.11535  0  3.620135  0
N  N61  1  0.87233752  0.47128825  0.50828345  1  0  -0.215294  0  3.393234  0  0  -0.129994  0  3.63605  0  0  -0.151608  0  3.657982  0  0  -0.277579  -0.115262  0  3.62047  0
O  O62  1  0.27049813  0.34138840  0.91747601  1  0  -0.604547  0  1.965935  0  0  -0.540446  0  2.199189  0  0  -0.56967  0  2.19073  0  0  -0.327483  -0.518636  0  2.205964  0
O  O63  1  0.72949301  0.65861533  0.08252120  1  0  -0.604504  0  1.966182  0  0  -0.540394  0  2.199402  0  0  -0.569616  0  2.190952  0  0  -0.32745  -0.518585  0  2.206183  0
O  O64  1  0.44921255  0.15491778  0.06031136  1  0  -0.652992  0  1.914886  0  0  -0.601301  0  2.136307  0  0  -0.6262  0  2.125515  0  0  -0.337137  -0.583089  0  2.143393  0
O  O65  1  0.55078719  0.84508162  0.93968034  1  0  -0.653013  0  1.914888  0  0  -0.601297  0  2.136284  0  0  -0.6262  0  2.125498  0  0  -0.33714  -0.583076  0  2.143369  0
O  O66  1  0.63489508  0.28795318  0.97285550  1  0  -0.208762  0  2.527985  0  0  -0.131004  0  2.744031  0  0  -0.148615  0  2.755784  0  0  -0.110952  -0.118721  0  2.736429  0
O  O67  1  0.36509033  0.71206122  0.02714240  1  0  -0.208677  0  2.527834  0  0  -0.130884  0  2.74388  0  0  -0.148495  0  2.755636  0  0  -0.110945  -0.118592  0  2.736284  0
O  O68  1  0.94179209  0.38446420  0.91776682  1  0  -0.628091  0  2.022516  0  0  -0.550549  0  2.246066  0  0  -0.579938  0  2.236223  0  0  -0.310779  -0.52825  0  2.253915  0
O  O69  1  0.05820333  0.61553895  0.08222579  1  0  -0.628028  0  2.022669  0  0  -0.550461  0  2.246198  0  0  -0.57985  0  2.236357  0  0  -0.310647  -0.528162  0  2.254041  0
O  O70  1  0.91831599  0.17058124  0.03051031  1  0  -0.62124  0  1.971519  0  0  -0.561216  0  2.199464  0  0  -0.588343  0  2.189832  0  0  -0.311542  -0.541464  0  2.205653  0
O  O71  1  0.08166909  0.82942536  0.96948999  1  0  -0.621319  0  1.971329  0  0  -0.561314  0  2.199332  0  0  -0.588441  0  2.189698  0  0  -0.311594  -0.541559  0  2.20552  0
O  O72  1  0.31994347  0.52734858  0.59300381  1  0  -0.526342  0  1.94399  0  0  -0.49138  0  2.164694  0  0  -0.512234  0  2.158311  0  0  -0.289509  -0.477038  0  2.168844  0
O  O73  1  0.68007823  0.47261647  0.40698899  1  0  -0.526322  0  1.943682  0  0  -0.491273  0  2.164405  0  0  -0.512146  0  2.158014  0  0  -0.289372  -0.476922  0  2.168563  0
O  O74  1  0.12793577  0.32016071  0.18832377  1  0  -0.816767  0  1.830892  0  0  -0.766825  0  2.014823  0  0  -0.787404  0  1.98674  0  0  -0.5832  -0.752461  0  2.034864  0
O  O75  1  0.87206224  0.67984311  0.81168026  1  0  -0.816799  0  1.830744  0  0  -0.766841  0  2.014657  0  0  -0.787421  0  1.986576  0  0  -0.583212  -0.752491  0  2.034728  0
O  O76  1  0.23752673  0.02567425  0.89571490  1  0  -0.832279  0  1.83122  0  0  -0.768755  0  2.011685  0  0  -0.791162  0  1.975822  0  0  -0.587934  -0.752944  0  2.037822  0
O  O77  1  0.76246589  0.97432773  0.10429092  1  0  -0.832284  0  1.831317  0  0  -0.768791  0  2.011702  0  0  -0.791197  0  1.975838  0  0  -0.588055  -0.752984  0  2.037831  0
