# generated using pymatgen
data_Zn2H22C27(NO)8
_symmetry_space_group_name_H-M   'P 1'
_cell_length_a   8.84558835
_cell_length_b   18.88284615
_cell_length_c   19.81604389
_cell_angle_alpha   92.49715983
_cell_angle_beta   102.87269477
_cell_angle_gamma   89.98666069
_symmetry_Int_Tables_number   1
_chemical_formula_structural   Zn2H22C27(NO)8
_chemical_formula_sum   'Zn8 H88 C108 N32 O32'
_cell_volume   3223.46945276
_cell_formula_units_Z   4
loop_
 _symmetry_equiv_pos_site_id
 _symmetry_equiv_pos_as_xyz
  1  'x, y, z'
loop_
 _atom_site_type_symbol
 _atom_site_label
 _atom_site_symmetry_multiplicity
 _atom_site_fract_x
 _atom_site_fract_y
 _atom_site_fract_z
 _atom_site_occupancy
 _atom_site_pbe_bader_charge
 _atom_site_pbe_bader_spin_density
 _atom_site_pbe_cm5_charge
 _atom_site_pbe_ddec_charge
 _atom_site_pbe_ddec_spin_density
 _atom_site_pbe_ddec_sum_bond_order
 _atom_site_pbe_magmom
Zn  Zn0  1  0.39787744  0.39849072  0.46052018  1  1.266865  0  0.697356  0.802016  0  2.407151  0
Zn  Zn1  1  0.94502900  0.91342934  0.05985527  1  1.266423  0  0.708594  0.801522  0  2.414131  0
Zn  Zn2  1  0.93756290  0.10159155  0.53937943  1  1.26639  0  0.697602  0.802882  0  2.407285  0
Zn  Zn3  1  0.88538760  0.58659514  0.94014533  1  1.265591  0  0.708028  0.800956  0  2.415316  0
Zn  Zn4  1  0.60212697  0.60150625  0.53947699  1  1.266847  0  0.69735  0.801982  0  2.407205  0
Zn  Zn5  1  0.05497438  0.08657293  0.94014562  1  1.266379  0  0.708564  0.801441  0  2.414146  0
Zn  Zn6  1  0.06244148  0.89841020  0.46062244  1  1.266364  0  0.697596  0.802927  0  2.407104  0
Zn  Zn7  1  0.11460631  0.41340184  0.05985526  1  1.265654  0  0.708057  0.801033  0  2.41525  0
H  H8  1  0.75369834  0.80383588  0.41092676  1  0.152682  0  0.124467  0.128077  0  1.002763  0
H  H9  1  0.75752714  0.67159608  0.34257270  1  0.199049  0  0.126386  0.144315  0  1.030212  0
H  H10  1  0.21554760  0.75235111  0.40669471  1  0.153737  0  0.14701  0.12155  0  0.966573  0
H  H11  1  0.18310227  0.62931271  0.36389649  1  0.140478  0  0.120274  0.11385  0  1.013559  0
H  H12  1  0.99780745  0.58840726  0.34490837  1  0.130887  0  0.120113  0.114537  0  1.008199  0
H  H13  1  0.29211995  0.58892049  0.25746010  1  0.058485  0  0.123447  0.116465  0  0.956503  0
H  H14  1  0.15044088  0.54669056  0.19214760  1  0.13728  0  0.116674  0.120254  0  1.050148  0
H  H15  1  0.39110208  0.52965606  0.36473530  1  0.195474  0  0.143953  0.127073  0  0.990387  0
H  H16  1  0.04360065  0.37501074  0.36030681  1  0.098559  0  0.118821  0.110611  0  0.998206  0
H  H17  1  0.95817044  0.45496596  0.24309901  1  0.205408  0  0.127485  0.150531  0  1.025708  0
H  H18  1  0.19530435  0.67716189  0.18900533  1  0.13288  0  0.120239  0.118083  0  1.015577  0
H  H19  1  0.23173177  0.71573056  0.27422973  1  0.058086  0  0.115901  0.10468  0  0.961237  0
H  H20  1  0.91607475  0.78572257  0.28255840  1  0.163984  0  0.11503  0.103375  0  1.11587  0
H  H21  1  0.81566465  0.89322698  0.19435471  1  0.104631  0  0.128603  0.128562  0  0.978737  0
H  H22  1  0.11920179  0.76308627  0.10825381  1  0.163834  0  0.150904  0.125148  0  0.955297  0
H  H23  1  0.81590254  0.65226728  0.23932064  1  0.074772  0  0.11664  0.098545  0  1.002916  0
H  H24  1  0.85654421  0.56260988  0.22394796  1  0.12026  0  0.122087  0.12165  0  0.974577  0
H  H25  1  0.64124396  0.69041989  0.14059704  1  0.127347  0  0.130806  0.135734  0  0.986759  0
H  H26  1  0.62431952  0.68125328  0.99872629  1  0.120612  0  0.123465  0.118659  0  0.992138  0
H  H27  1  0.02011832  0.57095881  0.09930066  1  0.222415  0  0.138793  0.115542  0  1.055817  0
H  H28  1  0.54826631  0.99559700  0.12765395  1  0.083972  0  0.103483  0.113277  0  0.998813  0
H  H29  1  0.99216222  0.37999450  0.54276835  1  0.094194  0  0.101673  0.101599  0  1.053058  0
H  H30  1  0.34416891  0.69638726  0.58911714  1  0.151613  0  0.124352  0.12851  0  1.003168  0
H  H31  1  0.41639509  0.82858175  0.65746998  1  0.188545  0  0.126633  0.143955  0  1.031301  0
H  H32  1  0.81025550  0.74767472  0.59320718  1  0.126987  0  0.146604  0.121184  0  0.966407  0
H  H33  1  0.82047538  0.87081304  0.63602016  1  0.105502  0  0.121056  0.115534  0  1.014688  0
H  H34  1  0.65416733  0.91166223  0.65509551  1  0.1086  0  0.120456  0.11456  0  1.007445  0
H  H35  1  0.03567845  0.91135855  0.74236139  1  0.075256  0  0.123623  0.117503  0  0.956795  0
H  H36  1  0.95928589  0.95338871  0.80784428  1  0.14082  0  0.116878  0.120241  0  1.050549  0
H  H37  1  0.02724011  0.97078911  0.63534506  1  0.184963  0  0.144575  0.127565  0  0.991097  0
H  H38  1  0.68317139  0.12500851  0.63971263  1  0.093474  0  0.118251  0.108751  0  0.999069  0
H  H39  1  0.71525105  0.04505882  0.75691959  1  0.19752  0  0.127267  0.149758  0  1.026665  0
H  H40  1  0.00749338  0.82303418  0.81109187  1  0.150793  0  0.120495  0.118462  0  1.016301  0
H  H41  1  0.95912932  0.78439864  0.72588893  1  0.063211  0  0.115763  0.104542  0  0.961942  0
H  H42  1  0.63517391  0.71439206  0.71740733  1  0.146837  0  0.115306  0.103476  0  1.115534  0
H  H43  1  0.62291221  0.60681152  0.80551936  1  0.108332  0  0.127756  0.12842  0  0.978104  0
H  H44  1  0.01206237  0.73699209  0.89183645  1  0.192894  0  0.151469  0.126112  0  0.954719  0
H  H45  1  0.57779489  0.84781734  0.76055260  1  0.082282  0  0.117386  0.09953  0  1.002457  0
H  H46  1  0.63369963  0.93748597  0.77590510  1  0.1185  0  0.122423  0.121299  0  0.97551  0
H  H47  1  0.50136866  0.80980449  0.85909069  1  0.163834  0  0.130685  0.136017  0  0.985024  0
H  H48  1  0.62535329  0.81898816  0.00103604  1  0.087612  0  0.123667  0.118967  0  0.99174  0
H  H49  1  0.92151220  0.92911668  0.90075342  1  0.230728  0  0.138429  0.114599  0  1.056683  0
H  H50  1  0.42104837  0.50448685  0.87232973  1  0.087334  0  0.103576  0.113541  0  0.998166  0
H  H51  1  0.44872769  0.11996334  0.45714474  1  0.093254  0  0.101395  0.101261  0  1.052613  0
H  H52  1  0.24630795  0.19616481  0.58908046  1  0.152696  0  0.124526  0.128185  0  1.002749  0
H  H53  1  0.24247154  0.32840673  0.65742930  1  0.199008  0  0.12641  0.144369  0  1.03014  0
H  H54  1  0.78445268  0.24764957  0.59330421  1  0.153739  0  0.147014  0.121569  0  0.966559  0
H  H55  1  0.81689437  0.37068956  0.63610347  1  0.140443  0  0.120257  0.113856  0  1.013522  0
H  H56  1  0.00219024  0.41159501  0.65509147  1  0.130841  0  0.120148  0.114581  0  1.008167  0
H  H57  1  0.70788336  0.41108285  0.74254421  1  0.058552  0  0.123476  0.116531  0  0.956534  0
H  H58  1  0.84956929  0.45331118  0.80785195  1  0.137256  0  0.116644  0.120259  0  1.050126  0
H  H59  1  0.60890070  0.47034356  0.63526610  1  0.195511  0  0.143938  0.127048  0  0.990385  0
H  H60  1  0.95639706  0.62499101  0.63969189  1  0.098567  0  0.118803  0.110582  0  0.998243  0
H  H61  1  0.04183141  0.54503738  0.75690154  1  0.205494  0  0.127548  0.150697  0  1.025715  0
H  H62  1  0.80469024  0.32284039  0.81099374  1  0.132522  0  0.120245  0.118139  0  1.015542  0
H  H63  1  0.76826592  0.28427171  0.72577012  1  0.058243  0  0.115876  0.104665  0  0.961254  0
H  H64  1  0.08392029  0.21427865  0.71744225  1  0.163749  0  0.115035  0.103397  0  1.115871  0
H  H65  1  0.18432986  0.10677477  0.80564659  1  0.104687  0  0.128567  0.1285  0  0.978721  0
H  H66  1  0.88079380  0.23691707  0.89174743  1  0.163752  0  0.150913  0.125201  0  0.955177  0
H  H67  1  0.18409456  0.34773288  0.76067974  1  0.07498  0  0.116624  0.09851  0  1.003013  0
H  H68  1  0.14345598  0.43738974  0.77605317  1  0.120278  0  0.1221  0.121634  0  0.974604  0
H  H69  1  0.35875059  0.30958027  0.85940193  1  0.127428  0  0.130839  0.135721  0  0.986748  0
H  H70  1  0.37567589  0.31873998  0.00127340  1  0.120359  0  0.123447  0.118669  0  0.99221  0
H  H71  1  0.97987240  0.42903552  0.90070017  1  0.222299  0  0.13879  0.11552  0  1.055728  0
H  H72  1  0.45173914  0.00440316  0.87234549  1  0.083952  0  0.103506  0.113296  0  0.998817  0
H  H73  1  0.00783808  0.62000565  0.45722942  1  0.094165  0  0.101669  0.101633  0  1.053023  0
H  H74  1  0.65583850  0.30360812  0.41088300  1  0.151648  0  0.124372  0.128532  0  1.00308  0
H  H75  1  0.58360144  0.17141364  0.34252856  1  0.188387  0  0.126658  0.143924  0  1.031437  0
H  H76  1  0.18974575  0.25232385  0.40679266  1  0.12701  0  0.146593  0.121163  0  0.966465  0
H  H77  1  0.17952016  0.12918659  0.36397981  1  0.105455  0  0.121071  0.115578  0  1.014679  0
H  H78  1  0.34582766  0.08833634  0.34490503  1  0.108905  0  0.120455  0.114586  0  1.007421  0
H  H79  1  0.96431976  0.08864108  0.25763659  1  0.075335  0  0.12362  0.117504  0  0.956716  0
H  H80  1  0.04071802  0.04661145  0.19215478  1  0.140775  0  0.116865  0.120208  0  1.050704  0
H  H81  1  0.97275709  0.02921264  0.36465313  1  0.184955  0  0.144558  0.127558  0  0.991075  0
H  H82  1  0.31682518  0.87499165  0.36028836  1  0.093489  0  0.118258  0.108742  0  0.999087  0
H  H83  1  0.28475126  0.95494081  0.24308018  1  0.197489  0  0.127275  0.149826  0  1.026609  0
H  H84  1  0.99250629  0.17696598  0.18890990  1  0.150808  0  0.120507  0.118459  0  1.01628  0
H  H85  1  0.04087137  0.21559940  0.27411151  1  0.063041  0  0.11578  0.104566  0  0.961921  0
H  H86  1  0.36482321  0.28561022  0.28259426  1  0.146782  0  0.115316  0.103464  0  1.115515  0
H  H87  1  0.37708129  0.39318863  0.19447973  1  0.108345  0  0.127739  0.128339  0  0.97817  0
H  H88  1  0.98793463  0.26300754  0.10816727  1  0.19268  0  0.151508  0.126142  0  0.954685  0
H  H89  1  0.42220431  0.15218493  0.23944876  1  0.082231  0  0.117402  0.099577  0  1.002518  0
H  H90  1  0.36630324  0.06251577  0.22409526  1  0.11853  0  0.122404  0.121263  0  0.975573  0
H  H91  1  0.49862799  0.19020257  0.14091285  1  0.164021  0  0.130701  0.13602  0  0.984982  0
H  H92  1  0.37464699  0.18101677  0.99896644  1  0.131409  0  0.123686  0.119027  0  0.991752  0
H  H93  1  0.07849220  0.07088295  0.09924612  1  0.230757  0  0.138432  0.114574  0  1.056745  0
H  H94  1  0.57894393  0.49550748  0.12767036  1  0.087317  0  0.103559  0.113524  0  0.99816  0
H  H95  1  0.55127322  0.88004212  0.54285376  1  0.093356  0  0.101435  0.101331  0  1.052606  0
C  C96  1  0.84906189  0.77506640  0.39717212  1  0.395893  0  0.00396  -0.015422  0  3.964689  0
C  C97  1  0.84856408  0.71063537  0.36235095  1  0.22356  0  -0.000361  -0.118688  0  3.901124  0
C  C98  1  0.08988471  0.75174059  0.39592764  1  0.971764  0  0.148956  0.094821  0  3.914057  0
C  C99  1  0.06387979  0.63382834  0.33345815  1  0.225894  0  -0.05662  -0.16064  0  3.863594  0
C  C100  1  0.06122973  0.63039294  0.25503126  1  0.032225  0  -0.001867  0.099649  0  3.726748  0
C  C101  1  0.17271870  0.56811226  0.24568258  1  0.310645  0  -0.052065  -0.144739  0  3.798993  0
C  C102  1  0.28490032  0.49835406  0.34888074  1  0.944412  0  0.151184  0.105058  0  3.859853  0
C  C103  1  0.10322911  0.41902327  0.34398110  1  0.427596  0  -0.004441  -0.037468  0  4.024433  0
C  C104  1  0.05680690  0.45908531  0.28699057  1  0.235845  0  0.005979  -0.098035  0  3.874073  0
C  C105  1  0.13917405  0.69558870  0.23084009  1  0.271097  0  -0.047256  -0.140639  0  3.821293  0
C  C106  1  0.94377711  0.79678857  0.23372245  1  0.294718  0  -0.003536  -0.112751  0  3.942653  0
C  C107  1  0.89298985  0.84974375  0.18929184  1  0.411582  0  0.003431  -0.02234  0  3.987765  0
C  C108  1  0.04870793  0.78440897  0.14253060  1  0.975255  0  0.15503  0.106301  0  3.885176  0
C  C109  1  0.89083911  0.61704302  0.21616636  1  0.270007  0  -0.044842  -0.121751  0  3.797145  0
C  C110  1  0.71784323  0.66616682  0.11077004  1  0.330178  0  0.006234  -0.1018  0  3.921743  0
C  C111  1  0.71046102  0.66095198  0.04095402  1  0.401103  0  0.000104  -0.031959  0  4.024945  0
C  C112  1  0.91646325  0.60319042  0.09117996  1  0.94982  0  0.146229  0.107544  0  3.856937  0
C  C113  1  0.26552604  0.94806043  0.06877431  1  1.537007  0  0.195306  0.562996  0  4.251008  0
C  C114  1  0.38612847  0.97269006  0.03183367  1  -0.042029  0  -0.018972  -0.052215  0  3.960989  0
C  C115  1  0.35712131  0.97523395  0.95914620  1  -0.044239  0  -0.013521  -0.052774  0  3.971414  0
C  C116  1  0.52880875  0.99743946  0.07139960  1  0.009867  0  -0.089106  -0.130717  0  3.975627  0
C  C117  1  0.20884000  0.95020335  0.91070249  1  1.604333  0  0.209836  0.60547  0  4.205934  0
C  C118  1  0.27663918  0.43400435  0.58213646  1  1.579928  0  0.201814  0.593394  0  4.2364  0
C  C119  1  0.13958751  0.46948569  0.53680973  1  0.006905  0  -0.015356  -0.052744  0  3.964745  0
C  C120  1  0.99807097  0.43320158  0.52455081  1  -0.088158  0  -0.091799  -0.130395  0  3.974468  0
C  C121  1  0.14098764  0.53733616  0.51030343  1  -0.013107  0  -0.020797  -0.054764  0  3.980097  0
C  C122  1  0.28790730  0.57728294  0.51201258  1  1.549311  0  0.194217  0.554529  0  4.242717  0
C  C123  1  0.45327629  0.72511336  0.60285290  1  0.441601  0  0.003337  -0.016644  0  3.965795  0
C  C124  1  0.48766900  0.78951854  0.63767701  1  0.200288  0  0.000449  -0.117542  0  3.902392  0
C  C125  1  0.69536496  0.74829895  0.60400462  1  1.014076  0  0.147778  0.092461  0  3.913105  0
C  C126  1  0.73173257  0.86622599  0.66649247  1  0.303618  0  -0.057641  -0.162548  0  3.867396  0
C  C127  1  0.80745924  0.86970158  0.74490488  1  0.038719  0  -0.002462  0.099887  0  3.729022  0
C  C128  1  0.92803133  0.93204171  0.75427269  1  0.290856  0  -0.052133  -0.146928  0  3.802376  0
C  C129  1  0.93672528  0.00200017  0.65119603  1  0.979516  0  0.151919  0.105462  0  3.859227  0
C  C130  1  0.75932141  0.08105422  0.65604362  1  0.422146  0  -0.003188  -0.032427  0  4.021833  0
C  C131  1  0.77012418  0.04098211  0.71305430  1  0.266617  0  0.006009  -0.099549  0  3.874133  0
C  C132  1  0.90971828  0.80457215  0.76921925  1  0.249221  0  -0.046827  -0.139938  0  3.821776  0
C  C133  1  0.71166660  0.70333792  0.76623742  1  0.307916  0  -0.003691  -0.112347  0  3.944064  0
C  C134  1  0.70507714  0.65037073  0.81063770  1  0.43298  0  0.002784  -0.024462  0  3.990653  0
C  C135  1  0.90741436  0.71566989  0.85751250  1  0.937703  0  0.154331  0.105367  0  3.884954  0
C  C136  1  0.67580368  0.88304941  0.78371237  1  0.261516  0  -0.046008  -0.121564  0  3.800706  0
C  C137  1  0.60767764  0.83398962  0.88903144  1  0.285964  0  0.005555  -0.101995  0  3.921025  0
C  C138  1  0.66961352  0.83926275  0.95887627  1  0.436288  0  0.000256  -0.032318  0  4.025325  0
C  C139  1  0.82589642  0.89688375  0.90877861  1  0.932229  0  0.14707  0.11035  0  3.855829  0
C  C140  1  0.19690888  0.55191083  0.93125705  1  1.566984  0  0.193841  0.560176  0  4.252642  0
C  C141  1  0.35444237  0.52730822  0.96818248  1  -0.061818  0  -0.018268  -0.051287  0  3.959438  0
C  C142  1  0.39780567  0.52470569  0.04086123  1  0.028268  0  -0.014952  -0.054145  0  3.974368  0
C  C143  1  0.45764378  0.50261422  0.92858934  1  -0.069573  0  -0.089237  -0.130766  0  3.975433  0
C  C144  1  0.29774676  0.54974246  0.08927103  1  1.605138  0  0.208953  0.604995  0  4.209573  0
C  C145  1  0.69458063  0.06621784  0.41793658  1  1.582741  0  0.200863  0.591941  0  4.237517  0
C  C146  1  0.60275912  0.03066783  0.46322852  1  0.02325  0  -0.015335  -0.052139  0  3.963079  0
C  C147  1  0.47314744  0.06677941  0.47539069  1  -0.046868  0  -0.091064  -0.129675  0  3.972837  0
C  C148  1  0.63094957  0.96285168  0.48976967  1  -0.075188  0  -0.02101  -0.055272  0  3.979971  0
C  C149  1  0.77645110  0.92315270  0.48809690  1  1.552015  0  0.194839  0.555448  0  4.24149  0
C  C150  1  0.15094134  0.22493323  0.60283203  1  0.395937  0  0.003812  -0.015676  0  3.964892  0
C  C151  1  0.15143563  0.28936691  0.63765091  1  0.223565  0  -0.000298  -0.118668  0  3.900904  0
C  C152  1  0.91011500  0.24825850  0.60407184  1  0.971773  0  0.148917  0.094705  0  3.914078  0
C  C153  1  0.93611841  0.36617288  0.66654103  1  0.225977  0  -0.056627  -0.160697  0  3.863387  0
C  C154  1  0.93876897  0.36960775  0.74496840  1  0.032002  0  -0.001869  0.09979  0  3.726523  0
C  C155  1  0.82728624  0.43189055  0.75431872  1  0.310763  0  -0.052042  -0.144843  0  3.799008  0
C  C156  1  0.71510094  0.50164663  0.65112032  1  0.944538  0  0.151231  0.105197  0  3.859706  0
C  C157  1  0.89677171  0.58097742  0.65601720  1  0.427525  0  -0.004411  -0.037411  0  4.024264  0
C  C158  1  0.94319391  0.54091802  0.71301010  1  0.235751  0  0.005869  -0.098331  0  3.874094  0
C  C159  1  0.86082260  0.30441358  0.76915987  1  0.271316  0  -0.047233  -0.140693  0  3.821196  0
C  C160  1  0.05621791  0.20321159  0.76627816  1  0.295007  0  -0.003498  -0.112659  0  3.942703  0
C  C161  1  0.10700621  0.15025747  0.81070982  1  0.411652  0  0.00346  -0.022302  0  3.987589  0
C  C162  1  0.95128666  0.21559437  0.85746963  1  0.97534  0  0.155017  0.106317  0  3.885182  0
C  C163  1  0.10915903  0.38295661  0.78383387  1  0.269831  0  -0.044838  -0.121761  0  3.797206  0
C  C164  1  0.28215333  0.33383122  0.88922973  1  0.330148  0  0.006266  -0.101674  0  3.921724  0
C  C165  1  0.28953076  0.33904341  0.95904673  1  0.401333  0  8.1e-05  -0.032057  0  4.024952  0
C  C166  1  0.08353231  0.39680655  0.90881764  1  0.949918  0  0.146226  0.107555  0  3.856691  0
C  C167  1  0.73447528  0.05194025  0.93122450  1  1.536749  0  0.19531  0.562989  0  4.251073  0
C  C168  1  0.61387701  0.02731116  0.96816581  1  -0.042308  0  -0.01898  -0.052313  0  3.961015  0
C  C169  1  0.64288414  0.02476567  0.04085322  1  -0.044206  0  -0.013505  -0.052547  0  3.971333  0
C  C170  1  0.47119464  0.00256016  0.92859893  1  0.009943  0  -0.089137  -0.130664  0  3.975503  0
C  C171  1  0.79116237  0.04979893  0.08929739  1  1.604431  0  0.209796  0.605324  0  4.205979  0
C  C172  1  0.72336267  0.56599422  0.41786051  1  1.579288  0  0.201839  0.59344  0  4.236278  0
C  C173  1  0.86041171  0.53051447  0.46318928  1  0.007397  0  -0.015382  -0.052827  0  3.964956  0
C  C174  1  0.00192468  0.56679805  0.47544578  1  -0.088027  0  -0.091789  -0.130406  0  3.974556  0
C  C175  1  0.85901219  0.46266293  0.48969154  1  -0.013243  0  -0.020803  -0.054695  0  3.980151  0
C  C176  1  0.71209196  0.42271404  0.48798292  1  1.549258  0  0.194097  0.554376  0  4.242797  0
C  C177  1  0.54672750  0.27488414  0.39714829  1  0.44137  0  0.003296  -0.016655  0  3.965698  0
C  C178  1  0.51233170  0.21047844  0.36232226  1  0.200443  0  0.000435  -0.117403  0  3.902367  0
C  C179  1  0.30463574  0.25169908  0.39599582  1  1.013731  0  0.147722  0.092456  0  3.913052  0
C  C180  1  0.26826450  0.13377205  0.33350781  1  0.303275  0  -0.057666  -0.162602  0  3.867464  0
C  C181  1  0.19254100  0.13029858  0.25509515  1  0.038696  0  -0.002434  0.099879  0  3.729141  0
C  C182  1  0.07196793  0.06795844  0.24572520  1  0.290888  0  -0.052157  -0.146902  0  3.802402  0
C  C183  1  0.06327241  0.99800052  0.34880262  1  0.9796  0  0.152007  0.105552  0  3.859159  0
C  C184  1  0.24067727  0.91894541  0.34395599  1  0.422147  0  -0.003136  -0.032275  0  4.021832  0
C  C185  1  0.22987867  0.95901911  0.28694604  1  0.266636  0  0.005966  -0.099742  0  3.874194  0
C  C186  1  0.09028138  0.19542747  0.23078250  1  0.24933  0  -0.046855  -0.13993  0  3.821718  0
C  C187  1  0.28832945  0.29666330  0.23376424  1  0.307937  0  -0.003685  -0.112331  0  3.94406  0
C  C188  1  0.29492048  0.34962837  0.18936201  1  0.43304  0  0.002793  -0.024403  0  3.990392  0
C  C189  1  0.09257955  0.28433027  0.14249047  1  0.937575  0  0.154328  0.10538  0  3.884906  0
C  C190  1  0.32419761  0.11695287  0.21628876  1  0.261519  0  -0.046042  -0.121599  0  3.800921  0
C  C191  1  0.39232005  0.16601531  0.11097077  1  0.28602  0  0.005596  -0.101802  0  3.920975  0
C  C192  1  0.33039087  0.16073953  0.04112563  1  0.392521  0  0.000282  -0.032382  0  4.025217  0
C  C193  1  0.17410640  0.10311747  0.09122285  1  0.932313  0  0.147018  0.110382  0  3.855834  0
C  C194  1  0.80308082  0.44808296  0.06874274  1  1.566303  0  0.193835  0.560098  0  4.25258  0
C  C195  1  0.64555043  0.47268558  0.03181809  1  -0.061932  0  -0.018338  -0.051176  0  3.95903  0
C  C196  1  0.60218453  0.47528758  0.95913904  1  0.028898  0  -0.014825  -0.054159  0  3.974199  0
C  C197  1  0.54234581  0.49737586  0.07141142  1  -0.068324  0  -0.089207  -0.130778  0  3.975071  0
C  C198  1  0.70224559  0.45025240  0.91072796  1  1.604622  0  0.209001  0.605252  0  4.208721  0
C  C199  1  0.30542646  0.93378655  0.58206343  1  1.582632  0  0.200848  0.591943  0  4.237511  0
C  C200  1  0.39723867  0.96933656  0.53676916  1  0.023944  0  -0.015303  -0.052184  0  3.963104  0
C  C201  1  0.52685088  0.93322551  0.52460752  1  -0.047661  0  -0.091023  -0.129686  0  3.972678  0
C  C202  1  0.36905026  0.03715325  0.51023005  1  -0.075137  0  -0.020964  -0.055181  0  3.979904  0
C  C203  1  0.22354924  0.07685223  0.51190333  1  1.552089  0  0.194842  0.555461  0  4.241348  0
N  N204  1  0.00008876  0.80007868  0.41770959  1  -1.22068  0  -0.355389  -0.283755  0  3.595072  0
N  N205  1  0.00217302  0.69693191  0.36145425  1  -1.233595  0  -0.25384  0.046275  0  3.797829  0
N  N206  1  0.24559092  0.44364537  0.38189092  1  -1.227196  0  -0.356187  -0.298715  0  3.614896  0
N  N207  1  0.17280430  0.50944951  0.29121225  1  -1.238771  0  -0.242569  0.052269  0  3.766094  0
N  N208  1  0.04225317  0.75542177  0.20346618  1  -1.228305  0  -0.239077  0.047529  0  3.758678  0
N  N209  1  0.95967115  0.84155103  0.13273215  1  -1.24149  0  -0.35846  -0.292963  0  3.63508  0
N  N210  1  0.83493816  0.62177906  0.02944667  1  -1.265347  0  -0.362216  -0.303141  0  3.626724  0
N  N211  1  0.84905818  0.62954488  0.14189259  1  -1.22921  0  -0.239377  0.050944  0  3.749486  0
N  N212  1  0.58372384  0.69999828  0.58228753  1  -1.23074  0  -0.353459  -0.281349  0  3.594367  0
N  N213  1  0.64215235  0.80313879  0.63850684  1  -1.270155  0  -0.25436  0.047086  0  3.797791  0
N  N214  1  0.86400026  0.05659723  0.61814935  1  -1.248346  0  -0.357973  -0.301166  0  3.61651  0
N  N215  1  0.88225550  0.99075603  0.70883851  1  -1.255447  0  -0.243217  0.052782  0  3.763299  0
N  N216  1  0.84022129  0.74471021  0.79657801  1  -1.233783  0  -0.238671  0.04827  0  3.759395  0
N  N217  1  0.82812956  0.65850772  0.86721758  1  -1.252385  0  -0.35734  -0.291993  0  3.637103  0
N  N218  1  0.80566945  0.87835676  0.97047959  1  -1.244956  0  -0.362701  -0.302995  0  3.626949  0
N  N219  1  0.70802370  0.87055926  0.85799617  1  -1.23384  0  -0.239849  0.047012  0  3.752071  0
N  N220  1  0.99991608  0.19992201  0.58229387  1  -1.220691  0  -0.355303  -0.283641  0  3.595344  0
N  N221  1  0.99782725  0.30306983  0.63854584  1  -1.233558  0  -0.253858  0.046426  0  3.797673  0
N  N222  1  0.75440931  0.55635426  0.61810908  1  -1.22723  0  -0.356206  -0.298764  0  3.614947  0
N  N223  1  0.82720012  0.49055224  0.70878850  1  -1.238875  0  -0.242547  0.052309  0  3.765956  0
N  N224  1  0.95773826  0.24457945  0.79653319  1  -1.228401  0  -0.239078  0.047315  0  3.758733  0
N  N225  1  0.04032495  0.15845230  0.86726960  1  -1.241539  0  -0.358527  -0.292954  0  3.635033  0
N  N226  1  0.16505110  0.37821633  0.97055156  1  -1.265329  0  -0.362176  -0.303101  0  3.626505  0
N  N227  1  0.15094306  0.37045369  0.85810725  1  -1.229277  0  -0.23947  0.050846  0  3.749626  0
N  N228  1  0.41627946  0.29999869  0.41771201  1  -1.230547  0  -0.353439  -0.281367  0  3.594438  0
N  N229  1  0.35784784  0.19685925  0.36149310  1  -1.2697  0  -0.254325  0.046952  0  3.797699  0
N  N230  1  0.13599689  0.94340345  0.38184992  1  -1.248806  0  -0.358013  -0.301281  0  3.616512  0
N  N231  1  0.11774322  0.00924412  0.29116001  1  -1.255152  0  -0.243224  0.052824  0  3.763217  0
N  N232  1  0.15977837  0.25528994  0.20342376  1  -1.23381  0  -0.238658  0.048263  0  3.759353  0
N  N233  1  0.17186335  0.34149138  0.13278322  1  -1.252047  0  -0.357411  -0.29205  0  3.636984  0
N  N234  1  0.19433700  0.12164393  0.02952201  1  -1.24484  0  -0.362745  -0.303061  0  3.626716  0
N  N235  1  0.29197658  0.12944408  0.14200512  1  -1.234271  0  -0.239835  0.046903  0  3.752312  0
O  O236  1  0.29338916  0.94816247  0.13343964  1  -1.146914  0  -0.337756  -0.572037  0  2.134209  0
O  O237  1  0.13430823  0.92976975  0.02741283  1  -1.176969  0  -0.333289  -0.558026  0  2.393425  0
O  O238  1  0.19749345  0.88884408  0.88449800  1  -1.175546  0  -0.335912  -0.551912  0  2.072562  0
O  O239  1  0.10225303  0.99828587  0.89304809  1  -1.193451  0  -0.339578  -0.574987  0  2.376387  0
O  O240  1  0.36354519  0.39269498  0.55321126  1  -1.174595  0  -0.350389  -0.578731  0  2.352471  0
O  O241  1  0.28934508  0.43994765  0.64615812  1  -1.139886  0  -0.342657  -0.555571  0  2.063728  0
O  O242  1  0.41366327  0.54879025  0.54629873  1  -1.163933  0  -0.326799  -0.546771  0  2.352366  0
O  O243  1  0.28467886  0.63329012  0.47995655  1  -1.188675  0  -0.329507  -0.565378  0  2.166603  0
O  O244  1  0.16027464  0.55182310  0.86659338  1  -1.154424  0  -0.338015  -0.57144  0  2.135868  0
O  O245  1  0.10684938  0.57004496  0.97261060  1  -1.175189  0  -0.33112  -0.555421  0  2.394275  0
O  O246  1  0.31229399  0.61113752  0.11540999  1  -1.176253  0  -0.335559  -0.551501  0  2.073571  0
O  O247  1  0.20893814  0.50163389  0.10697407  1  -1.193346  0  -0.339202  -0.575447  0  2.375687  0
O  O248  1  0.80988720  0.10775597  0.44691419  1  -1.174498  0  -0.35017  -0.578045  0  2.352919  0
O  O249  1  0.64364518  0.06017290  0.35390920  1  -1.147477  0  -0.341801  -0.554747  0  2.063405  0
O  O250  1  0.86771270  0.95170405  0.45374662  1  -1.158872  0  -0.327796  -0.548211  0  2.352593  0
O  O251  1  0.80582715  0.86721084  0.52022794  1  -1.187105  0  -0.329583  -0.565745  0  2.167114  0
O  O252  1  0.70661630  0.05183821  0.86655982  1  -1.14699  0  -0.337761  -0.572031  0  2.134351  0
O  O253  1  0.86569361  0.07023147  0.97258650  1  -1.176497  0  -0.333318  -0.55805  0  2.393278  0
O  O254  1  0.80250469  0.11115714  0.11550343  1  -1.175634  0  -0.335959  -0.551913  0  2.072479  0
O  O255  1  0.89775458  0.00171746  0.10695125  1  -1.193568  0  -0.339513  -0.57492  0  2.376376  0
O  O256  1  0.63645243  0.60730253  0.44678726  1  -1.174506  0  -0.350371  -0.578689  0  2.352343  0
O  O257  1  0.71065621  0.56005145  0.35384062  1  -1.139734  0  -0.342708  -0.555614  0  2.063779  0
O  O258  1  0.58633605  0.45120406  0.45369216  1  -1.163784  0  -0.326666  -0.546687  0  2.352459  0
O  O259  1  0.71532194  0.36671110  0.52004290  1  -1.188675  0  -0.329467  -0.56529  0  2.166665  0
O  O260  1  0.83972074  0.44817017  0.13340743  1  -1.15444  0  -0.338023  -0.571476  0  2.135802  0
O  O261  1  0.89313978  0.42994884  0.02738981  1  -1.174989  0  -0.331132  -0.555393  0  2.394302  0
O  O262  1  0.68769375  0.38885521  0.88458436  1  -1.175682  0  -0.33568  -0.551717  0  2.073014  0
O  O263  1  0.79105307  0.49836097  0.89302840  1  -1.193372  0  -0.339143  -0.575405  0  2.375444  0
O  O264  1  0.19012193  0.89224790  0.55308669  1  -1.174443  0  -0.350183  -0.578112  0  2.352979  0
O  O265  1  0.35636561  0.93983468  0.64609110  1  -1.147511  0  -0.341821  -0.554722  0  2.063201  0
O  O266  1  0.13228400  0.04829769  0.54625106  1  -1.158846  0  -0.3278  -0.548239  0  2.352558  0
O  O267  1  0.19416904  0.13279408  0.47977163  1  -1.187298  0  -0.329589  -0.565756  0  2.167168  0
