# generated using pymatgen
data_CdH7C9N2O5
_symmetry_space_group_name_H-M   'P 1'
_cell_length_a   14.28939211
_cell_length_b   14.27941557
_cell_length_c   17.02348113
_cell_angle_alpha   105.02978887
_cell_angle_beta   109.92117989
_cell_angle_gamma   106.52580463
_symmetry_Int_Tables_number   1
_chemical_formula_structural   CdH7C9N2O5
_chemical_formula_sum   'Cd8 H56 C72 N16 O40'
_cell_volume   2875.87704978
_cell_formula_units_Z   8
loop_
 _symmetry_equiv_pos_site_id
 _symmetry_equiv_pos_as_xyz
  1  'x, y, z'
loop_
 _atom_site_type_symbol
 _atom_site_label
 _atom_site_symmetry_multiplicity
 _atom_site_fract_x
 _atom_site_fract_y
 _atom_site_fract_z
 _atom_site_occupancy
 _atom_site_pbe_bader_charge
 _atom_site_pbe_bader_spin_density
 _atom_site_pbe_cm5_charge
 _atom_site_pbe_ddec_charge
 _atom_site_pbe_ddec_spin_density
 _atom_site_pbe_ddec_sum_bond_order
 _atom_site_pbe_magmom
Cd  Cd0  1  0.84729359  0.07738653  0.22341531  1  1.306468  0  0.786026  0.975696  0  2.102798  0
Cd  Cd1  1  0.60242302  0.90490741  0.28402052  1  1.305388  0  0.775446  0.962888  0  2.085578  0
Cd  Cd2  1  0.35417775  0.62387398  0.27670877  1  1.306891  0  0.786289  0.976395  0  2.101621  0
Cd  Cd3  1  0.12075885  0.31844281  0.21585311  1  1.306467  0  0.775343  0.96321  0  2.084955  0
Cd  Cd4  1  0.15270573  0.92261535  0.77657711  1  1.306485  0  0.786022  0.975739  0  2.102791  0
Cd  Cd5  1  0.39757460  0.09509134  0.71597810  1  1.305294  0  0.775448  0.96293  0  2.085584  0
Cd  Cd6  1  0.64582486  0.37613557  0.72329323  1  1.306805  0  0.786262  0.976423  0  2.101575  0
Cd  Cd7  1  0.87924916  0.68155874  0.78414394  1  1.306393  0  0.775344  0.963224  0  2.084949  0
H  H8  1  0.90959752  0.25499756  0.37214835  1  0.6477  0  0.325614  0.409653  0  0.865245  0
H  H9  1  0.80002322  0.17321946  0.36134710  1  0.643719  0  0.288506  0.388963  0  0.953901  0
H  H10  1  0.66519408  0.74585473  0.28624116  1  0.611262  0  0.310863  0.398291  0  0.897319  0
H  H11  1  0.62254959  0.75406207  0.36118752  1  0.656008  0  0.289439  0.392809  0  0.944221  0
H  H12  1  0.23815581  0.07305801  0.19443904  1  0.079241  0  0.095993  0.098423  0  1.026588  0
H  H13  1  0.98645740  0.82064030  0.19546295  1  0.028988  0  0.10112  0.100495  0  1.020337  0
H  H14  1  0.02648745  0.05126483  0.14490819  1  0.107348  0  0.117394  0.11901  0  1.009903  0
H  H15  1  0.02802793  0.95547955  0.05508451  1  0.131267  0  0.122102  0.128365  0  0.997042  0
H  H16  1  0.68231981  0.68095621  0.99557392  1  0.131689  0  0.123809  0.154845  0  0.988569  0
H  H17  1  0.20622705  0.74336975  0.99677477  1  0.148211  0  0.123998  0.163751  0  0.995955  0
H  H18  1  0.50580950  0.07834677  0.07077010  1  0.128043  0  0.121332  0.122745  0  0.996783  0
H  H19  1  0.59477496  0.06852637  0.16895029  1  0.090626  0  0.117724  0.11058  0  0.987939  0
H  H20  1  0.37389846  0.15949531  0.08154932  1  0.134243  0  0.096958  0.106637  0  1.039769  0
H  H21  1  0.61264339  0.15991891  0.31799117  1  0.07352  0  0.093217  0.092341  0  1.072504  0
H  H22  1  0.38326449  0.53765126  0.12790566  1  0.605076  0  0.326198  0.4101  0  0.864551  0
H  H23  1  0.31204998  0.43885155  0.13858413  1  0.654777  0  0.288839  0.389635  0  0.95332  0
H  H24  1  0.95959764  0.37894465  0.21389250  1  0.608739  0  0.310732  0.397894  0  0.897326  0
H  H25  1  0.89282873  0.26139309  0.13889637  1  0.655269  0  0.289406  0.392602  0  0.944405  0
H  H26  1  0.37815248  0.04407751  0.30531494  1  0.054803  0  0.096062  0.098618  0  1.025205  0
H  H27  1  0.12539491  0.79116680  0.30479420  1  0.050901  0  0.10067  0.099266  0  1.022154  0
H  H28  1  0.40615712  0.88170896  0.35477397  1  0.115672  0  0.117041  0.118441  0  1.010283  0
H  H29  1  0.40049934  0.97311266  0.44474685  1  0.128047  0  0.121802  0.127184  0  0.998127  0
H  H30  1  0.18564208  0.68695182  0.50451236  1  0.141527  0  0.123893  0.154872  0  0.988242  0
H  H31  1  0.24645801  0.20935583  0.50324300  1  0.159734  0  0.123787  0.163703  0  0.996509  0
H  H32  1  0.50722202  0.43524738  0.42926165  1  0.150386  0  0.120913  0.122892  0  0.996783  0
H  H33  1  0.39929071  0.42640319  0.33126833  1  0.10084  0  0.117532  0.110444  0  0.989056  0
H  H34  1  0.57792280  0.29320033  0.41832683  1  0.088134  0  0.097167  0.10697  0  1.039897  0
H  H35  1  0.34101984  0.29465378  0.18188847  1  0.059655  0  0.092851  0.091735  0  1.073384  0
H  H36  1  0.09040068  0.74499908  0.62785004  1  0.647671  0  0.32561  0.40965  0  0.865281  0
H  H37  1  0.19997469  0.82677719  0.63865023  1  0.643681  0  0.28853  0.388955  0  0.953905  0
H  H38  1  0.33480362  0.25414245  0.71375595  1  0.611311  0  0.310855  0.398295  0  0.897353  0
H  H39  1  0.37745111  0.24593587  0.63881257  1  0.656052  0  0.289463  0.392828  0  0.944193  0
H  H40  1  0.76184440  0.92694047  0.80555977  1  0.079221  0  0.095975  0.098403  0  1.026581  0
H  H41  1  0.01354427  0.17935724  0.80453574  1  0.028972  0  0.101117  0.100487  0  1.020381  0
H  H42  1  0.97351124  0.94873337  0.85509386  1  0.107344  0  0.117393  0.119042  0  1.009878  0
H  H43  1  0.97197109  0.04452256  0.94491630  1  0.131278  0  0.122111  0.128405  0  0.996994  0
H  H44  1  0.31767861  0.31904471  0.00442786  1  0.131716  0  0.123802  0.154856  0  0.988595  0
H  H45  1  0.79377130  0.25663064  0.00322615  1  0.148223  0  0.123996  0.163732  0  0.995974  0
H  H46  1  0.49419165  0.92165282  0.92923122  1  0.128081  0  0.121302  0.122715  0  0.996765  0
H  H47  1  0.40522707  0.93147169  0.83105032  1  0.090692  0  0.117744  0.110617  0  0.98795  0
H  H48  1  0.62610378  0.84050433  0.91845387  1  0.134144  0  0.096919  0.106566  0  1.039778  0
H  H49  1  0.38735825  0.84007743  0.68201063  1  0.0736  0  0.093193  0.092365  0  1.072585  0
H  H50  1  0.61673463  0.46234987  0.87209209  1  0.605232  0  0.326209  0.410122  0  0.864391  0
H  H51  1  0.68795259  0.56115199  0.86141783  1  0.654741  0  0.288821  0.38958  0  0.953398  0
H  H52  1  0.04040339  0.62105449  0.78610554  1  0.608836  0  0.310686  0.39786  0  0.897317  0
H  H53  1  0.10717533  0.73860742  0.86110309  1  0.655215  0  0.289384  0.392581  0  0.944431  0
H  H54  1  0.62184849  0.95592381  0.69468305  1  0.054683  0  0.096059  0.098598  0  1.025217  0
H  H55  1  0.87460854  0.20883521  0.69520704  1  0.050898  0  0.100674  0.099268  0  1.022117  0
H  H56  1  0.59384456  0.11829339  0.64522788  1  0.115634  0  0.117027  0.118442  0  1.010299  0
H  H57  1  0.59950243  0.02689082  0.55525431  1  0.128075  0  0.121781  0.127153  0  0.998234  0
H  H58  1  0.81435762  0.31304930  0.49548753  1  0.141621  0  0.123888  0.154867  0  0.988254  0
H  H59  1  0.75354002  0.79063916  0.49675524  1  0.159834  0  0.1238  0.163661  0  0.99657  0
H  H60  1  0.49277675  0.56474925  0.57073889  1  0.15038  0  0.120885  0.122883  0  0.996696  0
H  H61  1  0.60071021  0.57359422  0.66873198  1  0.100772  0  0.117492  0.110381  0  0.989086  0
H  H62  1  0.42207606  0.70679344  0.58167775  1  0.088234  0  0.097177  0.10699  0  1.039963  0
H  H63  1  0.65898313  0.70534539  0.81811466  1  0.059755  0  0.092879  0.091769  0  1.073365  0
C  C64  1  0.21276896  0.01097668  0.21850328  1  -0.092925  0  -0.094954  -0.129439  0  3.9835  0
C  C65  1  0.07207980  0.87025642  0.21864905  1  -0.027492  0  -0.095257  -0.130797  0  3.995454  0
C  C66  1  0.10141123  0.94880769  0.18629851  1  -0.023272  0  -0.013393  0.093945  0  3.966882  0
C  C67  1  0.01802249  0.96918605  0.11752046  1  0.291742  0  -0.048676  -0.159295  0  3.869245  0
C  C68  1  0.84134420  0.79993189  0.02244496  1  0.356363  0  0.098063  -0.01395  0  3.921573  0
C  C69  1  0.75149874  0.75701487  0.03753516  1  0.05954  0  -0.082643  -0.207999  0  3.928936  0
C  C70  1  0.76683569  0.83598478  0.11551991  1  0.459253  0  0.092205  0.053482  0  4.031956  0
C  C71  1  0.35518543  0.74372908  0.17132375  1  1.575534  0  0.199233  0.550041  0  4.247057  0
C  C72  1  0.69744824  0.83906696  0.16354693  1  1.586624  0  0.208553  0.576079  0  4.204048  0
C  C73  1  0.29196500  0.92980715  0.95291171  1  1.620335  0  0.203547  0.550216  0  4.282458  0
C  C74  1  0.33421279  0.90022535  0.03126027  1  0.318324  0  0.094816  -0.011936  0  3.911692  0
C  C75  1  0.28543966  0.80832849  0.04229700  1  0.032843  0  -0.083667  -0.200935  0  3.916053  0
C  C76  1  0.36140272  0.81714234  0.12467779  1  0.451516  0  0.084977  0.049533  0  4.061549  0
C  C77  1  0.86037468  0.75748934  0.94290916  1  1.590698  0  0.209499  0.559313  0  4.249894  0
C  C78  1  0.51401324  0.06691064  0.13348928  1  0.265169  0  -0.047336  -0.14968  0  3.872109  0
C  C79  1  0.49387244  0.14940658  0.19350777  1  -0.053708  0  -0.012954  0.094998  0  3.967733  0
C  C80  1  0.41764452  0.18812966  0.15536918  1  -0.088897  0  -0.09394  -0.130102  0  3.972233  0
C  C81  1  0.55147105  0.18806717  0.28824458  1  0.002578  0  -0.097577  -0.13531  0  3.995862  0
C  C82  1  0.29213358  0.99457735  0.28139559  1  -0.023081  0  -0.095782  -0.130193  0  3.983245  0
C  C83  1  0.15164693  0.85364018  0.28152702  1  0.063793  0  -0.095217  -0.128979  0  3.996867  0
C  C84  1  0.26241958  0.91539110  0.31370123  1  -0.095166  0  -0.013264  0.092578  0  3.969764  0
C  C85  1  0.35166852  0.90069374  0.38232556  1  0.288383  0  -0.047915  -0.156587  0  3.868546  0
C  C86  1  0.27768452  0.81909943  0.47753683  1  0.358314  0  0.097829  -0.014599  0  3.922347  0
C  C87  1  0.21967481  0.71413920  0.46249748  1  -0.014364  0  -0.083151  -0.207764  0  3.92803  0
C  C88  1  0.22064033  0.65143269  0.38453039  1  0.480637  0  0.092168  0.05289  0  4.029479  0
C  C89  1  0.07241688  0.18387866  0.32868937  1  1.577638  0  0.199008  0.550143  0  4.247961  0
C  C90  1  0.17569059  0.53396586  0.33654481  1  1.572985  0  0.208617  0.577211  0  4.200745  0
C  C91  1  0.47660103  0.33885105  0.54700943  1  1.623125  0  0.203484  0.551044  0  4.284309  0
C  C92  1  0.36874010  0.30291272  0.46871942  1  0.31133  0  0.093908  -0.013678  0  3.910765  0
C  C93  1  0.26588194  0.24308851  0.45769995  1  0.015458  0  -0.08315  -0.199873  0  3.917077  0
C  C94  1  0.19237633  0.23681295  0.37536982  1  0.447768  0  0.085091  0.048419  0  4.06324  0
C  C95  1  0.31493797  0.91767701  0.55711536  1  1.60356  0  0.208429  0.555851  0  4.2561  0
C  C96  1  0.43307856  0.38090029  0.36655138  1  0.232804  0  -0.047032  -0.150703  0  3.872665  0
C  C97  1  0.45544828  0.30078205  0.30638725  1  0.009336  0  -0.013194  0.09522  0  3.967728  0
C  C98  1  0.53253998  0.26294751  0.34451038  1  -0.082309  0  -0.093914  -0.130073  0  3.97325  0
C  C99  1  0.39906515  0.26337417  0.21164409  1  -0.073368  0  -0.097226  -0.134464  0  3.995464  0
C  C100  1  0.78723035  0.98902061  0.78149543  1  -0.092804  0  -0.094948  -0.129469  0  3.983484  0
C  C101  1  0.92792201  0.12974217  0.78135135  1  -0.027506  0  -0.095323  -0.130914  0  3.995502  0
C  C102  1  0.89859068  0.05119203  0.81370119  1  -0.023579  0  -0.013341  0.094083  0  3.966846  0
C  C103  1  0.98197735  0.03081402  0.88247878  1  0.291985  0  -0.048696  -0.159397  0  3.869247  0
C  C104  1  0.15865318  0.20006679  0.97755501  1  0.356317  0  0.098103  -0.013814  0  3.921721  0
C  C105  1  0.24849946  0.24298658  0.96246641  1  0.059276  0  -0.082714  -0.208109  0  3.929042  0
C  C106  1  0.23316453  0.16401910  0.88448051  1  0.459813  0  0.092203  0.053438  0  4.031885  0
C  C107  1  0.64481168  0.25627442  0.82867831  1  1.575307  0  0.199235  0.549989  0  4.247161  0
C  C108  1  0.30255245  0.16093918  0.83645316  1  1.587536  0  0.208642  0.576249  0  4.204023  0
C  C109  1  0.70803612  0.07019311  0.04708564  1  1.620426  0  0.203525  0.550109  0  4.282439  0
C  C110  1  0.66578594  0.09977406  0.96873866  1  0.318387  0  0.094826  -0.011937  0  3.911689  0
C  C111  1  0.71455833  0.19167349  0.95770436  1  0.032621  0  -0.083659  -0.200881  0  3.916016  0
C  C112  1  0.63859431  0.18286064  0.87532341  1  0.451746  0  0.08494  0.049564  0  4.061478  0
C  C113  1  0.13962331  0.24251053  0.05708983  1  1.590663  0  0.209453  0.55915  0  4.250206  0
C  C114  1  0.48598888  0.93308855  0.86651064  1  0.264789  0  -0.047331  -0.149736  0  3.872259  0
C  C115  1  0.50613082  0.85059259  0.80649644  1  -0.053415  0  -0.012951  0.094974  0  3.967824  0
C  C116  1  0.58235787  0.81186892  0.84463337  1  -0.088908  0  -0.093932  -0.129966  0  3.972231  0
C  C117  1  0.44853000  0.81192858  0.71175664  1  0.002613  0  -0.097503  -0.135258  0  3.995928  0
C  C118  1  0.70786699  0.00542225  0.71860359  1  -0.022914  0  -0.095772  -0.130146  0  3.983264  0
C  C119  1  0.84835387  0.14636159  0.71847318  1  0.063788  0  -0.095183  -0.128923  0  3.996727  0
C  C120  1  0.73758122  0.08461068  0.68629896  1  -0.095239  0  -0.013274  0.092565  0  3.969739  0
C  C121  1  0.64833205  0.09930796  0.61767598  1  0.288438  0  -0.047841  -0.156496  0  3.868604  0
C  C122  1  0.72231437  0.18090163  0.52246226  1  0.358304  0  0.097835  -0.014594  0  3.922334  0
C  C123  1  0.78032349  0.28586127  0.53750103  1  -0.014684  0  -0.083163  -0.20777  0  3.928023  0
C  C124  1  0.77936034  0.34857074  0.61546890  1  0.480803  0  0.092178  0.052883  0  4.02949  0
C  C125  1  0.92758149  0.81612023  0.67130763  1  1.57748  0  0.199041  0.550146  0  4.247915  0
C  C126  1  0.82431090  0.46603553  0.66345291  1  1.573049  0  0.20856  0.577153  0  4.20092  0
C  C127  1  0.52339709  0.66114717  0.45299048  1  1.623161  0  0.203514  0.551158  0  4.284275  0
C  C128  1  0.63125808  0.69708332  0.53128053  1  0.311174  0  0.093922  -0.013769  0  3.910804  0
C  C129  1  0.73411660  0.75690595  0.54229957  1  0.015569  0  -0.083207  -0.199832  0  3.917184  0
C  C130  1  0.80762252  0.76318210  0.62462922  1  0.447861  0  0.085149  0.04852  0  4.063296  0
C  C131  1  0.68505987  0.08232393  0.44288428  1  1.603076  0  0.208407  0.555772  0  4.256175  0
C  C132  1  0.56692139  0.61909751  0.63345033  1  0.232902  0  -0.046995  -0.15068  0  3.87255  0
C  C133  1  0.54455223  0.69921303  0.69361580  1  0.009324  0  -0.013146  0.095376  0  3.967516  0
C  C134  1  0.46745750  0.73704621  0.65549125  1  -0.082341  0  -0.094023  -0.130228  0  3.973167  0
C  C135  1  0.60093700  0.73662434  0.78835981  1  -0.073543  0  -0.097226  -0.1346  0  3.995445  0
N  N136  1  0.86102203  0.92144630  0.14698695  1  -0.671693  0  -0.226217  -0.257967  0  3.340561  0
N  N137  1  0.90558707  0.89956953  0.09077002  1  -0.75697  0  -0.116333  0.204766  0  3.690262  0
N  N138  1  0.45184512  0.90892376  0.16269740  1  -0.659857  0  -0.22001  -0.267999  0  3.308009  0
N  N139  1  0.43474032  0.95853445  0.10583839  1  -0.733313  0  -0.110475  0.209515  0  3.673473  0
N  N140  1  0.27460988  0.71413189  0.35300340  1  -0.670996  0  -0.226137  -0.259042  0  3.340448  0
N  N141  1  0.30896157  0.81496676  0.40917614  1  -0.734856  0  -0.115738  0.206169  0  3.688637  0
N  N142  1  0.24608235  0.28935582  0.33736097  1  -0.681588  0  -0.220441  -0.268048  0  3.307879  0
N  N143  1  0.35246114  0.32905932  0.39418535  1  -0.713421  0  -0.108719  0.212024  0  3.672687  0
N  N144  1  0.13897803  0.07855323  0.85301251  1  -0.67193  0  -0.226234  -0.257986  0  3.340371  0
N  N145  1  0.09441386  0.10043059  0.90923109  1  -0.757031  0  -0.116304  0.204758  0  3.690383  0
N  N146  1  0.54815278  0.09107709  0.83730465  1  -0.659882  0  -0.219979  -0.268075  0  3.307957  0
N  N147  1  0.56525885  0.04146390  0.89416097  1  -0.733314  0  -0.110482  0.209565  0  3.67355  0
N  N148  1  0.72538915  0.28587021  0.64699741  1  -0.67099  0  -0.226134  -0.259087  0  3.340387  0
N  N149  1  0.69103894  0.18503442  0.59082454  1  -0.734778  0  -0.115755  0.206178  0  3.688687  0
N  N150  1  0.75391820  0.71064318  0.66263977  1  -0.68164  0  -0.220466  -0.268125  0  3.307959  0
N  N151  1  0.64753971  0.67093967  0.60581646  1  -0.713504  0  -0.108699  0.212116  0  3.672691  0
O  O152  1  0.62380881  0.75587668  0.15018600  1  -1.160808  0  -0.324941  -0.535489  0  2.052405  0
O  O153  1  0.72049417  0.93292857  0.22093966  1  -1.139742  0  -0.335704  -0.574832  0  2.368019  0
O  O154  1  0.44004847  0.77114769  0.24707710  1  -1.162723  0  -0.338775  -0.587441  0  2.382379  0
O  O155  1  0.27135269  0.65943929  0.13970992  1  -1.143611  0  -0.316524  -0.518221  0  2.095041  0
O  O156  1  0.19943648  0.85869850  0.88627361  1  -1.165084  0  -0.326043  -0.560149  0  2.28949  0
O  O157  1  0.34371524  0.01600991  0.95188357  1  -1.163343  0  -0.312096  -0.53982  0  2.17485  0
O  O158  1  0.93184598  0.81700433  0.92867723  1  -1.154925  0  -0.308811  -0.520519  0  2.175895  0
O  O159  1  0.79782064  0.66098920  0.88672506  1  -1.181377  0  -0.317024  -0.558483  0  2.264225  0
O  O160  1  0.83363025  0.21011047  0.32851503  1  -1.245369  0  -0.577383  -0.740556  0  1.99761  0
O  O161  1  0.67469652  0.79568086  0.34292938  1  -1.221874  0  -0.579428  -0.73677  0  2.010982  0
O  O162  1  0.10578652  0.47365983  0.34980968  1  -1.155859  0  -0.324721  -0.536037  0  2.051353  0
O  O163  1  0.21224269  0.49959232  0.27923079  1  -1.140264  0  -0.335889  -0.574919  0  2.36822  0
O  O164  1  0.02413196  0.19273020  0.25276947  1  -1.162775  0  -0.33846  -0.587691  0  2.383097  0
O  O165  1  0.01977343  0.13182434  0.36045120  1  -1.136184  0  -0.317001  -0.518443  0  2.095561  0
O  O166  1  0.47219854  0.31296480  0.61369448  1  -1.156666  0  -0.32627  -0.560961  0  2.291726  0
O  O167  1  0.56378154  0.39154931  0.54797342  1  -1.164805  0  -0.311525  -0.539649  0  2.177745  0
O  O168  1  0.38863635  0.00335911  0.57129674  1  -1.147979  0  -0.308525  -0.519178  0  2.177198  0
O  O169  1  0.27477270  0.91126631  0.61340504  1  -1.173974  0  -0.31654  -0.556684  0  2.267248  0
O  O170  1  0.38180156  0.50520999  0.17148803  1  -1.212966  0  -0.578471  -0.741655  0  1.99583  0
O  O171  1  0.95262135  0.33182503  0.15711801  1  -1.218641  0  -0.579078  -0.736052  0  2.010671  0
O  O172  1  0.37618738  0.24412902  0.84981279  1  -1.161359  0  -0.324954  -0.535538  0  2.052445  0
O  O173  1  0.27950870  0.06707767  0.77906417  1  -1.140158  0  -0.335765  -0.574917  0  2.368003  0
O  O174  1  0.55994908  0.22885746  0.75292620  1  -1.162696  0  -0.338791  -0.587508  0  2.382433  0
O  O175  1  0.72864543  0.34056374  0.86029315  1  -1.143622  0  -0.316517  -0.518182  0  2.095119  0
O  O176  1  0.80056392  0.14130284  0.11372224  1  -1.165144  0  -0.326054  -0.560087  0  2.289595  0
O  O177  1  0.65628887  0.98398841  0.04811595  1  -1.163266  0  -0.312055  -0.539742  0  2.174755  0
O  O178  1  0.06814849  0.18299743  0.07131987  1  -1.154974  0  -0.308765  -0.520429  0  2.175999  0
O  O179  1  0.20218108  0.33900826  0.11327605  1  -1.181243  0  -0.317009  -0.558436  0  2.264367  0
O  O180  1  0.16636862  0.78988788  0.67148325  1  -1.245321  0  -0.577377  -0.740518  0  1.997694  0
O  O181  1  0.32530316  0.20431755  0.65706970  1  -1.221878  0  -0.579442  -0.736798  0  2.011075  0
O  O182  1  0.89421538  0.52633989  0.65019002  1  -1.155957  0  -0.324699  -0.536  0  2.051473  0
O  O183  1  0.78775815  0.50041065  0.72076629  1  -1.140234  0  -0.335868  -0.574894  0  2.368274  0
O  O184  1  0.97587190  0.80727354  0.74723059  1  -1.162594  0  -0.3385  -0.587781  0  2.383061  0
O  O185  1  0.98022208  0.86817484  0.63954454  1  -1.136163  0  -0.316992  -0.518419  0  2.095589  0
O  O186  1  0.52780410  0.68703656  0.38630753  1  -1.156673  0  -0.326233  -0.560933  0  2.291683  0
O  O187  1  0.43621691  0.60845010  0.45202444  1  -1.164856  0  -0.311557  -0.539729  0  2.177814  0
O  O188  1  0.61135980  0.99664328  0.42870281  1  -1.147473  0  -0.308503  -0.519128  0  2.177219  0
O  O189  1  0.72522632  0.08873310  0.38659496  1  -1.173961  0  -0.316525  -0.556626  0  2.267314  0
O  O190  1  0.61819883  0.49479555  0.82851255  1  -1.213004  0  -0.578441  -0.741611  0  1.995783  0
O  O191  1  0.04738314  0.66817441  0.84288189  1  -1.21874  0  -0.579024  -0.736004  0  2.010683  0
