# generated using pymatgen
data_ZnH30C35(NO3)2
_symmetry_space_group_name_H-M   'P 1'
_cell_length_a   9.06807191
_cell_length_b   11.57291161
_cell_length_c   15.68500000
_cell_angle_alpha   96.56445880
_cell_angle_beta   100.49028499
_cell_angle_gamma   106.34549794
_symmetry_Int_Tables_number   1
_chemical_formula_structural   ZnH30C35(NO3)2
_chemical_formula_sum   'Zn2 H60 C70 N4 O12'
_cell_volume   1529.02046875
_cell_formula_units_Z   2
loop_
 _symmetry_equiv_pos_site_id
 _symmetry_equiv_pos_as_xyz
  1  'x, y, z'
loop_
 _atom_site_type_symbol
 _atom_site_label
 _atom_site_symmetry_multiplicity
 _atom_site_fract_x
 _atom_site_fract_y
 _atom_site_fract_z
 _atom_site_occupancy
 _atom_site_hle17_bader_spin_density
 _atom_site_hle17_ddec_charge
 _atom_site_hle17_ddec_spin_density
 _atom_site_hle17_ddec_sum_bond_order
 _atom_site_hle17_magmom
 _atom_site_hse06_10hf_bader_spin_density
 _atom_site_hse06_10hf_ddec_charge
 _atom_site_hse06_10hf_ddec_spin_density
 _atom_site_hse06_10hf_ddec_sum_bond_order
 _atom_site_hse06_10hf_magmom
 _atom_site_hse06_bader_spin_density
 _atom_site_hse06_ddec_charge
 _atom_site_hse06_ddec_spin_density
 _atom_site_hse06_ddec_sum_bond_order
 _atom_site_hse06_magmom
 _atom_site_pbe_bader_charge
 _atom_site_pbe_bader_spin_density
 _atom_site_pbe_cm5_charge
 _atom_site_pbe_ddec_charge
 _atom_site_pbe_ddec_spin_density
 _atom_site_pbe_ddec_sum_bond_order
 _atom_site_pbe_magmom
Zn  Zn0  1  0.56197448  0.49361710  0.31747755  1  0  0.98113  0  1.897296  0  0  0.787553  0  2.379744  0  0  0.834586  0  2.324527  0  1.245366  0  0.694819  0.7548  0  2.417574  0
Zn  Zn1  1  0.43802489  0.50638319  0.68252043  1  0  0.981129  0  1.897363  0  0  0.787549  0  2.37981  0  0  0.834602  0  2.324579  0  1.245352  0  0.694815  0.754799  0  2.417637  0
H  H2  1  0.61325752  0.32876281  0.44380796  1  0  0.074797  0  0.961695  0  0  0.083775  0  1.02964  0  0  0.08557  0  1.028038  0  0.090274  0  0.116689  0.082695  0  1.030143  0
H  H3  1  0.38674258  0.67123931  0.55619216  1  0  0.074806  0  0.961628  0  0  0.083784  0  1.029582  0  0  0.085575  0  1.027986  0  0.090281  0  0.116692  0.082704  0  1.030084  0
H  H4  1  0.12498754  0.08219802  0.23311675  1  0  0.11017  0  0.955977  0  0  0.119478  0  1.017371  0  0  0.122436  0  1.017494  0  0.116472  0  0.108823  0.117676  0  1.016772  0
H  H5  1  0.87501485  0.91779861  0.76688507  1  0  0.110201  0  0.955884  0  0  0.119494  0  1.017297  0  0  0.122449  0  1.017422  0  0.116354  0  0.108811  0.117692  0  1.016697  0
H  H6  1  0.93249698  0.90872140  0.50861502  1  0  0.089363  0  0.967077  0  0  0.099837  0  1.031542  0  0  0.102876  0  1.028903  0  0.068791  0  0.09919  0.097633  0  1.033444  0
H  H7  1  0.06750090  0.09127798  0.49138719  1  0  0.089367  0  0.967113  0  0  0.099838  0  1.031586  0  0  0.102875  0  1.028953  0  0.068723  0  0.099204  0.097634  0  1.033488  0
H  H8  1  0.36702411  0.57391809  0.16890214  1  0  0.090119  0  0.932132  0  0  0.098548  0  0.994194  0  0  0.101339  0  0.991806  0  0.144197  0  0.121732  0.096418  0  0.996114  0
H  H9  1  0.63297671  0.42608586  0.83109630  1  0  0.090177  0  0.932031  0  0  0.098595  0  0.99411  0  0  0.101385  0  0.991721  0  0.144243  0  0.12176  0.096466  0  0.996031  0
H  H10  1  0.51026844  0.24806577  0.00326218  1  0  0.09222  0  0.986739  0  0  0.099435  0  1.052185  0  0  0.1017  0  1.051962  0  0.099054  0  0.097193  0.098447  0  1.051597  0
H  H11  1  0.48973168  0.75193361  0.99673708  1  0  0.092245  0  0.986786  0  0  0.099448  0  1.052241  0  0  0.101713  0  1.052019  0  0.099056  0  0.097188  0.09846  0  1.051655  0
H  H12  1  0.15730164  0.67731091  0.15892426  1  0  0.114786  0  0.96379  0  0  0.122426  0  1.026973  0  0  0.125656  0  1.026816  0  0.10468  0  0.109315  0.120199  0  1.027123  0
H  H13  1  0.84269770  0.32269212  0.84107395  1  0  0.11476  0  0.963803  0  0  0.122428  0  1.026964  0  0  0.12566  0  1.026801  0  0.104625  0  0.10931  0.120205  0  1.027107  0
H  H14  1  0.48311741  0.11713396  0.46653264  1  0  0.103265  0  0.935561  0  0  0.117587  0  0.989774  0  0  0.120802  0  0.989095  0  0.066275  0  0.107727  0.115206  0  0.990581  0
H  H15  1  0.51688526  0.88287182  0.53347126  1  0  0.103223  0  0.935665  0  0  0.11757  0  0.989842  0  0  0.120786  0  0.989159  0  0.066304  0  0.107723  0.115188  0  0.99065  0
H  H16  1  0.17481375  0.94980120  0.42107182  1  0  0.08534  0  0.931004  0  0  0.106677  0  0.988335  0  0  0.106751  0  0.989414  0  0.054823  0  0.098719  0.106527  0  0.987821  0
H  H17  1  0.82518110  0.05020184  0.57893166  1  0  0.08528  0  0.931074  0  0  0.106642  0  0.988383  0  0  0.106718  0  0.989457  0  0.054948  0  0.098723  0.106487  0  0.987868  0
H  H18  1  0.31187925  0.90632861  0.37010730  1  0  0.069706  0  0.938714  0  0  0.088409  0  1.000037  0  0  0.089182  0  1.000302  0  0.010861  0  0.092324  0.088057  0  0.999541  0
H  H19  1  0.68811787  0.09367168  0.62989809  1  0  0.06976  0  0.938725  0  0  0.088445  0  1.000057  0  0  0.089218  0  1.000327  0  0.010906  0  0.092314  0.088091  0  0.999558  0
H  H20  1  0.17302771  0.22843871  0.05631567  1  0  0.066918  0  0.92103  0  0  0.081004  0  0.983438  0  0  0.081626  0  0.981975  0  0.075065  0  0.104137  0.080663  0  0.984296  0
H  H21  1  0.82696683  0.77155792  0.94368277  1  0  0.066901  0  0.921018  0  0  0.081011  0  0.983403  0  0  0.081633  0  0.981938  0  0.075055  0  0.104122  0.080671  0  0.984262  0
H  H22  1  0.19569183  0.35010854  0.99490229  1  0  0.0717  0  0.914788  0  0  0.086124  0  0.974642  0  0  0.086773  0  0.973538  0  0.055307  0  0.107067  0.085714  0  0.975228  0
H  H23  1  0.80430941  0.64989084  0.00509772  1  0  0.071612  0  0.914833  0  0  0.086045  0  0.974676  0  0  0.0867  0  0.973563  0  0.055278  0  0.107042  0.085638  0  0.97526  0
H  H24  1  0.16834895  0.65945558  0.43328869  1  0  0.11086  0  0.951779  0  0  0.121746  0  1.011644  0  0  0.124196  0  1.012477  0  0.094988  0  0.109498  0.120136  0  1.011022  0
H  H25  1  0.83165188  0.34054837  0.56671102  1  0  0.110889  0  0.951864  0  0  0.121773  0  1.011731  0  0  0.124222  0  1.012565  0  0.094963  0  0.109494  0.120163  0  1.011108  0
H  H26  1  0.97676389  0.73635032  0.35346194  1  0  0.091213  0  0.950617  0  0  0.108322  0  1.008588  0  0  0.108894  0  1.009673  0  0.05146  0  0.097057  0.107758  0  1.008052  0
H  H27  1  0.02323511  0.26364906  0.64653657  1  0  0.091131  0  0.950674  0  0  0.108268  0  1.008634  0  0  0.108837  0  1.009719  0  0.051445  0  0.097032  0.107704  0  1.008097  0
H  H28  1  0.92203188  0.69161732  0.23828972  1  0  0.098096  0  0.945612  0  0  0.112569  0  1.008633  0  0  0.11385  0  1.008512  0  0.087285  0  0.099889  0.111599  0  1.008793  0
H  H29  1  0.07796855  0.30838846  0.76170947  1  0  0.098078  0  0.94558  0  0  0.112608  0  1.008558  0  0  0.113889  0  1.008433  0  0.087282  0  0.099908  0.111637  0  1.008719  0
H  H30  1  0.09380640  0.38392583  0.11052021  1  0  0.101556  0  0.982976  0  0  0.111191  0  1.048166  0  0  0.11391  0  1.047771  0  0.045059  0  0.099435  0.108099  0  1.050437  0
H  H31  1  0.90619299  0.61607172  0.88947755  1  0  0.10154  0  0.983004  0  0  0.111156  0  1.048225  0  0  0.113874  0  1.047831  0  0.045569  0  0.099412  0.108063  0  1.050498  0
H  H32  1  0.12512615  0.87792069  0.22022676  1  0  0.064793  0  0.943934  0  0  0.079571  0  1.011961  0  0  0.081159  0  1.011245  0  0.029287  0  0.087287  0.078339  0  1.012677  0
H  H33  1  0.87487801  0.12208600  0.77977672  1  0  0.064778  0  0.944028  0  0  0.079567  0  1.012037  0  0  0.081155  0  1.011325  0  0.029784  0  0.087307  0.078335  0  1.012754  0
H  H34  1  0.98614116  0.91272126  0.27550882  1  0  0.070976  0  0.949092  0  0  0.088693  0  1.012589  0  0  0.08862  0  1.015243  0  0.030401  0  0.091826  0.088885  0  1.010518  0
H  H35  1  0.01385967  0.08728269  0.72449345  1  0  0.070976  0  0.949133  0  0  0.088682  0  1.012652  0  0  0.088615  0  1.015306  0  0.03044  0  0.091811  0.088875  0  1.01058  0
H  H36  1  0.39091608  0.22284823  0.75506162  1  0  0.100818  0  0.9663  0  0  0.110398  0  1.030269  0  0  0.113151  0  1.029321  0  0.104035  0  0.100362  0.108391  0  1.030929  0
H  H37  1  0.60908704  0.77715024  0.24493915  1  0  0.100809  0  0.966304  0  0  0.110389  0  1.030273  0  0  0.113143  0  1.029324  0  0.104009  0  0.100356  0.108383  0  1.030932  0
H  H38  1  0.17497495  0.00017013  0.62761371  1  0  0.114201  0  0.968627  0  0  0.123659  0  1.03191  0  0  0.127591  0  1.029494  0  0.062327  0  0.103088  0.120796  0  1.033868  0
H  H39  1  0.82502517  0.99982925  0.37238810  1  0  0.114209  0  0.968594  0  0  0.123631  0  1.031909  0  0  0.127559  0  1.0295  0  0.062308  0  0.103068  0.120768  0  1.033866  0
H  H40  1  0.67455515  0.16036233  0.91951819  1  0  0.104256  0  0.953564  0  0  0.114757  0  1.014719  0  0  0.118325  0  1.013501  0  0.046964  0  0.101039  0.112187  0  1.016069  0
H  H41  1  0.32544233  0.83963888  0.08047903  1  0  0.104243  0  0.953552  0  0  0.114768  0  1.014688  0  0  0.118338  0  1.01347  0  0.047011  0  0.100999  0.112198  0  1.016039  0
H  H42  1  0.37689144  0.55623105  0.43217028  1  0  0.083585  0  0.94611  0  0  0.08981  0  1.015691  0  0  0.092835  0  1.012507  0  0.134423  0  0.118702  0.087556  0  1.018055  0
H  H43  1  0.62311199  0.44377381  0.56782788  1  0  0.083534  0  0.946112  0  0  0.089738  0  1.01572  0  0  0.09276  0  1.012537  0  0.134392  0  0.11867  0.087484  0  1.018085  0
H  H44  1  0.16638046  0.63637563  0.67266164  1  0  0.123774  0  0.950152  0  0  0.131957  0  1.012944  0  0  0.136014  0  1.010723  0  0.110334  0  0.105874  0.128761  0  1.014992  0
H  H45  1  0.83361818  0.36362283  0.32733675  1  0  0.123759  0  0.950176  0  0  0.131944  0  1.012967  0  0  0.135999  0  1.01075  0  0.110304  0  0.105873  0.128762  0  1.014998  0
H  H46  1  0.92317357  0.54893562  0.55196606  1  0  0.088261  0  0.979125  0  0  0.097865  0  1.044864  0  0  0.100497  0  1.043328  0  0.113259  0  0.097499  0.09584  0  1.046167  0
H  H47  1  0.07682655  0.45106376  0.44803320  1  0  0.088273  0  0.979104  0  0  0.097858  0  1.044859  0  0  0.10049  0  1.043325  0  0.113406  0  0.097508  0.095834  0  1.046162  0
H  H48  1  0.41541691  0.03244254  0.68834052  1  0  0.060769  0  0.925992  0  0  0.075508  0  0.990248  0  0  0.076299  0  0.988739  0  0.074787  0  0.104603  0.074963  0  0.991262  0
H  H49  1  0.58458284  0.96755592  0.31166054  1  0  0.060842  0  0.9259  0  0  0.075604  0  0.99014  0  0  0.076396  0  0.988629  0  0.074762  0  0.10463  0.075059  0  0.991155  0
H  H50  1  0.52148710  0.99365063  0.78190868  1  0  0.0734  0  0.906413  0  0  0.091563  0  0.96258  0  0  0.091764  0  0.962317  0  0.043564  0  0.110882  0.091376  0  0.962755  0
H  H51  1  0.47851229  0.00634692  0.21809099  1  0  0.073379  0  0.906368  0  0  0.091551  0  0.962553  0  0  0.091751  0  0.962289  0  0.043579  0  0.110854  0.091364  0  0.962729  0
H  H52  1  0.27002161  0.29537358  0.22166631  1  0  0.078706  0  0.949225  0  0  0.086155  0  1.016516  0  0  0.088648  0  1.013861  0  0.110534  0  0.115749  0.084066  0  1.018961  0
H  H53  1  0.72997891  0.70462397  0.77833411  1  0  0.078691  0  0.949217  0  0  0.086142  0  1.016512  0  0  0.088637  0  1.013855  0  0.110428  0  0.115735  0.084054  0  1.018957  0
H  H54  1  0.29611985  0.33795802  0.86489289  1  0  0.097993  0  0.956546  0  0  0.109319  0  1.016074  0  0  0.111538  0  1.01565  0  0.071303  0  0.104317  0.107522  0  1.016633  0
H  H55  1  0.70388139  0.66204136  0.13510649  1  0  0.097988  0  0.956522  0  0  0.109318  0  1.016046  0  0  0.111539  0  1.015623  0  0.071282  0  0.104314  0.107526  0  1.016599  0
H  H56  1  0.13484572  0.01142518  0.97340311  1  0  0.095338  0  0.951158  0  0  0.105083  0  1.012635  0  0  0.108323  0  1.010982  0  0.065939  0  0.099818  0.102581  0  1.014325  0
H  H57  1  0.86515401  0.98857603  0.02659690  1  0  0.095369  0  0.951128  0  0  0.105121  0  1.012592  0  0  0.108356  0  1.010944  0  0.065958  0  0.099837  0.102618  0  1.014282  0
H  H58  1  0.92737067  0.46475733  0.19427651  1  0  0.089739  0  0.976124  0  0  0.099154  0  1.040217  0  0  0.101765  0  1.039068  0  0.104254  0  0.097683  0.097387  0  1.041002  0
H  H59  1  0.07263060  0.53523930  0.80572200  1  0  0.089869  0  0.975997  0  0  0.099199  0  1.040167  0  0  0.10181  0  1.039018  0  0.10418  0  0.097688  0.097432  0  1.040953  0
H  H60  1  0.24167922  0.89876975  0.86818370  1  0  0.100159  0  0.966674  0  0  0.108078  0  1.030862  0  0  0.110477  0  1.031145  0  0.101772  0  0.099615  0.106297  0  1.030687  0
H  H61  1  0.75831793  0.10122780  0.13181637  1  0  0.100136  0  0.966662  0  0  0.108079  0  1.030825  0  0  0.110476  0  1.03111  0  0.101791  0  0.099615  0.106293  0  1.030651  0
C  C62  1  0.91177373  0.72395742  0.52314280  1  0  -0.108595  0  3.803388  0  0  -0.088584  0  4.040788  0  0  -0.099173  0  4.065176  0  -0.04745  0  -0.040062  -0.082006  0  4.024596  0
C  C63  1  0.08822527  0.27604196  0.47685826  1  0  -0.108481  0  3.803279  0  0  -0.088466  0  4.040676  0  0  -0.09905  0  4.065053  0  -0.047459  0  -0.040014  -0.081888  0  4.024486  0
C  C64  1  0.70852540  0.36324599  0.10400246  1  0  -0.099263  0  3.780882  0  0  -0.079241  0  4.016096  0  0  -0.089879  0  4.038989  0  -0.00164  0  -0.03635  -0.07243  0  4.000823  0
C  C65  1  0.29147509  0.63675431  0.89599501  1  0  -0.099282  0  3.780955  0  0  -0.079235  0  4.016131  0  0  -0.089873  0  4.039024  0  -0.001657  0  -0.036374  -0.072419  0  4.000853  0
C  C66  1  0.29307296  0.07999823  0.35065904  1  0  0.162573  0  3.707821  0  0  0.17589  0  3.950148  0  0  0.181806  0  3.972164  0  0.021208  0  0.019652  0.17233  0  3.935185  0
C  C67  1  0.70692604  0.92000115  0.64934457  1  0  0.162673  0  3.707765  0  0  0.175913  0  3.950189  0  0  0.181831  0  3.972201  0  0.02147  0  0.019672  0.172346  0  3.935221  0
C  C68  1  0.50354645  0.27059508  0.39991240  1  0  0.143015  0  3.709986  0  0  0.106463  0  3.967443  0  0  0.114709  0  3.985701  0  0.524399  0  0.049292  0.101057  0  3.954897  0
C  C69  1  0.49645104  0.72940612  0.60008992  1  0  0.143145  0  3.71018  0  0  0.10656  0  3.967668  0  0  0.11481  0  3.985929  0  0.524363  0  0.049329  0.101154  0  3.955122  0
C  C70  1  0.23266974  0.13289927  0.28189353  1  0  -0.171178  0  3.701107  0  0  -0.186676  0  3.943934  0  0  -0.195648  0  3.965828  0  0.012407  0  -0.082137  -0.180555  0  3.928104  0
C  C71  1  0.76733375  0.86710011  0.71810928  1  0  -0.171213  0  3.701005  0  0  -0.186672  0  3.943861  0  0  -0.195645  0  3.965754  0  0.012355  0  -0.082065  -0.180551  0  3.928031  0
C  C72  1  0.98532701  0.85037623  0.54529981  1  0  -0.048279  0  3.784107  0  0  -0.071985  0  4.035641  0  0  -0.068693  0  4.055369  0  -0.037745  0  -0.089275  -0.073781  0  4.022352  0
C  C73  1  0.01467162  0.14962224  0.45470113  1  0  -0.048377  0  3.78419  0  0  -0.072104  0  4.035731  0  0  -0.068811  0  4.055457  0  -0.037697  0  -0.089309  -0.073898  0  4.022443  0
C  C74  1  0.32031548  0.59642179  0.22582382  1  0  0.130962  0  3.710547  0  0  0.098768  0  3.962824  0  0  0.106678  0  3.980236  0  0.407862  0  0.050581  0.093671  0  3.95115  0
C  C75  1  0.67968054  0.40357576  0.77417422  1  0  0.130935  0  3.710427  0  0  0.098743  0  3.962704  0  0  0.106652  0  3.980116  0  0.407849  0  0.050572  0.093643  0  3.951033  0
C  C76  1  0.14615399  0.67790179  0.29611947  1  0  0.174878  0  3.705526  0  0  0.189106  0  3.940222  0  0  0.195925  0  3.960705  0  -0.059437  0  0.02111  0.18486  0  3.926043  0
C  C77  1  0.85384537  0.32209850  0.70387979  1  0  0.175017  0  3.705435  0  0  0.189158  0  3.940265  0  0  0.195976  0  3.960744  0  -0.059406  0  0.021169  0.184911  0  3.926087  0
C  C78  1  0.32722365  0.05446330  0.80641676  1  0  0.039691  0  3.773586  0  0  0.060862  0  4.011998  0  0  0.059292  0  4.036994  0  -0.002032  0  -0.019968  0.061537  0  3.995518  0
C  C79  1  0.67277723  0.94553516  0.19358314  1  0  0.039848  0  3.773663  0  0  0.06106  0  4.012044  0  0  0.059489  0  4.037039  0  -0.002141  0  -0.019901  0.061733  0  3.995562  0
C  C80  1  0.18662524  0.82278237  0.65743214  1  0  0.281323  0  3.81132  0  0  0.272368  0  4.069748  0  0  0.285405  0  4.085859  0  0.422898  0  0.084118  0.263464  0  4.057246  0
C  C81  1  0.81337525  0.17721793  0.34256978  1  0  0.281542  0  3.811239  0  0  0.272485  0  4.069781  0  0  0.285524  0  4.085888  0  0.422674  0  0.084173  0.263579  0  4.057283  0
C  C82  1  0.20818839  0.18241784  0.92616610  1  0  0.058401  0  3.762166  0  0  0.075217  0  4.00446  0  0  0.074314  0  4.027745  0  -0.021759  0  -0.013208  0.076508  0  3.988525  0
C  C83  1  0.79181249  0.81758062  0.07383316  1  0  0.0585  0  3.762109  0  0  0.075322  0  4.004381  0  0  0.074416  0  4.027668  0  -0.021793  0  -0.013191  0.076611  0  3.988447  0
C  C84  1  0.61005545  0.41153616  0.15669190  1  0  0.632929  0  3.934586  0  0  0.586123  0  4.227411  0  0  0.620756  0  4.219052  0  1.532284  0  0.194814  0.563294  0  4.231511  0
C  C85  1  0.38994727  0.58846413  0.84330771  1  0  0.632783  0  3.9347  0  0  0.585941  0  4.227571  0  0  0.620573  0  4.219216  0  1.532307  0  0.194719  0.563111  0  4.231669  0
C  C86  1  0.63797682  0.27723195  0.02605184  1  0  -0.040889  0  3.755175  0  0  -0.060503  0  3.995808  0  0  -0.056546  0  4.014788  0  -0.04304  0  -0.083806  -0.063023  0  3.982502  0
C  C87  1  0.36202366  0.72276834  0.97394690  1  0  -0.040881  0  3.75531  0  0  -0.060493  0  3.995959  0  0  -0.056536  0  4.014938  0  -0.043042  0  -0.083776  -0.063014  0  3.982648  0
C  C88  1  0.20399795  0.65327239  0.22114247  1  0  -0.172082  0  3.686966  0  0  -0.187491  0  3.93274  0  0  -0.196621  0  3.954381  0  -0.026307  0  -0.081567  -0.181701  0  3.917796  0
C  C89  1  0.79600065  0.34672882  0.77885551  1  0  -0.172118  0  3.686976  0  0  -0.187511  0  3.93274  0  0  -0.19664  0  3.954379  0  -0.026148  0  -0.081585  -0.18172  0  3.917795  0
C  C90  1  0.43087092  0.15276048  0.41119156  1  0  -0.161258  0  3.70126  0  0  -0.181952  0  3.954966  0  0  -0.19063  0  3.976316  0  -0.067954  0  -0.081739  -0.177067  0  3.940919  0
C  C91  1  0.56912174  0.84723707  0.58880867  1  0  -0.161369  0  3.701497  0  0  -0.182041  0  3.955247  0  0  -0.190723  0  3.976597  0  -0.067953  0  -0.081805  -0.177163  0  3.941217  0
C  C92  1  0.76939981  0.67339703  0.44884099  1  0  0.62786  0  3.948612  0  0  0.583487  0  4.238402  0  0  0.617472  0  4.231195  0  1.542324  0  0.189812  0.560517  0  4.242608  0
C  C93  1  0.23059807  0.32660235  0.55115995  1  0  0.627862  0  3.948687  0  0  0.583495  0  4.238469  0  0  0.617482  0  4.231257  0  1.542425  0  0.189818  0.560518  0  4.242689  0
C  C94  1  0.21795723  0.95000334  0.35966142  1  0  -0.162548  0  3.719494  0  0  -0.206034  0  3.969687  0  0  -0.207441  0  3.982463  0  -0.023338  0  -0.157474  -0.205052  0  3.960939  0
C  C95  1  0.78204323  0.04999969  0.64034456  1  0  -0.162618  0  3.719658  0  0  -0.206093  0  3.96987  0  0  -0.207498  0  3.982648  0  -0.023484  0  -0.157479  -0.205089  0  3.961094  0
C  C96  1  0.89409369  0.26649277  0.00908685  1  0  0.275146  0  3.828763  0  0  0.26681  0  4.086528  0  0  0.279753  0  4.102082  0  0.457774  0  0.082216  0.25835  0  4.075337  0
C  C97  1  0.10590680  0.73350752  0.99090934  1  0  0.275126  0  3.828822  0  0  0.266873  0  4.086461  0  0  0.279814  0  4.102018  0  0.457764  0  0.0822  0.258419  0  4.075272  0
C  C98  1  0.14496353  0.25067350  0.99007359  1  0  0.056987  0  3.627675  0  0  -0.010379  0  3.896978  0  0  -0.00111  0  3.899756  0  0.414774  0  -0.061413  -0.016343  0  3.894545  0
C  C99  1  0.85504108  0.74932588  0.00992614  1  0  0.057059  0  3.627669  0  0  -0.01033  0  3.89695  0  0  -0.001058  0  3.899717  0  0.414807  0  -0.061411  -0.01629  0  3.894514  0
C  C100  1  0.21035836  0.64312775  0.37346313  1  0  -0.176107  0  3.69727  0  0  -0.190353  0  3.938443  0  0  -0.199376  0  3.959875  0  0.009441  0  -0.081927  -0.184432  0  3.923685  0
C  C101  1  0.78964210  0.35687529  0.62653520  1  0  -0.176202  0  3.697267  0  0  -0.190416  0  3.938439  0  0  -0.19944  0  3.95987  0  0.009466  0  -0.081935  -0.184495  0  3.923682  0
C  C102  1  0.02225101  0.74060355  0.29334552  1  0  -0.173554  0  3.682287  0  0  -0.213479  0  3.927304  0  0  -0.215193  0  3.938667  0  -0.03224  0  -0.162991  -0.212207  0  3.919458  0
C  C103  1  0.97774832  0.25939948  0.70665397  1  0  -0.173519  0  3.682164  0  0  -0.213519  0  3.927282  0  0  -0.215224  0  3.938633  0  -0.032407  0  -0.163021  -0.212249  0  3.919439  0
C  C104  1  0.96629578  0.35288731  0.08657609  1  0  -0.228058  0  3.789387  0  0  -0.245245  0  4.038375  0  0  -0.253584  0  4.059953  0  -0.018595  0  -0.118957  -0.239175  0  4.023986  0
C  C105  1  0.03370286  0.64711115  0.91342166  1  0  -0.228019  0  3.789488  0  0  -0.245224  0  4.038449  0  0  -0.253563  0  4.060028  0  -0.019374  0  -0.118918  -0.239153  0  4.02406  0
C  C106  1  0.08486056  0.87441567  0.28234176  1  0  -0.094246  0  3.682634  0  0  -0.134113  0  3.94053  0  0  -0.135351  0  3.954545  0  0.016573  0  -0.162752  -0.133349  0  3.930988  0
C  C107  1  0.91513841  0.12558646  0.71766143  1  0  -0.094211  0  3.682619  0  0  -0.13406  0  3.940474  0  0  -0.135316  0  3.954508  0  0.015972  0  -0.162755  -0.133301  0  3.930929  0
C  C108  1  0.33972396  0.17742464  0.80487830  1  0  -0.114566  0  3.740814  0  0  -0.133412  0  3.986144  0  0  -0.137135  0  4.009608  0  -0.10052  0  -0.090194  -0.130668  0  3.970394  0
C  C109  1  0.66027692  0.82257382  0.19512160  1  0  -0.114587  0  3.740745  0  0  -0.13344  0  3.986067  0  0  -0.137162  0  4.00953  0  -0.100499  0  -0.090202  -0.130696  0  3.970319  0
C  C110  1  0.12160374  0.90114973  0.61190717  1  0  -0.230246  0  3.768577  0  0  -0.249112  0  4.022871  0  0  -0.256715  0  4.042721  0  -0.050922  0  -0.117265  -0.244067  0  4.009207  0
C  C111  1  0.87839489  0.09884873  0.38809441  1  0  -0.230266  0  3.768492  0  0  -0.249043  0  4.022801  0  0  -0.256646  0  4.042649  0  -0.050794  0  -0.11723  -0.243999  0  4.009138  0
C  C112  1  0.72914502  0.22874330  0.97918911  1  0  -0.200896  0  3.767878  0  0  -0.220128  0  4.022525  0  0  -0.227664  0  4.041661  0  -0.052614  0  -0.10894  -0.215175  0  4.009641  0
C  C113  1  0.27085322  0.77125700  0.02080748  1  0  -0.200876  0  3.768005  0  0  -0.220162  0  4.022633  0  0  -0.227701  0  4.041774  0  -0.052576  0  -0.108879  -0.215207  0  4.009746  0
C  C114  1  0.32629526  0.58643630  0.37345797  1  0  0.138333  0  3.705738  0  0  0.103991  0  3.957911  0  0  0.11219  0  3.975431  0  0.454127  0  0.049545  0.098876  0  3.945536  0
C  C115  1  0.67370632  0.41356673  0.62654112  1  0  0.138383  0  3.705653  0  0  0.104065  0  3.957824  0  0  0.112267  0  3.975344  0  0.454194  0  0.049576  0.09895  0  3.94545  0
C  C116  1  0.11398213  0.69545712  0.63634707  1  0  -0.193198  0  3.737735  0  0  -0.212496  0  3.992152  0  0  -0.219582  0  4.011059  0  -0.036985  0  -0.106944  -0.20747  0  3.978313  0
C  C117  1  0.88601651  0.30454135  0.36365259  1  0  -0.193263  0  3.737769  0  0  -0.212519  0  3.992204  0  0  -0.219605  0  4.011111  0  -0.036917  0  -0.106977  -0.207504  0  3.978357  0
C  C118  1  0.97849721  0.64736268  0.56972071  1  0  -0.053284  0  3.77784  0  0  -0.076475  0  4.025147  0  0  -0.073359  0  4.044783  0  -0.029011  0  -0.09115  -0.078067  0  4.011455  0
C  C119  1  0.02150142  0.35263578  0.43028023  1  0  -0.053341  0  3.777814  0  0  -0.076527  0  4.025137  0  0  -0.073412  0  4.044769  0  -0.029056  0  -0.091186  -0.07812  0  4.011449  0
C  C120  1  0.40275580  0.98922636  0.74683693  1  0  0.056313  0  3.651938  0  0  -0.011513  0  3.921367  0  0  -0.002815  0  3.925832  0  0.425447  0  -0.056525  -0.017554  0  3.918377  0
C  C121  1  0.59724471  0.01077119  0.25316349  1  0  0.056181  0  3.651789  0  0  -0.011707  0  3.921289  0  0  -0.003007  0  3.92575  0  0.42564  0  -0.056551  -0.017747  0  3.9183  0
C  C122  1  0.31147268  0.25197783  0.27522720  1  0  0.145589  0  3.706759  0  0  0.113137  0  3.955239  0  0  0.121342  0  3.973282  0  0.42093  0  0.052058  0.107688  0  3.942737  0
C  C123  1  0.68852559  0.74801972  0.72477426  1  0  0.145614  0  3.706722  0  0  0.113148  0  3.955205  0  0  0.121355  0  3.97325  0  0.421037  0  0.052045  0.107698  0  3.942704  0
C  C124  1  0.28277231  0.24133011  0.86536862  1  0  -0.099619  0  3.734775  0  0  -0.116887  0  3.979056  0  0  -0.119477  0  4.001191  0  -0.028831  0  -0.082481  -0.116084  0  3.96443  0
C  C125  1  0.71722893  0.75866926  0.13463012  1  0  -0.099668  0  3.734752  0  0  -0.116944  0  3.979031  0  0  -0.119537  0  4.001173  0  -0.028847  0  -0.082491  -0.116145  0  3.964408  0
C  C126  1  0.19216839  0.05822992  0.92591726  1  0  -0.109689  0  3.743806  0  0  -0.127901  0  3.989912  0  0  -0.130385  0  4.010791  0  -0.069451  0  -0.089547  -0.127083  0  3.976549  0
C  C127  1  0.80783060  0.94176945  0.07408188  1  0  -0.109752  0  3.743789  0  0  -0.127974  0  3.989911  0  0  -0.130454  0  4.010791  0  -0.069571  0  -0.08957  -0.127154  0  3.976547  0
C  C128  1  0.87272207  0.39936918  0.13331089  1  0  -0.036541  0  3.769256  0  0  -0.060417  0  4.017172  0  0  -0.056575  0  4.03643  0  -0.06308  0  -0.087672  -0.062734  0  4.003888  0
C  C129  1  0.12727917  0.60063020  0.86668721  1  0  -0.036607  0  3.769187  0  0  -0.060406  0  4.017096  0  0  -0.056564  0  4.036352  0  -0.062818  0  -0.087652  -0.062724  0  4.003812  0
C  C130  1  0.25199550  0.99472629  0.86699436  1  0  -0.110747  0  3.747742  0  0  -0.130001  0  3.991601  0  0  -0.132428  0  4.01374  0  -0.052916  0  -0.093466  -0.128072  0  3.976791  0
C  C131  1  0.74800314  0.00527218  0.13300657  1  0  -0.110792  0  3.747871  0  0  -0.130084  0  3.991731  0  0  -0.132507  0  4.01387  0  -0.052774  0  -0.093489  -0.128147  0  3.976924  0
N  N132  1  0.44548648  0.31969931  0.33277746  1  0  -0.334572  0  3.308503  0  0  -0.251379  0  3.585905  0  0  -0.271516  0  3.60097  0  -1.266269  0  -0.334869  -0.237794  0  3.576211  0
N  N133  1  0.55451400  0.68030098  0.66722383  1  0  -0.334627  0  3.308553  0  0  -0.251402  0  3.585958  0  0  -0.271549  0  3.601032  0  -1.266303  0  -0.334869  -0.237818  0  3.576265  0
N  N134  1  0.38102451  0.56409450  0.30110029  1  0  -0.339399  0  3.354798  0  0  -0.253523  0  3.635617  0  0  -0.273252  0  3.648796  0  -1.26005  0  -0.336629  -0.24009  0  3.62633  0
N  N135  1  0.61897670  0.43590763  0.69889804  1  0  -0.339385  0  3.354721  0  0  -0.253514  0  3.635546  0  0  -0.273245  0  3.648729  0  -1.260091  0  -0.336642  -0.240081  0  3.62626  0
O  O136  1  0.97472851  0.21448995  0.95873415  1  0  -0.302194  0  2.295856  0  0  -0.233292  0  2.534083  0  0  -0.251208  0  2.535115  0  -1.086074  0  -0.185586  -0.221292  0  2.533092  0
O  O137  1  0.02527234  0.78551126  0.04126215  1  0  -0.302245  0  2.295907  0  0  -0.233361  0  2.534109  0  0  -0.251278  0  2.535139  0  -1.085981  0  -0.185596  -0.22137  0  2.533124  0
O  O138  1  0.68965312  0.48330233  0.23153955  1  0  -0.660452  0  2.042368  0  0  -0.584023  0  2.320813  0  0  -0.612382  0  2.303597  0  -1.173934  0  -0.342507  -0.563358  0  2.331173  0
O  O139  1  0.31035373  0.51669705  0.76846042  1  0  -0.660347  0  2.042431  0  0  -0.583899  0  2.320888  0  0  -0.612266  0  2.303691  0  -1.174015  0  -0.342431  -0.563233  0  2.331245  0
O  O140  1  0.70451827  0.55462214  0.43547073  1  0  -0.666054  0  2.01685  0  0  -0.591003  0  2.288136  0  0  -0.61982  0  2.273163  0  -1.181418  0  -0.348509  -0.571019  0  2.297908  0
O  O141  1  0.29547961  0.44537724  0.56452893  1  0  -0.666136  0  2.016903  0  0  -0.591087  0  2.288196  0  0  -0.61991  0  2.273221  0  -1.181334  0  -0.348552  -0.571101  0  2.297969  0
O  O142  1  0.72179051  0.74238534  0.40227482  1  0  -0.625522  0  1.883717  0  0  -0.584107  0  2.102837  0  0  -0.605634  0  2.094209  0  -1.185107  0  -0.34082  -0.569197  0  2.108245  0
O  O143  1  0.27820998  0.25761496  0.59772583  1  0  -0.625473  0  1.883795  0  0  -0.584053  0  2.102907  0  0  -0.605581  0  2.094279  0  -1.185145  0  -0.340779  -0.56914  0  2.108319  0
O  O144  1  0.46351283  0.38293341  0.13049643  1  0  -0.627701  0  1.89974  0  0  -0.584909  0  2.124302  0  0  -0.607152  0  2.114862  0  -1.179001  0  -0.331498  -0.569397  0  2.130234  0
O  O145  1  0.53649027  0.61706779  0.86950393  1  0  -0.627693  0  1.899697  0  0  -0.584891  0  2.124282  0  0  -0.607136  0  2.114841  0  -1.179055  0  -0.331499  -0.569383  0  2.130219  0
O  O146  1  0.32227496  0.86054190  0.72175068  1  0  -0.281248  0  2.326138  0  0  -0.211833  0  2.559202  0  0  -0.230414  0  2.563042  0  -1.077917  0  -0.176926  -0.198457  0  2.555979  0
O  O147  1  0.67772555  0.13945565  0.27825101  1  0  -0.281299  0  2.326066  0  0  -0.211862  0  2.559204  0  0  -0.23045  0  2.56304  0  -1.077951  0  -0.176953  -0.198487  0  2.555983  0
