# generated using pymatgen
data_Ag2H24C13S3(N3O2)2
_symmetry_space_group_name_H-M   'P 1'
_cell_length_a   8.10718431
_cell_length_b   8.12286140
_cell_length_c   16.96500000
_cell_angle_alpha   84.10447829
_cell_angle_beta   84.09303743
_cell_angle_gamma   66.64749821
_symmetry_Int_Tables_number   1
_chemical_formula_structural   Ag2H24C13S3(N3O2)2
_chemical_formula_sum   'Ag4 H48 C26 S6 N12 O8'
_cell_volume   1017.89357090
_cell_formula_units_Z   2
loop_
 _symmetry_equiv_pos_site_id
 _symmetry_equiv_pos_as_xyz
  1  'x, y, z'
loop_
 _atom_site_type_symbol
 _atom_site_label
 _atom_site_symmetry_multiplicity
 _atom_site_fract_x
 _atom_site_fract_y
 _atom_site_fract_z
 _atom_site_occupancy
 _atom_site_hle17_bader_spin_density
 _atom_site_hle17_ddec_charge
 _atom_site_hle17_ddec_spin_density
 _atom_site_hle17_ddec_sum_bond_order
 _atom_site_hle17_magmom
 _atom_site_hse06_10hf_bader_spin_density
 _atom_site_hse06_10hf_ddec_charge
 _atom_site_hse06_10hf_ddec_spin_density
 _atom_site_hse06_10hf_ddec_sum_bond_order
 _atom_site_hse06_10hf_magmom
 _atom_site_hse06_bader_spin_density
 _atom_site_hse06_ddec_charge
 _atom_site_hse06_ddec_spin_density
 _atom_site_hse06_ddec_sum_bond_order
 _atom_site_hse06_magmom
 _atom_site_pbe_bader_charge
 _atom_site_pbe_bader_spin_density
 _atom_site_pbe_cm5_charge
 _atom_site_pbe_ddec_charge
 _atom_site_pbe_ddec_spin_density
 _atom_site_pbe_ddec_sum_bond_order
 _atom_site_pbe_magmom
Ag  Ag0  1  0.21367245  0.16564650  0.73844620  1  0  0.459509  0  1.66797  0  0  0.369173  0  2.138202  0  0  0.388595  0  2.099313  0  0.460978  0  0.340394  0.355623  0  2.164813  0
Ag  Ag1  1  0.83395639  0.78497216  0.76152351  1  0  0.459493  0  1.668475  0  0  0.369254  0  2.138617  0  0  0.388631  0  2.099819  0  0.460391  0  0.340654  0.355752  0  2.165132  0
Ag  Ag2  1  0.78632805  0.83435591  0.26155271  1  0  0.459537  0  1.667954  0  0  0.369198  0  2.138185  0  0  0.388621  0  2.099299  0  0.460988  0  0.340402  0.355647  0  2.164795  0
Ag  Ag3  1  0.16604465  0.21502890  0.23847780  1  0  0.459494  0  1.668442  0  0  0.36927  0  2.138582  0  0  0.38865  0  2.099776  0  0.460342  0  0.340646  0.355759  0  2.165115  0
H  H4  1  0.36675760  0.79741251  0.84401701  1  0  0.305799  0  0.939224  0  0  0.283555  0  1.00736  0  0  0.292959  0  0.999512  0  0.538487  0  0.296174  0.276928  0  1.012923  0
H  H5  1  0.20270630  0.63301596  0.65598793  1  0  0.306366  0  0.939167  0  0  0.283973  0  1.007615  0  0  0.293369  0  0.999751  0  0.538498  0  0.296295  0.277346  0  1.013201  0
H  H6  1  0.63324257  0.20259392  0.15598408  1  0  0.305822  0  0.939262  0  0  0.283569  0  1.007408  0  0  0.292966  0  0.99956  0  0.538531  0  0.296197  0.276942  0  1.012971  0
H  H7  1  0.79729315  0.36698913  0.34401385  1  0  0.306351  0  0.939169  0  0  0.283981  0  1.007603  0  0  0.293379  0  0.999737  0  0.538518  0  0.296265  0.277351  0  1.013192  0
H  H8  1  0.85559740  0.83575639  0.57596282  1  0  0.308394  0  0.951046  0  0  0.284706  0  1.02269  0  0  0.294557  0  1.014245  0  0.552007  0  0.293881  0.277743  0  1.028703  0
H  H9  1  0.16346609  0.14406404  0.92349637  1  0  0.30835  0  0.951167  0  0  0.284406  0  1.02308  0  0  0.29419  0  1.014739  0  0.553185  0  0.29405  0.277408  0  1.029163  0
H  H10  1  0.14440044  0.16424333  0.42403695  1  0  0.308319  0  0.951113  0  0  0.28465  0  1.022729  0  0  0.2945  0  1.014286  0  0.551983  0  0.293861  0.277688  0  1.028737  0
H  H11  1  0.83653918  0.85593567  0.07650185  1  0  0.308357  0  0.951072  0  0  0.28443  0  1.022984  0  0  0.294236  0  1.014607  0  0.553234  0  0.294078  0.277432  0  1.029066  0
H  H12  1  0.37381485  0.27587724  0.58110269  1  0  0.310421  0  0.956963  0  0  0.289386  0  1.02321  0  0  0.299299  0  1.014643  0  0.555377  0  0.294134  0.282422  0  1.029259  0
H  H13  1  0.72457118  0.62682670  0.91937916  1  0  0.310496  0  0.957658  0  0  0.289295  0  1.024104  0  0  0.299217  0  1.015523  0  0.551433  0  0.29417  0.282316  0  1.03017  0
H  H14  1  0.62617979  0.72412113  0.41889847  1  0  0.310221  0  0.957195  0  0  0.289213  0  1.02339  0  0  0.299123  0  1.014832  0  0.555415  0  0.294056  0.282248  0  1.029438  0
H  H15  1  0.27543018  0.37317033  0.08062175  1  0  0.310568  0  0.957602  0  0  0.289347  0  1.024054  0  0  0.299267  0  1.015472  0  0.551304  0  0.294174  0.28237  0  1.030119  0
H  H16  1  0.57036701  0.45427994  0.83288760  1  0  0.067304  0  0.953414  0  0  0.084349  0  1.012752  0  0  0.084574  0  1.013431  0  0.069741  0  0.103626  0.084101  0  1.012327  0
H  H17  1  0.54601984  0.42869765  0.66779818  1  0  0.066993  0  0.954238  0  0  0.084497  0  1.013115  0  0  0.084698  0  1.013845  0  0.072825  0  0.10378  0.084274  0  1.012653  0
H  H18  1  0.42963369  0.54572515  0.16711235  1  0  0.067307  0  0.953344  0  0  0.084359  0  1.012686  0  0  0.084589  0  1.01337  0  0.069725  0  0.103628  0.084112  0  1.012262  0
H  H19  1  0.45397909  0.57130879  0.33220238  1  0  0.067029  0  0.954152  0  0  0.084531  0  1.013065  0  0  0.084732  0  1.013795  0  0.072765  0  0.103796  0.084308  0  1.012605  0
H  H20  1  0.63485828  0.58806886  0.75674302  1  0  0.039385  0  0.992668  0  0  0.04577  0  1.07935  0  0  0.047161  0  1.077835  0  0.059337  0  0.081272  0.044643  0  1.08051  0
H  H21  1  0.41083010  0.36567870  0.74385259  1  0  0.039999  0  0.991113  0  0  0.046021  0  1.078377  0  0  0.047369  0  1.076919  0  0.060642  0  0.081622  0.044922  0  1.079506  0
H  H22  1  0.36514065  0.41193757  0.24325695  1  0  0.039395  0  0.992728  0  0  0.045804  0  1.079373  0  0  0.047202  0  1.077863  0  0.059397  0  0.081274  0.044679  0  1.080533  0
H  H23  1  0.58917060  0.63432639  0.25614736  1  0  0.040002  0  0.991062  0  0  0.046032  0  1.078329  0  0  0.047374  0  1.076882  0  0.06064  0  0.081615  0.044932  0  1.079459  0
H  H24  1  0.79014892  0.97636358  0.43191874  1  0  0.079617  0  0.944386  0  0  0.087202  0  1.018769  0  0  0.088847  0  1.017479  0  0.105847  0  0.100102  0.085845  0  1.019901  0
H  H25  1  0.02368591  0.20855739  0.06756384  1  0  0.080515  0  0.943788  0  0  0.088303  0  1.018058  0  0  0.089994  0  1.01671  0  0.107605  0  0.100485  0.086915  0  1.01922  0
H  H26  1  0.20984324  0.02363479  0.56808137  1  0  0.079707  0  0.944266  0  0  0.087293  0  1.018672  0  0  0.088934  0  1.017388  0  0.105868  0  0.100166  0.085937  0  1.019804  0
H  H27  1  0.97632447  0.79143561  0.93243505  1  0  0.080555  0  0.943802  0  0  0.088325  0  1.018069  0  0  0.090015  0  1.016722  0  0.107548  0  0.100509  0.086938  0  1.019231  0
H  H28  1  0.88183863  0.10300119  0.47968763  1  0  0.069668  0  0.944656  0  0  0.086131  0  1.002843  0  0  0.08655  0  1.003313  0  0.060937  0  0.105199  0.085707  0  1.002678  0
H  H29  1  0.89515205  0.11869276  0.01991104  1  0  0.069961  0  0.944743  0  0  0.08658  0  1.003199  0  0  0.087008  0  1.0037  0  0.046916  0  0.1054  0.086135  0  1.003006  0
H  H30  1  0.11815072  0.89700121  0.52031065  1  0  0.069644  0  0.944705  0  0  0.086102  0  1.002928  0  0  0.086521  0  1.003397  0  0.0608  0  0.105208  0.085682  0  1.002755  0
H  H31  1  0.10485886  0.88129889  0.98008848  1  0  0.06996  0  0.94473  0  0  0.086586  0  1.003179  0  0  0.087014  0  1.003677  0  0.046865  0  0.105415  0.086145  0  1.002983  0
H  H32  1  0.60550925  0.35015514  0.47175614  1  0  0.063348  0  0.929109  0  0  0.079349  0  0.990822  0  0  0.080042  0  0.990435  0  0.04704  0  0.103127  0.078724  0  0.991303  0
H  H33  1  0.64878328  0.39523530  0.02801566  1  0  0.061897  0  0.928573  0  0  0.078027  0  0.990537  0  0  0.078709  0  0.990132  0  0.042217  0  0.102459  0.077389  0  0.991015  0
H  H34  1  0.39447919  0.64984324  0.52824239  1  0  0.063445  0  0.929098  0  0  0.079431  0  0.990845  0  0  0.080111  0  0.990462  0  0.046979  0  0.103162  0.078805  0  0.99133  0
H  H35  1  0.35122443  0.60475501  0.97198409  1  0  0.061846  0  0.92858  0  0  0.078014  0  0.99051  0  0  0.078655  0  0.990163  0  0.042131  0  0.102455  0.077374  0  0.990991  0
H  H36  1  0.49874553  0.21694415  0.44003318  1  0  0.05809  0  0.96609  0  0  0.069468  0  1.037408  0  0  0.069622  0  1.038562  0  0.064346  0  0.095011  0.069209  0  1.036774  0
H  H37  1  0.78319095  0.49987621  0.06046851  1  0  0.057665  0  0.965015  0  0  0.069037  0  1.036525  0  0  0.069239  0  1.037613  0  0.065405  0  0.094994  0.06876  0  1.035873  0
H  H38  1  0.50124149  0.78305154  0.55996791  1  0  0.058056  0  0.966193  0  0  0.069417  0  1.037528  0  0  0.069584  0  1.038653  0  0.064459  0  0.09501  0.069161  0  1.03689  0
H  H39  1  0.21681499  0.50011545  0.93953184  1  0  0.057619  0  0.965036  0  0  0.068969  0  1.036577  0  0  0.069172  0  1.037657  0  0.065431  0  0.094968  0.068693  0  1.035922  0
H  H40  1  0.73053093  0.59859129  0.62337948  1  0  0.115575  0  0.993771  0  0  0.129413  0  1.068361  0  0  0.132063  0  1.067159  0  0.041989  0  0.083968  0.127472  0  1.0693  0
H  H41  1  0.40205346  0.26870414  0.87662077  1  0  0.116037  0  0.993094  0  0  0.129443  0  1.068152  0  0  0.132085  0  1.066971  0  0.048563  0  0.083819  0.127492  0  1.069099  0
H  H42  1  0.26946304  0.40141515  0.37662192  1  0  0.115678  0  0.993695  0  0  0.129472  0  1.068342  0  0  0.132121  0  1.067132  0  0.042102  0  0.083976  0.127532  0  1.069278  0
H  H43  1  0.59795392  0.73129020  0.12337761  1  0  0.116075  0  0.993102  0  0  0.12948  0  1.068164  0  0  0.132121  0  1.066984  0  0.048472  0  0.083811  0.127528  0  1.069113  0
H  H44  1  0.83589699  0.35679868  0.63594451  1  0  0.133838  0  0.941314  0  0  0.155103  0  0.997577  0  0  0.157581  0  0.996402  0  0.076088  0  0.093677  0.153259  0  0.99852  0
H  H45  1  0.64429415  0.16308746  0.86388982  1  0  0.134118  0  0.940792  0  0  0.155473  0  0.996849  0  0  0.157935  0  0.995714  0  0.070226  0  0.093861  0.153672  0  0.997725  0
H  H46  1  0.16409432  0.64320507  0.36405714  1  0  0.133847  0  0.94137  0  0  0.155145  0  0.997585  0  0  0.157623  0  0.996412  0  0.076029  0  0.093697  0.153303  0  0.998526  0
H  H47  1  0.35571199  0.83690688  0.13610921  1  0  0.134113  0  0.940822  0  0  0.155497  0  0.996846  0  0  0.157961  0  0.995708  0  0.070296  0  0.093873  0.153696  0  0.997722  0
H  H48  1  0.81270886  0.46590985  0.53922663  1  0  0.146315  0  0.947515  0  0  0.16512  0  1.006565  0  0  0.16805  0  1.005579  0  0.070278  0  0.098956  0.163039  0  1.007257  0
H  H49  1  0.53523746  0.18653275  0.96068138  1  0  0.14565  0  0.948318  0  0  0.164606  0  1.007082  0  0  0.167518  0  1.006125  0  0.072095  0  0.0986  0.162529  0  1.007779  0
H  H50  1  0.18728440  0.53409525  0.46077545  1  0  0.146386  0  0.947469  0  0  0.165194  0  1.006497  0  0  0.168123  0  1.005512  0  0.070549  0  0.098986  0.163113  0  1.007189  0
H  H51  1  0.46476887  0.81346428  0.03931692  1  0  0.14566  0  0.948321  0  0  0.164639  0  1.007064  0  0  0.167551  0  1.006106  0  0.072106  0  0.09862  0.162562  0  1.00776  0
C  C52  1  0.24297296  0.75687384  0.74999056  1  0  0.449631  0  3.865775  0  0  0.401512  0  4.162615  0  0  0.428813  0  4.169329  0  0.95116  0  0.23452  0.383215  0  4.157297  0
C  C53  1  0.75702898  0.24313126  0.25001051  1  0  0.449748  0  3.865684  0  0  0.401608  0  4.162536  0  0  0.428911  0  4.169247  0  0.950997  0  0.23455  0.38331  0  4.157219  0
C  C54  1  0.52314073  0.54946290  0.78162959  1  0  0.038628  0  3.594969  0  0  -0.016166  0  3.841884  0  0  -0.012467  0  3.853594  0  0.290167  0  -0.058561  -0.018437  0  3.833839  0
C  C55  1  0.45027310  0.47660027  0.71887971  1  0  0.039143  0  3.593343  0  0  -0.016171  0  3.841562  0  0  -0.012504  0  3.853482  0  0.269792  0  -0.059103  -0.018446  0  3.833406  0
C  C56  1  0.47686121  0.45054219  0.21837030  1  0  0.038632  0  3.594963  0  0  -0.016197  0  3.841932  0  0  -0.012528  0  3.853687  0  0.290178  0  -0.05855  -0.018469  0  3.833888  0
C  C57  1  0.54972583  0.52340617  0.28112026  1  0  0.039152  0  3.593148  0  0  -0.016206  0  3.841459  0  0  -0.012533  0  3.85338  0  0.269726  0  -0.059118  -0.018484  0  3.833305  0
C  C58  1  0.76936699  0.05948549  0.48204697  1  0  0.034563  0  3.561331  0  0  -0.019107  0  3.812573  0  0  -0.015084  0  3.822847  0  0.265746  0  -0.054373  -0.021649  0  3.80558  0
C  C59  1  0.93973181  0.23023527  0.01760401  1  0  0.033121  0  3.561196  0  0  -0.02198  0  3.813915  0  0  -0.018052  0  3.824309  0  0.281597  0  -0.054239  -0.024435  0  3.806824  0
C  C60  1  0.23062641  0.94051289  0.51795190  1  0  0.034542  0  3.5614  0  0  -0.019212  0  3.812824  0  0  -0.015198  0  3.823087  0  0.265762  0  -0.054422  -0.021752  0  3.805826  0
C  C61  1  0.06027557  0.76975907  0.98239437  1  0  0.032981  0  3.561249  0  0  -0.022094  0  3.813958  0  0  -0.018158  0  3.82434  0  0.281697  0  -0.054363  -0.024553  0  3.806865  0
C  C62  1  0.58723704  0.22274364  0.48359990  1  0  0.041872  0  3.583848  0  0  -0.014142  0  3.840922  0  0  -0.010039  0  3.852025  0  0.295027  0  -0.055713  -0.016787  0  3.833374  0
C  C63  1  0.77689961  0.41267679  0.01647163  1  0  0.044526  0  3.580515  0  0  -0.011471  0  3.838126  0  0  -0.007356  0  3.849247  0  0.297688  0  -0.05508  -0.014041  0  3.83044  0
C  C64  1  0.41275369  0.77725204  0.51639982  1  0  0.041878  0  3.584051  0  0  -0.014147  0  3.841259  0  0  -0.010007  0  3.852286  0  0.295138  0  -0.05573  -0.016795  0  3.833714  0
C  C65  1  0.22310405  0.58731755  0.98352929  1  0  0.044695  0  3.580584  0  0  -0.011351  0  3.838178  0  0  -0.007216  0  3.849298  0  0.297918  0  -0.05504  -0.013917  0  3.830492  0
C  C66  1  0.60786894  0.04942810  0.60204315  1  0  0.453722  0  3.837404  0  0  0.410013  0  4.128339  0  0  0.437303  0  4.135256  0  0.980898  0  0.243015  0.391707  0  4.122932  0
C  C67  1  0.95023798  0.39228918  0.89791032  1  0  0.452936  0  3.839412  0  0  0.409054  0  4.129738  0  0  0.436312  0  4.136693  0  0.980996  0  0.243276  0.390781  0  4.12431  0
C  C68  1  0.39213138  0.95057162  0.39795885  1  0  0.453699  0  3.837278  0  0  0.409954  0  4.128277  0  0  0.437246  0  4.135197  0  0.980981  0  0.24303  0.391647  0  4.12287  0
C  C69  1  0.04976907  0.60770919  0.10209083  1  0  0.452999  0  3.839471  0  0  0.409165  0  4.129677  0  0  0.436423  0  4.136633  0  0.981583  0  0.243386  0.390894  0  4.12425  0
C  C70  1  0.02044227  0.48461607  0.60078106  1  0  0.744691  0  3.843569  0  0  0.701314  0  4.14278  0  0  0.733577  0  4.13564  0  1.544988  0  0.202163  0.679315  0  4.146991  0
C  C71  1  0.51582448  0.97936615  0.89925881  1  0  0.745616  0  3.841708  0  0  0.701986  0  4.141364  0  0  0.734286  0  4.134158  0  1.548018  0  0.201773  0.679964  0  4.14562  0
C  C72  1  0.97955099  0.51538902  0.39921985  1  0  0.744385  0  3.8438  0  0  0.701092  0  4.142898  0  0  0.733356  0  4.135762  0  1.545078  0  0.202047  0.679093  0  4.14711  0
C  C73  1  0.48418538  0.02062819  0.10074122  1  0  0.745587  0  3.841761  0  0  0.702058  0  4.141282  0  0  0.734358  0  4.134072  0  1.547746  0  0.201768  0.680036  0  4.14554  0
C  C74  1  0.83702716  0.47729917  0.60061524  1  0  -0.46579  0  3.659762  0  0  -0.543151  0  3.894508  0  0  -0.550307  0  3.896771  0  -0.105949  0  -0.256528  -0.537971  0  3.892863  0
C  C75  1  0.52353908  0.16230524  0.89932709  1  0  -0.466022  0  3.659365  0  0  -0.542947  0  3.894273  0  0  -0.550118  0  3.896556  0  -0.108514  0  -0.25629  -0.537781  0  3.892644  0
C  C76  1  0.16296486  0.52270593  0.39938631  1  0  -0.465891  0  3.659858  0  0  -0.543267  0  3.8946  0  0  -0.550418  0  3.896855  0  -0.106176  0  -0.256556  -0.538091  0  3.892961  0
C  C77  1  0.47646954  0.83768910  0.10067241  1  0  -0.466064  0  3.659413  0  0  -0.543047  0  3.89426  0  0  -0.55022  0  3.896541  0  -0.108187  0  -0.256314  -0.537876  0  3.892624  0
S  S78  1  0.05067504  0.94889292  0.74983215  1  0  -0.460743  0  2.289448  0  0  -0.42926  0  2.716692  0  0  -0.44469  0  2.69603  0  -0.211405  0  -0.230496  -0.418295  0  2.730385  0
S  S79  1  0.94932266  0.05111352  0.25016788  1  0  -0.460757  0  2.289445  0  0  -0.42927  0  2.716696  0  0  -0.444702  0  2.696035  0  -0.211312  0  -0.230494  -0.418303  0  2.730388  0
S  S80  1  0.54509467  0.97152372  0.69353125  1  0  -0.442733  0  2.372459  0  0  -0.400494  0  2.812941  0  0  -0.419176  0  2.79514  0  -0.214045  0  -0.194946  -0.387406  0  2.824633  0
S  S81  1  0.02853024  0.45475170  0.80643734  1  0  -0.442316  0  2.374121  0  0  -0.400115  0  2.814791  0  0  -0.418829  0  2.797075  0  -0.213587  0  -0.194455  -0.387011  0  2.826425  0
S  S82  1  0.45490441  0.02847599  0.30647022  1  0  -0.442716  0  2.372366  0  0  -0.400474  0  2.812873  0  0  -0.419155  0  2.795065  0  -0.214023  0  -0.194945  -0.387385  0  2.824564  0
S  S83  1  0.97147771  0.54525071  0.19356415  1  0  -0.442335  0  2.374176  0  0  -0.400178  0  2.814852  0  0  -0.418891  0  2.797135  0  -0.213534  0  -0.194472  -0.387072  0  2.826487  0
N  N84  1  0.36572802  0.70871450  0.80425121  1  0  -0.40926  0  3.270668  0  0  -0.339023  0  3.511914  0  0  -0.360431  0  3.521397  0  -1.22836  0  -0.41861  -0.324604  0  3.505274  0
N  N85  1  0.29134847  0.63398635  0.69587138  1  0  -0.409994  0  3.269541  0  0  -0.340188  0  3.511657  0  0  -0.361626  0  3.521238  0  -1.226911  0  -0.418844  -0.325728  0  3.504935  0
N  N86  1  0.63427444  0.29128925  0.19574931  1  0  -0.409347  0  3.270584  0  0  -0.339082  0  3.511866  0  0  -0.36047  0  3.521342  0  -1.228343  0  -0.418657  -0.324663  0  3.505229  0
N  N87  1  0.70865380  0.36601471  0.30412810  1  0  -0.410064  0  3.269538  0  0  -0.340253  0  3.511645  0  0  -0.361693  0  3.521222  0  -1.226794  0  -0.418834  -0.325787  0  3.50492  0
N  N88  1  0.75645952  0.95870570  0.55779030  1  0  -0.408189  0  3.271206  0  0  -0.343236  0  3.514157  0  0  -0.363769  0  3.52224  0  -1.233901  0  -0.413538  -0.329389  0  3.508445  0
N  N89  1  0.04032072  0.24294847  0.94173756  1  0  -0.408022  0  3.273159  0  0  -0.341649  0  3.515011  0  0  -0.362089  0  3.523199  0  -1.235348  0  -0.414176  -0.327874  0  3.509424  0
N  N90  1  0.24353159  0.04129537  0.44220973  1  0  -0.408174  0  3.271295  0  0  -0.343162  0  3.514224  0  0  -0.363698  0  3.522312  0  -1.233935  0  -0.413527  -0.329314  0  3.508509  0
N  N91  1  0.95968489  0.75704722  0.05826084  1  0  -0.408055  0  3.273028  0  0  -0.341744  0  3.514866  0  0  -0.3622  0  3.523026  0  -1.236016  0  -0.414284  -0.327967  0  3.509278  0
N  N92  1  0.51067788  0.20789075  0.56495260  1  0  -0.425341  0  3.241827  0  0  -0.358816  0  3.484124  0  0  -0.379891  0  3.49212  0  -1.24959  0  -0.422311  -0.344598  0  3.478481  0
N  N93  1  0.79232571  0.49010241  0.93537645  1  0  -0.425068  0  3.242985  0  0  -0.358379  0  3.485073  0  0  -0.37948  0  3.493182  0  -1.247935  0  -0.42275  -0.344159  0  3.479326  0
N  N94  1  0.48931232  0.79210628  0.43504826  1  0  -0.425216  0  3.242035  0  0  -0.358673  0  3.484344  0  0  -0.379766  0  3.492342  0  -1.249749  0  -0.422264  -0.344454  0  3.4787  0
N  N95  1  0.20767919  0.50989193  0.06462382  1  0  -0.425149  0  3.243158  0  0  -0.358365  0  3.485099  0  0  -0.379459  0  3.493195  0  -1.247995  0  -0.422698  -0.344156  0  3.479366  0
O  O96  1  0.15562199  0.33532106  0.60358901  1  0  -0.649465  0  2.026997  0  0  -0.587411  0  2.275461  0  0  -0.612154  0  2.263838  0  -1.209007  0  -0.338192  -0.570143  0  2.282974  0
O  O97  1  0.66531911  0.84427217  0.89676043  1  0  -0.649556  0  2.025705  0  0  -0.587565  0  2.274255  0  0  -0.612298  0  2.262608  0  -1.21105  0  -0.337474  -0.570288  0  2.281761  0
O  O98  1  0.84437003  0.66468403  0.39641137  1  0  -0.649336  0  2.026992  0  0  -0.587289  0  2.275378  0  0  -0.612033  0  2.263766  0  -1.209078  0  -0.338126  -0.57002  0  2.282889  0
O  O99  1  0.33468350  0.15572486  0.10324042  1  0  -0.649604  0  2.025447  0  0  -0.587684  0  2.274003  0  0  -0.61242  0  2.262356  0  -1.210938  0  -0.337503  -0.570401  0  2.281497  0
O  O100  1  0.03302697  0.63728729  0.59737232  1  0  -0.664996  0  1.989287  0  0  -0.604743  0  2.218595  0  0  -0.629525  0  2.208645  0  -1.201189  0  -0.324318  -0.587412  0  2.224972  0
O  O101  1  0.36277201  0.96707229  0.90242148  1  0  -0.665784  0  1.989436  0  0  -0.6055  0  2.21895  0  0  -0.630256  0  2.208914  0  -1.201767  0  -0.324472  -0.588153  0  2.225383  0
O  O102  1  0.96696576  0.36271914  0.40262914  1  0  -0.664858  0  1.989414  0  0  -0.604663  0  2.218676  0  0  -0.629443  0  2.208718  0  -1.201295  0  -0.324283  -0.587331  0  2.225049  0
O  O103  1  0.63723432  0.03292474  0.09757918  1  0  -0.665696  0  1.989716  0  0  -0.605472  0  2.219204  0  0  -0.630239  0  2.209175  0  -1.201876  0  -0.324438  -0.588126  0  2.225636  0
