# generated using pymatgen
data_Ag2H12C13(N2O)2
_symmetry_space_group_name_H-M   'P 1'
_cell_length_a   9.90240147
_cell_length_b   9.90241386
_cell_length_c   15.60300144
_cell_angle_alpha   96.17382075
_cell_angle_beta   107.00781001
_cell_angle_gamma   111.63774247
_symmetry_Int_Tables_number   1
_chemical_formula_structural   Ag2H12C13(N2O)2
_chemical_formula_sum   'Ag8 H48 C52 N16 O8'
_cell_volume   1319.44655393
_cell_formula_units_Z   4
loop_
 _symmetry_equiv_pos_site_id
 _symmetry_equiv_pos_as_xyz
  1  'x, y, z'
loop_
 _atom_site_type_symbol
 _atom_site_label
 _atom_site_symmetry_multiplicity
 _atom_site_fract_x
 _atom_site_fract_y
 _atom_site_fract_z
 _atom_site_occupancy
 _atom_site_pbe_bader_spin_density
 _atom_site_pbe_cm5_charge
 _atom_site_pbe_ddec_charge
 _atom_site_pbe_ddec_spin_density
 _atom_site_pbe_ddec_sum_bond_order
 _atom_site_pbe_magmom
Ag  Ag0  1  0.89883272  0.37535412  0.31350751  1  0  0.429451  0.332339  0  1.957738  0
Ag  Ag1  1  0.43833299  0.41437245  0.81335923  1  0  0.429456  0.33205  0  1.95706  0
Ag  Ag2  1  0.09163065  0.21586077  0.34487312  1  0  0.431089  0.335389  0  1.9698  0
Ag  Ag3  1  0.62917158  0.25280465  0.84509517  1  0  0.431549  0.336593  0  1.968671  0
Ag  Ag4  1  0.83858705  0.65516605  0.05470644  1  0  0.433106  0.332576  0  1.976161  0
Ag  Ag5  1  0.89918015  0.21700390  0.55479566  1  0  0.432087  0.331516  0  1.976757  0
Ag  Ag6  1  0.02934895  0.49398020  0.08946067  1  0  0.426376  0.339824  0  1.983249  0
Ag  Ag7  1  0.09499400  0.06081741  0.58937351  1  0  0.427133  0.341155  0  1.982256  0
H  H8  1  0.59594988  0.33868839  0.24461789  1  0  0.096762  0.10827  0  1.050309  0
H  H9  1  0.40674859  0.64852550  0.74494726  1  0  0.096522  0.108303  0  1.049421  0
H  H10  1  0.34459507  0.33655197  0.24482101  1  0  0.109856  0.083468  0  0.999417  0
H  H11  1  0.40914411  0.90008230  0.74523232  1  0  0.10909  0.082783  0  0.999289  0
H  H12  1  0.27857777  0.00524282  0.38947851  1  0  0.107376  0.071304  0  1.017053  0
H  H13  1  0.88502474  0.11037616  0.88927682  1  0  0.106802  0.070227  0  1.017782  0
H  H14  1  0.53091068  0.00036955  0.40120195  1  0  0.107056  0.128342  0  1.043675  0
H  H15  1  0.90162814  0.86977203  0.90092191  1  0  0.106759  0.12824  0  1.043687  0
H  H16  1  0.64198419  0.93836333  0.31498735  1  0  0.127516  0.073794  0  0.991429  0
H  H17  1  0.87699205  0.67211337  0.81484192  1  0  0.126705  0.072746  0  0.992172  0
H  H18  1  0.71934143  0.80785876  0.40391348  1  0  0.104452  0.123308  0  1.060499  0
H  H19  1  0.09619002  0.68307670  0.90375458  1  0  0.104577  0.12431  0  1.059605  0
H  H20  1  0.72740753  0.55941158  0.39179235  1  0  0.10669  0.072228  0  1.016279  0
H  H21  1  0.33230277  0.66241327  0.89171275  1  0  0.10677  0.071853  0  1.015689  0
H  H22  1  0.04383616  0.67331010  0.25797189  1  0  0.108151  0.087702  0  1.059808  0
H  H23  1  0.08414065  0.21255906  0.75751725  1  0  0.107865  0.088953  0  1.059474  0
H  H24  1  0.04276327  0.92331860  0.26058023  1  0  0.102233  0.111118  0  1.06391  0
H  H25  1  0.83688466  0.21674232  0.76004889  1  0  0.102203  0.111333  0  1.064039  0
H  H26  1  0.44241485  0.74132226  0.40072493  1  0  0.093227  0.150995  0  1.023911  0
H  H27  1  0.15987360  0.95772450  0.90089587  1  0  0.09267  0.150146  0  1.025413  0
H  H28  1  0.45150031  0.64573524  0.30196799  1  0  0.093769  0.144368  0  1.025378  0
H  H29  1  0.15658769  0.85012412  0.80199990  1  0  0.092837  0.143346  0  1.025031  0
H  H30  1  0.32446509  0.73702204  0.28686146  1  0  0.094412  0.161193  0  1.03557  0
H  H31  1  0.05039550  0.96221873  0.78711108  1  0  0.09466  0.161802  0  1.034148  0
H  H32  1  0.37129128  0.23277115  0.99449112  1  0  0.104942  0.123557  0  1.058202  0
H  H33  1  0.26186711  0.62442612  0.49444860  1  0  0.105529  0.125163  0  1.057179  0
H  H34  1  0.13424811  0.25802467  0.00091798  1  0  0.108509  0.076522  0  1.007706  0
H  H35  1  0.24310139  0.86791077  0.50107764  1  0  0.107875  0.075717  0  1.008837  0
H  H36  1  0.38646966  0.70182770  0.14484618  1  0  0.112228  0.089091  0  1.026434  0
H  H37  1  0.94253021  0.75896447  0.64466752  1  0  0.11234  0.088551  0  1.025445  0
H  H38  1  0.63793224  0.69318166  0.14914305  1  0  0.101533  0.118473  0  1.037599  0
H  H39  1  0.95528840  0.51164898  0.64869503  1  0  0.102088  0.119056  0  1.037156  0
H  H40  1  0.58552163  0.23550504  0.08321158  1  0  0.124538  0.069373  0  1.003455  0
H  H41  1  0.34711624  0.49821476  0.58277694  1  0  0.124622  0.069393  0  1.002782  0
H  H42  1  0.55654457  0.03414524  0.99910175  1  0  0.102906  0.124979  0  1.064492  0
H  H43  1  0.46463799  0.44337307  0.49886170  1  0  0.103536  0.126959  0  1.062303  0
H  H44  1  0.57507556  0.79304888  0.00721556  1  0  0.103519  0.064911  0  1.029324  0
H  H45  1  0.71414636  0.43315540  0.50738924  1  0  0.103345  0.065225  0  1.029518  0
H  H46  1  0.05404131  0.00454002  0.13695002  1  0  0.108831  0.078667  0  1.023524  0
H  H47  1  0.63149077  0.08330799  0.63677143  1  0  0.108833  0.078088  0  1.022623  0
H  H48  1  0.05381614  0.25605197  0.14387966  1  0  0.097388  0.109799  0  1.061952  0
H  H49  1  0.38676798  0.09045660  0.64346939  1  0  0.096474  0.109605  0  1.063291  0
H  H50  1  0.42038527  0.97184891  0.14147136  1  0  0.088954  0.145815  0  1.018177  0
H  H51  1  0.66930165  0.72116726  0.64142911  1  0  0.089334  0.146176  0  1.01837  0
H  H52  1  0.33635038  0.92989508  0.01810183  1  0  0.09593  0.150753  0  1.013837  0
H  H53  1  0.58853627  0.68244911  0.51808488  1  0  0.096416  0.151237  0  1.012724  0
H  H54  1  0.30182380  0.05880920  0.08594489  1  0  0.092044  0.143379  0  1.024075  0
H  H55  1  0.52680191  0.78416764  0.58586113  1  0  0.092229  0.143745  0  1.024448  0
C  C56  1  0.58342791  0.16423367  0.31925128  1  0  0.100161  0.259989  0  4.065279  0
C  C57  1  0.65575143  0.73543533  0.81933747  1  0  0.100165  0.26105  0  4.065196  0
C  C58  1  0.52847534  0.26253050  0.27749356  1  0  -0.10181  -0.237974  0  3.973228  0
C  C59  1  0.51576602  0.74879114  0.77773743  1  0  -0.101881  -0.23788  0  3.97395  0
C  C60  1  0.38775250  0.26086452  0.27733229  1  0  0.031919  0.097404  0  3.981979  0
C  C61  1  0.51726874  0.88933259  0.77762055  1  0  0.033162  0.098552  0  3.984384  0
C  C62  1  0.35119693  0.07670940  0.35697096  1  0  0.036732  0.108433  0  3.980814  0
C  C63  1  0.78101673  0.00531978  0.85688399  1  0  0.038152  0.111909  0  3.981796  0
C  C64  1  0.49065593  0.07080192  0.36132341  1  0  -0.096796  -0.223458  0  3.922837  0
C  C65  1  0.79130088  0.87020232  0.86118642  1  0  -0.097237  -0.22584  0  3.923668  0
C  C66  1  0.74424902  0.04032603  0.32266719  1  0  0.16637  0.247974  0  4.076675  0
C  C67  1  0.78264280  0.57760323  0.82259184  1  0  0.167257  0.249279  0  4.07809  0
C  C68  1  0.87588480  0.88683317  0.32922642  1  0  0.102214  0.262263  0  4.054432  0
C  C69  1  0.94231075  0.45206005  0.82890487  1  0  0.102914  0.263796  0  4.052452  0
C  C70  1  0.78784893  0.78037889  0.36756608  1  0  -0.102873  -0.242352  0  3.953257  0
C  C71  1  0.08716345  0.57819027  0.86734398  1  0  -0.10373  -0.244596  0  3.953506  0
C  C72  1  0.79545229  0.64269062  0.36266033  1  0  0.031572  0.095328  0  3.992602  0
C  C73  1  0.21982295  0.56539256  0.86246430  1  0  0.032582  0.097622  0  3.991325  0
C  C74  1  0.97153904  0.70594943  0.28881358  1  0  0.027998  0.085384  0  3.967692  0
C  C75  1  0.08246983  0.31569190  0.78839038  1  0  0.030646  0.086251  0  3.968692  0
C  C76  1  0.97098318  0.84592846  0.29059328  1  0  -0.102407  -0.232036  0  3.971295  0
C  C77  1  0.94435320  0.31831398  0.79011788  1  0  -0.103211  -0.233571  0  3.972599  0
C  C78  1  0.24540382  0.52904226  0.32898939  1  0  0.193736  0.657727  0  4.134982  0
C  C79  1  0.30039414  0.08308246  0.82910334  1  0  0.193021  0.6551  0  4.141263  0
C  C80  1  0.37238314  0.67333313  0.32987542  1  0  -0.256582  -0.537201  0  3.877405  0
C  C81  1  0.15699492  0.95711131  0.83004279  1  0  -0.255088  -0.534953  0  3.877043  0
C  C82  1  0.52752357  0.46064515  0.07364374  1  0  0.100011  0.26113  0  4.061187  0
C  C83  1  0.11258436  0.54690585  0.57331845  1  0  0.100668  0.264452  0  4.062339  0
C  C84  1  0.38087252  0.33737740  0.03153001  1  0  -0.104823  -0.243544  0  3.95549  0
C  C85  1  0.19406502  0.65167924  0.53139489  1  0  -0.104807  -0.245634  0  3.956775  0
C  C86  1  0.24809465  0.35254760  0.03373284  1  0  0.03249  0.095644  0  3.998489  0
C  C87  1  0.18113530  0.78668427  0.53372943  1  0  0.033326  0.095904  0  3.9987  0
C  C88  1  0.38905031  0.59936106  0.11342007  1  0  0.032076  0.089599  0  3.972411  0
C  C89  1  0.01363992  0.72506775  0.61323604  1  0  0.031716  0.089565  0  3.968588  0
C  C90  1  0.52800250  0.59434412  0.11530199  1  0  -0.102575  -0.232466  0  3.952779  0
C  C91  1  0.02042393  0.58793686  0.61496149  1  0  -0.102281  -0.232518  0  3.95602  0
C  C92  1  0.68079546  0.32911792  0.07559482  1  0  0.163151  0.23672  0  4.105414  0
C  C93  1  0.24584809  0.39539624  0.57519066  1  0  0.162322  0.236697  0  4.106213  0
C  C94  1  0.80403675  0.16847914  0.07495442  1  0  0.099583  0.265795  0  4.053143  0
C  C95  1  0.40582802  0.27151799  0.57462479  1  0  0.102692  0.268529  0  4.049351  0
C  C96  1  0.66803201  0.03350634  0.03594425  1  0  -0.102608  -0.23181  0  3.931786  0
C  C97  1  0.50201134  0.36867171  0.53573642  1  0  -0.104453  -0.235249  0  3.930376  0
C  C98  1  0.67935578  0.89832782  0.03774113  1  0  0.031164  0.096717  0  3.999961  0
C  C99  1  0.63911826  0.35925686  0.53775709  1  0  0.031401  0.096  0  4.000244  0
C  C100  1  0.94460901  0.01475669  0.10923934  1  0  0.032017  0.095258  0  3.995491  0
C  C101  1  0.59367896  0.16510382  0.60905484  1  0  0.031137  0.095211  0  3.995004  0
C  C102  1  0.94516743  0.15533855  0.11224526  1  0  -0.105636  -0.24569  0  3.992975  0
C  C103  1  0.45601422  0.16749888  0.61188444  1  0  -0.105025  -0.245715  0  3.991807  0
C  C104  1  0.17233503  0.82844624  0.08260912  1  0  0.188118  0.647174  0  4.166363  0
C  C105  1  0.75402804  0.91085840  0.58286864  1  0  0.189138  0.649931  0  4.163664  0
C  C106  1  0.31747223  0.95443601  0.08282391  1  0  -0.250892  -0.520554  0  3.895222  0
C  C107  1  0.62826610  0.76571485  0.58286272  1  0  -0.252599  -0.52317  0  3.896181  0
N  N108  1  0.72517152  0.16607976  0.31974944  1  0  -0.387416  -0.374056  0  3.612365  0
N  N109  1  0.65418427  0.59408637  0.81984830  1  0  -0.387343  -0.375693  0  3.615335  0
N  N110  1  0.87503405  0.02761293  0.32893334  1  0  -0.377882  -0.356373  0  3.603357  0
N  N111  1  0.80136737  0.45291217  0.82873052  1  0  -0.379362  -0.357166  0  3.602161  0
N  N112  1  0.29727947  0.16875019  0.31560683  1  0  -0.346754  -0.254809  0  3.507373  0
N  N113  1  0.64762710  0.01799593  0.81575790  1  0  -0.347228  -0.256513  0  3.509189  0
N  N114  1  0.88450947  0.60296117  0.32371936  1  0  -0.351502  -0.237025  0  3.543142  0
N  N115  1  0.22044323  0.43741321  0.82341941  1  0  -0.352928  -0.238048  0  3.547916  0
N  N116  1  0.66684190  0.45712796  0.07341908  1  0  -0.381835  -0.364652  0  3.612682  0
N  N117  1  0.11575193  0.40731203  0.57306119  1  0  -0.381248  -0.365937  0  3.612124  0
N  N118  1  0.80601003  0.30995778  0.07472240  1  0  -0.379794  -0.367517  0  3.597542  0
N  N119  1  0.26408749  0.26930393  0.57435684  1  0  -0.381826  -0.369375  0  3.601253  0
N  N120  1  0.24898636  0.48059320  0.07394809  1  0  -0.350143  -0.241434  0  3.546882  0
N  N121  1  0.09315064  0.82583861  0.57389045  1  0  -0.351359  -0.241793  0  3.543942  0
N  N122  1  0.81443296  0.88597985  0.07350074  1  0  -0.349315  -0.245854  0  3.520049  0
N  N123  1  0.68702925  0.25979486  0.57352296  1  0  -0.349037  -0.245121  0  3.520555  0
O  O124  1  0.11101307  0.48165341  0.26635551  1  0  -0.333181  -0.5349  0  2.375607  0
O  O125  1  0.28534831  0.15459379  0.76629052  1  0  -0.333287  -0.534654  0  2.37509  0
O  O126  1  0.27903279  0.46042496  0.39102937  1  0  -0.330027  -0.537981  0  2.302366  0
O  O127  1  0.43094865  0.11159889  0.89125649  1  0  -0.32978  -0.537164  0  2.304302  0
O  O128  1  0.04585828  0.79534758  0.01488898  1  0  -0.33607  -0.547692  0  2.29234  0
O  O129  1  0.71941469  0.97001267  0.51531275  1  0  -0.336836  -0.548473  0  2.292861  0
O  O130  1  0.18330938  0.76271404  0.14811115  1  0  -0.331279  -0.544819  0  2.249483  0
O  O131  1  0.88523239  0.96504552  0.64829248  1  0  -0.330021  -0.544938  0  2.248347  0
