# generated using pymatgen
data_CaH14C12(N2O3)2
_symmetry_space_group_name_H-M   'P 1'
_cell_length_a   7.78156211
_cell_length_b   8.70202318
_cell_length_c   11.93959377
_cell_angle_alpha   81.95098632
_cell_angle_beta   78.08158484
_cell_angle_gamma   69.00082345
_symmetry_Int_Tables_number   1
_chemical_formula_structural   CaH14C12(N2O3)2
_chemical_formula_sum   'Ca2 H28 C24 N8 O12'
_cell_volume   736.59548323
_cell_formula_units_Z   2
loop_
 _symmetry_equiv_pos_site_id
 _symmetry_equiv_pos_as_xyz
  1  'x, y, z'
loop_
 _atom_site_type_symbol
 _atom_site_label
 _atom_site_symmetry_multiplicity
 _atom_site_fract_x
 _atom_site_fract_y
 _atom_site_fract_z
 _atom_site_occupancy
 _atom_site_hle17_bader_spin_density
 _atom_site_hle17_ddec_charge
 _atom_site_hle17_ddec_spin_density
 _atom_site_hle17_ddec_sum_bond_order
 _atom_site_hle17_magmom
 _atom_site_hse06_10hf_bader_spin_density
 _atom_site_hse06_10hf_ddec_charge
 _atom_site_hse06_10hf_ddec_spin_density
 _atom_site_hse06_10hf_ddec_sum_bond_order
 _atom_site_hse06_10hf_magmom
 _atom_site_hse06_bader_spin_density
 _atom_site_hse06_ddec_charge
 _atom_site_hse06_ddec_spin_density
 _atom_site_hse06_ddec_sum_bond_order
 _atom_site_hse06_magmom
 _atom_site_pbe_bader_spin_density
 _atom_site_pbe_cm5_charge
 _atom_site_pbe_ddec_charge
 _atom_site_pbe_ddec_spin_density
 _atom_site_pbe_ddec_sum_bond_order
 _atom_site_pbe_magmom
Ca  Ca0  1  0.22574633  0.52230560  0.05592961  1  0  1.481749  0  1.128616  0  0  1.327293  0  1.484158  0  0  1.371601  0  1.441843  0  0  0.841574  1.293973  0  1.514171  0
Ca  Ca1  1  0.77424730  0.47769658  0.94407029  1  0  1.481757  0  1.128598  0  0  1.327268  0  1.484201  0  0  1.371572  0  1.441888  0  0  0.841583  1.293945  0  1.514217  0
H  H2  1  0.13128364  0.60608273  0.83788152  1  0  0.402673  0  0.920641  0  0  0.370136  0  0.98938  0  0  0.382368  0  0.971463  0  0  0.293084  0.361481  0  1.002024  0
H  H3  1  0.86871299  0.39392192  0.16211607  1  0  0.402748  0  0.920531  0  0  0.370223  0  0.989244  0  0  0.382455  0  0.971328  0  0  0.293112  0.361571  0  1.001885  0
H  H4  1  0.95926809  0.74362323  0.90370547  1  0  0.428618  0  0.876556  0  0  0.395561  0  0.944856  0  0  0.407045  0  0.928205  0  0  0.303303  0.387407  0  0.956654  0
H  H5  1  0.04072590  0.25638147  0.09629080  1  0  0.428365  0  0.876896  0  0  0.3954  0  0.945023  0  0  0.406877  0  0.928376  0  0  0.303255  0.387245  0  0.95683  0
H  H6  1  0.51757217  0.21332902  0.99062219  1  0  0.430869  0  0.872648  0  0  0.396506  0  0.941441  0  0  0.409189  0  0.922881  0  0  0.29528  0.387485  0  0.954607  0
H  H7  1  0.48241929  0.78667194  0.00937811  1  0  0.430876  0  0.872664  0  0  0.396487  0  0.94149  0  0  0.40917  0  0.922931  0  0  0.29528  0.387465  0  0.954656  0
H  H8  1  0.34119683  0.14884968  0.03770472  1  0  0.430014  0  0.866995  0  0  0.397889  0  0.931775  0  0  0.409499  0  0.914616  0  0  0.295672  0.389582  0  0.944038  0
H  H9  1  0.65879500  0.85115378  0.96229279  1  0  0.429985  0  0.867042  0  0  0.397858  0  0.931826  0  0  0.40947  0  0.914662  0  0  0.295662  0.38955  0  0.944089  0
H  H10  1  0.53043285  0.32702964  0.45453135  1  0  0.083444  0  0.9415  0  0  0.0884  0  1.010705  0  0  0.091864  0  1.007625  0  0  0.115556  0.085823  0  1.013116  0
H  H11  1  0.46957813  0.67296140  0.54546558  1  0  0.083499  0  0.941483  0  0  0.088456  0  1.010671  0  0  0.091921  0  1.007592  0  0  0.11559  0.085886  0  1.013076  0
H  H12  1  0.96728837  0.39390306  0.31111829  1  0  0.100061  0  0.972295  0  0  0.105544  0  1.040505  0  0  0.108983  0  1.037885  0  0  0.122812  0.103  0  1.042643  0
H  H13  1  0.03271876  0.60608427  0.68888118  1  0  0.100108  0  0.972336  0  0  0.105724  0  1.040397  0  0  0.109166  0  1.037774  0  0  0.122859  0.103171  0  1.042552  0
H  H14  1  0.03017057  0.11042402  0.54534001  1  0  0.123031  0  0.934655  0  0  0.146695  0  0.99048  0  0  0.147799  0  0.990706  0  0  0.099833  0.145876  0  0.990325  0
H  H15  1  0.96983240  0.88957430  0.45466486  1  0  0.123032  0  0.934617  0  0  0.146696  0  0.990446  0  0  0.1478  0  0.990673  0  0  0.099831  0.145877  0  0.990291  0
H  H16  1  0.84863695  0.27875063  0.49110413  1  0  0.118779  0  0.950375  0  0  0.138974  0  1.012229  0  0  0.140705  0  1.011269  0  0  0.095698  0.137629  0  1.013025  0
H  H17  1  0.15136770  0.72125018  0.50889860  1  0  0.118821  0  0.95022  0  0  0.138978  0  1.01214  0  0  0.140708  0  1.011181  0  0  0.095723  0.137633  0  1.012936  0
H  H18  1  0.93717922  0.29649627  0.61414782  1  0  0.125445  0  0.957229  0  0  0.142371  0  1.023695  0  0  0.142721  0  1.026284  0  0  0.098408  0.142048  0  1.021972  0
H  H19  1  0.06283248  0.70350326  0.38585492  1  0  0.125424  0  0.957215  0  0  0.142358  0  1.023694  0  0  0.142708  0  1.026282  0  0  0.098408  0.142034  0  1.021972  0
H  H20  1  0.85350951  0.14691939  0.22692142  1  0  0.080559  0  0.985753  0  0  0.085557  0  1.054761  0  0  0.088901  0  1.051977  0  0  0.11555  0.083155  0  1.056847  0
H  H21  1  0.14648899  0.85308034  0.77307638  1  0  0.080524  0  0.985749  0  0  0.085529  0  1.054757  0  0  0.088876  0  1.051967  0  0  0.115523  0.083122  0  1.056843  0
H  H22  1  0.74222884  0.63787576  0.21525945  1  0  0.088729  0  0.991071  0  0  0.096376  0  1.055564  0  0  0.099281  0  1.053754  0  0  0.122393  0.09428  0  1.057001  0
H  H23  1  0.25776710  0.36212376  0.78474960  1  0  0.08877  0  0.991064  0  0  0.096357  0  1.05561  0  0  0.099294  0  1.053769  0  0  0.122397  0.094246  0  1.057058  0
H  H24  1  0.38687644  0.93744263  0.39854129  1  0  0.12365  0  0.938593  0  0  0.144822  0  0.997697  0  0  0.14608  0  0.997699  0  0  0.097562  0.143937  0  0.997667  0
H  H25  1  0.61311709  0.06256326  0.60145744  1  0  0.123723  0  0.938511  0  0  0.144833  0  0.997693  0  0  0.146091  0  0.997695  0  0  0.097541  0.143946  0  0.997665  0
H  H26  1  0.43613555  0.75487742  0.32639461  1  0  0.115391  0  0.947493  0  0  0.137462  0  1.00612  0  0  0.138295  0  1.006809  0  0  0.094027  0.136812  0  1.005673  0
H  H27  1  0.56386014  0.24512969  0.67360372  1  0  0.115394  0  0.947478  0  0  0.137469  0  1.006092  0  0  0.138296  0  1.006789  0  0  0.094051  0.136818  0  1.005647  0
H  H28  1  0.33685570  0.95418698  0.25782319  1  0  0.135131  0  0.952413  0  0  0.15369  0  1.014476  0  0  0.155553  0  1.014102  0  0  0.098438  0.152357  0  1.014738  0
H  H29  1  0.66314178  0.04581888  0.74217585  1  0  0.135104  0  0.952509  0  0  0.153672  0  1.014544  0  0  0.155536  0  1.01417  0  0  0.09844  0.152343  0  1.014802  0
C  C30  1  0.54778646  0.42736836  0.22521643  1  0  0.637627  0  3.913829  0  0  0.580703  0  4.219041  0  0  0.615439  0  4.209709  0  0  0.22939  0.557159  0  4.224701  0
C  C31  1  0.45221647  0.57263007  0.77478258  1  0  0.637713  0  3.913611  0  0  0.580722  0  4.218969  0  0  0.615456  0  4.209636  0  0  0.229417  0.557178  0  4.224625  0
C  C32  1  0.38798267  0.39564346  0.30844952  1  0  0.040925  0  3.76224  0  0  0.041153  0  4.020588  0  0  0.038406  0  4.037577  0  0  0.120027  0.042525  0  4.00951  0
C  C33  1  0.61202298  0.60435126  0.69155030  1  0  0.04086  0  3.762202  0  0  0.040969  0  4.020731  0  0  0.038222  0  4.037719  0  0  0.119976  0.042342  0  4.009657  0
C  C34  1  0.40451676  0.33805419  0.42269125  1  0  0.092182  0  3.701473  0  0  0.056036  0  3.970248  0  0  0.060659  0  3.984489  0  0  0.063382  0.05293  0  3.960923  0
C  C35  1  0.59549246  0.66193803  0.57730916  1  0  0.092065  0  3.701527  0  0  0.05598  0  3.970319  0  0  0.060603  0  3.984562  0  0  0.063319  0.052868  0  3.960993  0
C  C36  1  0.11888664  0.30603258  0.45359148  1  0  0.259434  0  3.726324  0  0  0.271726  0  3.977195  0  0  0.277096  0  3.99658  0  0  0.128144  0.267972  0  3.964175  0
C  C37  1  0.88112173  0.69395841  0.54640916  1  0  0.259415  0  3.726273  0  0  0.271701  0  3.97719  0  0  0.277069  0  3.996574  0  0  0.128056  0.267946  0  3.964169  0
C  C38  1  0.09660888  0.37415232  0.34172249  1  0  0.027015  0  3.64545  0  0  -0.005279  0  3.899225  0  0  -0.004706  0  3.915544  0  0  0.055791  -0.005967  0  3.888556  0
C  C39  1  0.90339912  0.62583619  0.65827927  1  0  0.026905  0  3.645334  0  0  -0.005507  0  3.899086  0  0  -0.004933  0  3.915401  0  0  0.055739  -0.006192  0  3.888415  0
C  C40  1  0.97432167  0.24557225  0.52991813  1  0  -0.370372  0  3.709757  0  0  -0.453461  0  3.944486  0  0  -0.456567  0  3.954055  0  0  -0.236078  -0.450963  0  3.937867  0
C  C41  1  0.02568129  0.75442609  0.47008590  1  0  -0.370396  0  3.709654  0  0  -0.453474  0  3.944399  0  0  -0.456578  0  3.95397  0  0  -0.236077  -0.450973  0  3.93778  0
C  C42  1  0.14633927  0.91664637  0.10051045  1  0  0.636511  0  3.936259  0  0  0.577209  0  4.24482  0  0  0.610832  0  4.237526  0  0  0.221322  0.554483  0  4.248982  0
C  C43  1  0.85365567  0.08335584  0.89948760  1  0  0.636635  0  3.936084  0  0  0.577319  0  4.244641  0  0  0.610946  0  4.237338  0  0  0.221384  0.554593  0  4.248806  0
C  C44  1  0.96323942  0.90356904  0.16335852  1  0  0.017714  0  3.780971  0  0  0.022319  0  4.03413  0  0  0.018004  0  4.05409  0  0  0.104042  0.024823  0  4.020811  0
C  C45  1  0.03675909  0.09643066  0.83664012  1  0  0.017746  0  3.780885  0  0  0.022395  0  4.034005  0  0  0.018079  0  4.053962  0  0  0.104067  0.024896  0  4.020688  0
C  C46  1  0.82661105  0.03431858  0.22049832  1  0  0.080888  0  3.709027  0  0  0.048424  0  3.968403  0  0  0.052713  0  3.984556  0  0  0.051691  0.045224  0  3.958252  0
C  C47  1  0.17338482  0.96568114  0.77950067  1  0  0.08096  0  3.708874  0  0  0.048469  0  3.968244  0  0  0.052752  0  3.984405  0  0  0.051727  0.045272  0  3.958093  0
C  C48  1  0.62556731  0.88906184  0.26559689  1  0  0.285781  0  3.706144  0  0  0.294934  0  3.961994  0  0  0.302418  0  3.977063  0  0  0.141429  0.289829  0  3.951776  0
C  C49  1  0.37442850  0.11094153  0.73440428  1  0  0.285871  0  3.706109  0  0  0.294977  0  3.961996  0  0  0.302455  0  3.977077  0  0  0.141479  0.289872  0  3.951776  0
C  C50  1  0.76738851  0.75346538  0.21339758  1  0  0.046462  0  3.641081  0  0  0.013567  0  3.8969  0  0  0.015478  0  3.911043  0  0  0.063625  0.011925  0  3.887862  0
C  C51  1  0.23260825  0.24653546  0.78660706  1  0  0.046354  0  3.6413  0  0  0.013523  0  3.897131  0  0  0.015421  0  3.911231  0  0  0.063584  0.011892  0  3.888105  0
C  C52  1  0.43576711  0.88220959  0.31553855  1  0  -0.370767  0  3.696436  0  0  -0.453286  0  3.930345  0  0  -0.455999  0  3.93757  0  0  -0.236782  -0.451066  0  3.925235  0
C  C53  1  0.56423254  0.11779748  0.68446009  1  0  -0.370817  0  3.696461  0  0  -0.453287  0  3.930412  0  0  -0.455994  0  3.937641  0  0  -0.236807  -0.451073  0  3.925302  0
N  N54  1  0.23069965  0.41705003  0.26905696  1  0  -0.322099  0  3.20182  0  0  -0.275081  0  3.464898  0  0  -0.283966  0  3.481395  0  0  -0.329736  -0.268477  0  3.453689  0
N  N55  1  0.76930826  0.58294219  0.73094363  1  0  -0.322  0  3.201647  0  0  -0.274928  0  3.464791  0  0  -0.283813  0  3.481289  0  0  -0.329707  -0.268323  0  3.453578  0
N  N56  1  0.27290034  0.29236924  0.49464291  1  0  -0.297886  0  3.007022  0  0  -0.267142  0  3.269267  0  0  -0.276376  0  3.284711  0  0  -0.296584  -0.260779  0  3.258841  0
N  N57  1  0.72710663  0.70762544  0.50535758  1  0  -0.297785  0  3.006931  0  0  -0.267048  0  3.269167  0  0  -0.276281  0  3.284612  0  0  -0.296512  -0.260688  0  3.258747  0
N  N58  1  0.93420153  0.75982536  0.16207658  1  0  -0.320541  0  3.174162  0  0  -0.274487  0  3.436098  0  0  -0.284213  0  3.454489  0  0  -0.315752  -0.267097  0  3.423312  0
N  N59  1  0.06579746  0.24017304  0.83792546  1  0  -0.320581  0  3.174294  0  0  -0.274531  0  3.436189  0  0  -0.284262  0  3.454593  0  0  -0.315781  -0.267141  0  3.423399  0
N  N60  1  0.65795068  0.02901621  0.27030386  1  0  -0.303429  0  3.005483  0  0  -0.273795  0  3.267994  0  0  -0.284045  0  3.282194  0  0  -0.299073  -0.266404  0  3.258158  0
N  N61  1  0.34204379  0.97098720  0.72969582  1  0  -0.303482  0  3.005336  0  0  -0.273819  0  3.267868  0  0  -0.284066  0  3.282067  0  0  -0.299088  -0.266429  0  3.258032  0
O  O62  1  0.52924917  0.46425473  0.12054353  1  0  -0.67146  0  2.007014  0  0  -0.601396  0  2.249579  0  0  -0.629362  0  2.241214  0  0  -0.344147  -0.581518  0  2.254639  0
O  O63  1  0.47074841  0.53574741  0.87945668  1  0  -0.671487  0  2.006915  0  0  -0.601395  0  2.249515  0  0  -0.629361  0  2.241149  0  0  -0.344153  -0.581518  0  2.254573  0
O  O64  1  0.69223259  0.41114560  0.26632077  1  0  -0.631741  0  2.006017  0  0  -0.57875  0  2.236398  0  0  -0.603832  0  2.225241  0  0  -0.311175  -0.56112  0  2.243433  0
O  O65  1  0.30777333  0.58885535  0.73367425  1  0  -0.631765  0  2.005977  0  0  -0.578693  0  2.236345  0  0  -0.603792  0  2.225225  0  0  -0.311166  -0.561056  0  2.243372  0
O  O66  1  0.26167795  0.78934468  0.05224131  1  0  -0.663951  0  2.047105  0  0  -0.598762  0  2.287941  0  0  -0.627144  0  2.279967  0  0  -0.332841  -0.578707  0  2.292766  0
O  O67  1  0.73831830  0.21065750  0.94775740  1  0  -0.664055  0  2.047075  0  0  -0.598907  0  2.287979  0  0  -0.627289  0  2.280002  0  0  -0.332892  -0.57885  0  2.292802  0
O  O68  1  0.17471884  0.05171778  0.09977044  1  0  -0.642411  0  2.022181  0  0  -0.579017  0  2.246926  0  0  -0.604818  0  2.236136  0  0  -0.303895  -0.561023  0  2.253977  0
O  O69  1  0.82527562  0.94828566  0.90022756  1  0  -0.642459  0  2.022082  0  0  -0.579008  0  2.246861  0  0  -0.604817  0  2.236066  0  0  -0.303901  -0.561015  0  2.253912  0
O  O70  1  0.02698200  0.62189873  0.90636300  1  0  -0.897294  0  1.852069  0  0  -0.832696  0  2.050019  0  0  -0.856649  0  2.017875  0  0  -0.620312  -0.815272  0  2.072272  0
O  O71  1  0.97301510  0.37810470  0.09363465  1  0  -0.89709  0  1.852277  0  0  -0.832544  0  2.05021  0  0  -0.856485  0  2.018082  0  0  -0.620282  -0.815125  0  2.072453  0
O  O72  1  0.37868562  0.24623640  0.00980057  1  0  -0.900748  0  1.822462  0  0  -0.840237  0  2.014589  0  0  -0.86329  0  1.980904  0  0  -0.641654  -0.823356  0  2.038112  0
O  O73  1  0.62130529  0.75376947  0.99020019  1  0  -0.900722  0  1.822456  0  0  -0.840181  0  2.014615  0  0  -0.863233  0  1.980926  0  0  -0.641644  -0.823297  0  2.038134  0
