# generated using pymatgen
data_ZnH8C10(SN3)2
_symmetry_space_group_name_H-M   'P 1'
_cell_length_a   6.91754163
_cell_length_b   7.26030792
_cell_length_c   7.26029306
_cell_angle_alpha   91.17668645
_cell_angle_beta   109.07004289
_cell_angle_gamma   109.06813685
_symmetry_Int_Tables_number   1
_chemical_formula_structural   ZnH8C10(SN3)2
_chemical_formula_sum   'Zn1 H8 C10 S2 N6'
_cell_volume   322.39333646
_cell_formula_units_Z   1
loop_
 _symmetry_equiv_pos_site_id
 _symmetry_equiv_pos_as_xyz
  1  'x, y, z'
loop_
 _atom_site_type_symbol
 _atom_site_label
 _atom_site_symmetry_multiplicity
 _atom_site_fract_x
 _atom_site_fract_y
 _atom_site_fract_z
 _atom_site_occupancy
 _atom_site_hle17_bader_spin_density
 _atom_site_hle17_ddec_charge
 _atom_site_hle17_ddec_spin_density
 _atom_site_hle17_ddec_sum_bond_order
 _atom_site_hle17_magmom
 _atom_site_hse06_10hf_bader_spin_density
 _atom_site_hse06_10hf_ddec_charge
 _atom_site_hse06_10hf_ddec_spin_density
 _atom_site_hse06_10hf_ddec_sum_bond_order
 _atom_site_hse06_10hf_magmom
 _atom_site_hse06_bader_spin_density
 _atom_site_hse06_ddec_charge
 _atom_site_hse06_ddec_spin_density
 _atom_site_hse06_ddec_sum_bond_order
 _atom_site_hse06_magmom
 _atom_site_pbe_bader_spin_density
 _atom_site_pbe_cm5_charge
 _atom_site_pbe_ddec_charge
 _atom_site_pbe_ddec_spin_density
 _atom_site_pbe_ddec_sum_bond_order
 _atom_site_pbe_magmom
Zn  Zn0  1  0.99999885  0.49999679  0.49999811  1  0  0.895622  0  2.064365  0  0  0.700706  0  2.518782  0  0  0.743084  0  2.476905  0  0  0.710934  0.671921  0  2.546822  0
H  H1  1  0.68349004  0.05957574  0.27985546  1  0  0.078889  0  0.979035  0  0  0.084669  0  1.048451  0  0  0.086726  0  1.047604  0  0  0.112703  0.083131  0  1.04919  0
H  H2  1  0.31649364  0.72014067  0.94042755  1  0  0.078983  0  0.979049  0  0  0.084696  0  1.048549  0  0  0.086751  0  1.047703  0  0  0.112695  0.08316  0  1.049286  0
H  H3  1  0.31649048  0.94042254  0.72014639  1  0  0.0789  0  0.979051  0  0  0.084633  0  1.048513  0  0  0.086689  0  1.047667  0  0  0.112639  0.083099  0  1.049252  0
H  H4  1  0.68350657  0.27985315  0.05957779  1  0  0.078773  0  0.97899  0  0  0.084549  0  1.048452  0  0  0.086606  0  1.047606  0  0  0.112614  0.08301  0  1.049188  0
H  H5  1  0.29772508  0.28151483  0.71710700  1  0  0.094625  0  0.946475  0  0  0.100952  0  1.010279  0  0  0.103235  0  1.009393  0  0  0.118605  0.099213  0  1.011164  0
H  H6  1  0.70229117  0.28290157  0.71848288  1  0  0.094536  0  0.946539  0  0  0.100948  0  1.010252  0  0  0.103232  0  1.009368  0  0  0.118618  0.099225  0  1.011119  0
H  H7  1  0.70226736  0.71847463  0.28289024  1  0  0.094665  0  0.946318  0  0  0.100898  0  1.010226  0  0  0.103177  0  1.009349  0  0  0.118604  0.099174  0  1.011092  0
H  H8  1  0.29771825  0.71709225  0.28152267  1  0  0.094569  0  0.946464  0  0  0.100917  0  1.010251  0  0  0.103199  0  1.009368  0  0  0.118567  0.099169  0  1.011149  0
C  C9  1  0.82610791  0.03373999  0.37848138  1  0  0.084336  0  3.672229  0  0  0.05421  0  3.925521  0  0  0.056697  0  3.942809  0  0  0.055786  0.052362  0  3.914337  0
C  C10  1  0.17390019  0.62150841  0.96626018  1  0  0.084411  0  3.672302  0  0  0.054274  0  3.925772  0  0  0.056754  0  3.94306  0  0  0.055796  0.052428  0  3.914573  0
C  C11  1  0.17389516  0.96625683  0.62151393  1  0  0.084408  0  3.672  0  0  0.054331  0  3.925389  0  0  0.056813  0  3.942671  0  0  0.055816  0.052481  0  3.914198  0
C  C12  1  0.82612989  0.37847948  0.03374776  1  0  0.084544  0  3.672164  0  0  0.054306  0  3.925656  0  0  0.056795  0  3.942948  0  0  0.055789  0.052454  0  3.914462  0
C  C13  1  0.16462461  0.15490699  0.62014495  1  0  0.08894  0  3.670117  0  0  0.057738  0  3.925748  0  0  0.060674  0  3.942154  0  0  0.057001  0.0555  0  3.915225  0
C  C14  1  0.83538833  0.37984318  0.84509899  1  0  0.088924  0  3.669945  0  0  0.05769  0  3.925647  0  0  0.060617  0  3.942049  0  0  0.056921  0.05544  0  3.915117  0
C  C15  1  0.83537207  0.84509283  0.37984285  1  0  0.08895  0  3.669796  0  0  0.057851  0  3.925485  0  0  0.060781  0  3.941885  0  0  0.056984  0.055601  0  3.914954  0
C  C16  1  0.16461814  0.62013149  0.15490383  1  0  0.088933  0  3.670204  0  0  0.057711  0  3.925854  0  0  0.060651  0  3.942259  0  0  0.057009  0.055474  0  3.915333  0
C  C17  1  0.49100857  0.28973594  0.28971273  1  0  0.282359  0  4.065803  0  0  0.266708  0  4.365858  0  0  0.290137  0  4.3787  0  0  0.13407  0.250915  0  4.356173  0
C  C18  1  0.50900540  0.71029623  0.71028545  1  0  0.282227  0  4.065556  0  0  0.266591  0  4.365587  0  0  0.290025  0  4.378436  0  0  0.134023  0.250797  0  4.355899  0
S  S19  1  0.26206747  0.13792603  0.13792545  1  0  -0.346633  0  2.042897  0  0  -0.332664  0  2.347387  0  0  -0.34949  0  2.34885  0  0  -0.180511  -0.320218  0  2.345899  0
S  S20  1  0.73794300  0.86210907  0.86207717  1  0  -0.346473  0  2.042857  0  0  -0.33251  0  2.347351  0  0  -0.349332  0  2.348811  0  0  -0.180435  -0.320063  0  2.345865  0
N  N21  1  0.99087547  0.18881157  0.49828362  1  0  -0.254917  0  3.243972  0  0  -0.185926  0  3.506936  0  0  -0.19868  0  3.524231  0  0  -0.294173  -0.177307  0  3.495419  0
N  N22  1  0.00911119  0.50172515  0.81118232  1  0  -0.254847  0  3.243839  0  0  -0.185847  0  3.506794  0  0  -0.19858  0  3.52408  0  0  -0.294111  -0.177225  0  3.495281  0
N  N23  1  0.00910507  0.81117930  0.50172634  1  0  -0.25485  0  3.243552  0  0  -0.185955  0  3.506578  0  0  -0.198688  0  3.523857  0  0  -0.294136  -0.177335  0  3.495069  0
N  N24  1  0.99087778  0.49828643  0.18881151  1  0  -0.254916  0  3.244213  0  0  -0.185824  0  3.507107  0  0  -0.198585  0  3.524411  0  0  -0.294079  -0.177185  0  3.495573  0
N  N25  1  0.66311856  0.39928541  0.39928547  1  0  -0.567454  0  2.978406  0  0  -0.507802  0  3.267894  0  0  -0.529619  0  3.271564  0  0  -0.408863  -0.492589  0  3.264798  0
N  N26  1  0.33688092  0.60071431  0.60071975  1  0  -0.567504  0  2.978235  0  0  -0.50785  0  3.267718  0  0  -0.52967  0  3.27139  0  0  -0.408868  -0.492632  0  3.264617  0
