# generated using pymatgen
data_MgCuH16(C4O3)4
_symmetry_space_group_name_H-M   'P 1'
_cell_length_a   6.46697828
_cell_length_b   6.89076012
_cell_length_c   20.49289564
_cell_angle_alpha   89.99994275
_cell_angle_beta   89.99910407
_cell_angle_gamma   89.99999546
_symmetry_Int_Tables_number   1
_chemical_formula_structural   MgCuH16(C4O3)4
_chemical_formula_sum   'Mg2 Cu2 H32 C32 O24'
_cell_volume   913.21253201
_cell_formula_units_Z   2
loop_
 _symmetry_equiv_pos_site_id
 _symmetry_equiv_pos_as_xyz
  1  'x, y, z'
loop_
 _atom_site_type_symbol
 _atom_site_label
 _atom_site_symmetry_multiplicity
 _atom_site_fract_x
 _atom_site_fract_y
 _atom_site_fract_z
 _atom_site_occupancy
 _atom_site_hle17_ddec_charge
 _atom_site_hle17_ddec_spin_density
 _atom_site_hle17_ddec_sum_bond_order
 _atom_site_hle17_magmom
 _atom_site_hse06_10hf_ddec_charge
 _atom_site_hse06_10hf_ddec_spin_density
 _atom_site_hse06_10hf_ddec_sum_bond_order
 _atom_site_hse06_10hf_magmom
 _atom_site_hse06_ddec_charge
 _atom_site_hse06_ddec_spin_density
 _atom_site_hse06_ddec_sum_bond_order
 _atom_site_hse06_magmom
 _atom_site_pbe_cm5_charge
 _atom_site_pbe_ddec_charge
 _atom_site_pbe_ddec_spin_density
 _atom_site_pbe_ddec_sum_bond_order
 _atom_site_pbe_magmom
Mg  Mg0  1  0.50000013  0.11531527  0.00000024  1  1.577335  8.9e-05  1.03071  0.0  1.47401  8.6e-05  1.282135  0.0  1.494986  1.5e-05  1.247787  0.0  0.811904  1.458934  0.000154  1.306548  0.0
Mg  Mg1  1  0.99999963  0.88471298  0.49999996  1  1.577056  9e-05  1.031074  0.0  1.473518  8.7e-05  1.282782  0.0  1.494524  1.6e-05  1.248385  0.0  0.811743  1.458438  0.000155  1.307185  0.0
Cu  Cu2  1  0.99999996  0.72498533  0.00000085  1  0.985771  0.679687  1.609732  0.505  0.9721  0.775444  1.990717  0.626  1.075561  0.840389  1.905705  0.712  0.7229  0.905627  0.730354  2.051868  0.571
Cu  Cu3  1  0.49999824  0.27499793  0.49999935  1  0.985769  0.679497  1.608634  0.505  0.972259  0.775343  1.989481  0.626  1.075705  0.840349  1.904644  0.712  0.722798  0.905659  0.730239  2.050807  0.571
H  H4  1  0.48794177  0.41270926  0.91964039  1  0.421419  -3.3e-05  0.887434  0.0  0.390637  -2e-05  0.951465  0.0  0.400779  -1e-05  0.936469  0.0  0.293363  0.383424  -2.5e-05  0.962138  0.0
H  H5  1  0.98791030  0.58740165  0.58038939  1  0.421619  -3.3e-05  0.887137  0.0  0.390794  -2e-05  0.951257  0.0  0.400933  -1e-05  0.936264  0.0  0.293339  0.383583  -2.5e-05  0.961925  0.0
H  H6  1  0.01208770  0.58740192  0.41961114  1  0.421624  -3.3e-05  0.887129  0.0  0.390795  -2e-05  0.951255  0.0  0.400934  -1e-05  0.936262  0.0  0.293335  0.383585  -2.6e-05  0.961918  0.0
H  H7  1  0.51205935  0.41270905  0.08036021  1  0.421424  -3.3e-05  0.887434  0.0  0.390642  -2e-05  0.951464  0.0  0.400784  -9e-06  0.936467  0.0  0.293363  0.38343  -2.5e-05  0.962135  0.0
H  H8  1  0.24969100  0.37732418  0.93507900  1  0.438299  0.000126  0.856637  0.0  0.406915  0.000196  0.920113  0.0  0.417616  0.0001  0.904444  0.0  0.296896  0.399366  0.000294  0.93116  0.0
H  H9  1  0.74964640  0.62267355  0.56493875  1  0.438446  0.000125  0.856418  0.0  0.40706  0.000195  0.919913  0.0  0.417765  9.9e-05  0.904239  0.0  0.296941  0.399522  0.000294  0.930959  0.0
H  H10  1  0.25035160  0.62267376  0.43506080  1  0.438409  0.000125  0.856486  0.0  0.40704  0.000195  0.919945  0.0  0.417743  9.9e-05  0.904273  0.0  0.296916  0.399498  0.000293  0.930994  0.0
H  H11  1  0.75031011  0.37732400  0.06492112  1  0.438303  0.000125  0.85663  0.0  0.406914  0.000196  0.920114  0.0  0.417614  0.0001  0.904446  0.0  0.296884  0.399366  0.000294  0.931157  0.0
H  H12  1  0.51876122  0.77747888  0.92657729  1  0.451009  1.5e-05  0.837532  0.0  0.418559  -2.1e-05  0.902693  0.0  0.428135  -2.9e-05  0.88843  0.0  0.306645  0.411741  -7e-06  0.912856  0.0
H  H13  1  0.01877009  0.22251742  0.57346012  1  0.450895  1.5e-05  0.837726  0.0  0.418526  -2.1e-05  0.902763  0.0  0.428103  -2.9e-05  0.888503  0.0  0.306635  0.411707  -7e-06  0.912927  0.0
H  H14  1  0.98122950  0.22251470  0.42653908  1  0.450946  1.5e-05  0.837655  0.0  0.418582  -2.1e-05  0.902681  0.0  0.428158  -2.9e-05  0.888422  0.0  0.306659  0.411762  -7e-06  0.912847  0.0
H  H15  1  0.48123831  0.77747869  0.07342367  1  0.450996  1.6e-05  0.837552  0.0  0.418549  -2.1e-05  0.902707  0.0  0.428124  -2.9e-05  0.888447  0.0  0.30664  0.411733  -7e-06  0.91287  0.0
H  H16  1  0.29425782  0.88086517  0.91790700  1  0.439951  -0.000248  0.855091  0.0  0.406876  -0.000195  0.922114  0.0  0.417603  -0.000233  0.906112  0.0  0.30386  0.399379  -0.000139  0.933296  0.0
H  H17  1  0.79425879  0.11914562  0.58212713  1  0.439845  -0.000247  0.855169  0.0  0.406842  -0.000195  0.922165  0.0  0.417572  -0.000233  0.906156  0.0  0.303762  0.399343  -0.000139  0.933351  0.0
H  H18  1  0.20574081  0.11914588  0.41787211  1  0.439855  -0.000248  0.855153  0.0  0.406858  -0.000195  0.922145  0.0  0.417589  -0.000233  0.906136  0.0  0.303761  0.399361  -0.000139  0.933329  0.0
H  H19  1  0.70574170  0.88086494  0.08209343  1  0.439953  -0.000249  0.855087  0.0  0.406871  -0.000195  0.922122  0.0  0.417598  -0.000233  0.90612  0.0  0.303858  0.399374  -0.000139  0.933304  0.0
H  H20  1  0.82521884  0.58288227  0.77635087  1  0.097777  2.6e-05  0.954935  0.0  0.109527  0.000119  1.01368  0.0  0.111761  7.3e-05  1.014121  0.0  0.104234  0.107832  0.000166  1.013602  0.0
H  H21  1  0.32524324  0.41709224  0.72368409  1  0.097719  2.7e-05  0.954734  0.0  0.109484  0.000119  1.013473  0.0  0.111723  7.3e-05  1.013897  0.0  0.104211  0.107798  0.000167  1.013405  0.0
H  H22  1  0.67475941  0.41708853  0.27631553  1  0.097709  2.4e-05  0.954718  0.0  0.109444  0.000119  1.013489  0.0  0.111681  7.3e-05  1.013916  0.0  0.104201  0.107755  0.000167  1.013418  0.0
H  H23  1  0.17478071  0.58288021  0.22364870  1  0.097773  2.8e-05  0.954868  0.0  0.109526  0.000119  1.013616  0.0  0.11176  7.3e-05  1.014057  0.0  0.104223  0.107824  0.000166  1.013535  0.0
H  H24  1  0.89511641  0.38038661  0.67884768  1  0.094383  5.2e-05  0.952891  0.0  0.104835  3.4e-05  1.012077  0.0  0.107926  2.1e-05  1.010059  0.0  0.102325  0.10255  5.3e-05  1.013668  0.0
H  H25  1  0.39511883  0.61959515  0.82118792  1  0.094208  5.1e-05  0.952974  0.0  0.104513  3.4e-05  1.012373  0.0  0.107599  2.1e-05  1.010363  0.0  0.102338  0.102227  5.3e-05  1.013967  0.0
H  H26  1  0.60488380  0.61959464  0.17881114  1  0.094222  5.4e-05  0.952963  0.0  0.104513  3.4e-05  1.012382  0.0  0.107599  2.1e-05  1.01037  0.0  0.102343  0.102225  5.3e-05  1.01397  0.0
H  H27  1  0.10488471  0.38038716  0.32115244  1  0.094345  5.1e-05  0.952897  0.0  0.104794  3.4e-05  1.012088  0.0  0.107886  2.1e-05  1.01007  0.0  0.102326  0.10251  5.3e-05  1.013679  0.0
H  H28  1  0.99197277  0.03223196  0.69173538  1  0.103708  -0.000184  0.948795  0.0  0.114129  2.4e-05  1.006732  0.0  0.117241  1.1e-05  1.005662  0.0  0.104445  0.111842  3.9e-05  1.007654  0.0
H  H29  1  0.49197427  0.96774108  0.80830658  1  0.103518  -0.000184  0.948855  0.0  0.113944  2.5e-05  1.006799  0.0  0.117043  1.1e-05  1.005753  0.0  0.104276  0.111652  3.9e-05  1.007726  0.0
H  H30  1  0.50802524  0.96773909  0.19169334  1  0.103529  -0.000185  0.948892  0.0  0.113971  2.4e-05  1.006818  0.0  0.117078  1.1e-05  1.005764  0.0  0.104292  0.111681  3.9e-05  1.007744  0.0
H  H31  1  0.00802993  0.03223256  0.30826583  1  0.103694  -0.000184  0.948883  0.0  0.114124  2.4e-05  1.0068  0.0  0.117231  1.1e-05  1.005746  0.0  0.104439  0.111837  3.8e-05  1.007723  0.0
H  H32  1  0.00823225  0.88752209  0.80336165  1  0.095037  0.000166  0.957793  0.0  0.104283  0.000146  1.020962  0.0  0.107079  9.4e-05  1.019874  0.0  0.102545  0.102253  0.000203  1.021821  0.0
H  H33  1  0.50819802  0.11250323  0.69668459  1  0.095246  0.000166  0.957736  0.0  0.104442  0.000146  1.020939  0.0  0.107264  9.4e-05  1.01978  0.0  0.102612  0.102405  0.000203  1.02181  0.0
H  H34  1  0.49180003  0.11250091  0.30331465  1  0.095282  0.000166  0.957685  0.0  0.104476  0.000146  1.020895  0.0  0.107299  9.4e-05  1.01973  0.0  0.102623  0.102443  0.000203  1.021762  0.0
H  H35  1  0.99177191  0.88752005  0.19664025  1  0.09506  0.000166  0.957743  0.0  0.104303  0.000146  1.020934  0.0  0.107099  9.4e-05  1.019833  0.0  0.102552  0.102268  0.000203  1.021795  0.0
C  C36  1  0.92709140  0.15250003  0.85224675  1  -0.082735  0.0119  3.718155  0.012  -0.068259  0.006364  3.946411  0.007  -0.076117  0.004493  3.967554  0.005  -0.011996  -0.063143  0.007945  3.932374  0.009
C  C37  1  0.42709643  0.84749189  0.64779455  1  -0.082359  0.011903  3.717123  0.012  -0.067934  0.006363  3.945768  0.007  -0.075827  0.004497  3.966884  0.005  -0.01204  -0.062809  0.007948  3.931709  0.009
C  C38  1  0.57290155  0.84748942  0.35220493  1  -0.082329  0.011927  3.717124  0.012  -0.067904  0.006365  3.945778  0.007  -0.075802  0.004495  3.966889  0.005  -0.012021  -0.062777  0.007949  3.931722  0.009
C  C39  1  0.07290664  0.15249965  0.14775393  1  -0.082852  0.011883  3.71802  0.012  -0.068355  0.006364  3.946328  0.007  -0.076212  0.004492  3.967469  0.005  -0.012054  -0.063256  0.007946  3.932276  0.009
C  C40  1  0.87776716  0.35049126  0.84462322  1  -0.053497  0.006674  3.715731  0.008  -0.03857  0.004359  3.94398  0.005  -0.042786  0.002537  3.964301  0.003  -0.005005  -0.035893  0.005856  3.930527  0.007
C  C41  1  0.37779810  0.64949630  0.65541978  1  -0.053881  0.006713  3.716284  0.008  -0.03913  0.004373  3.944601  0.005  -0.043232  0.002546  3.964765  0.003  -0.005107  -0.036466  0.005874  3.931163  0.007
C  C42  1  0.62219835  0.64949385  0.34458025  1  -0.053838  0.006676  3.716223  0.008  -0.039109  0.004373  3.944564  0.005  -0.043194  0.002544  3.964711  0.003  -0.00509  -0.036447  0.005874  3.931122  0.007
C  C43  1  0.12223241  0.35048795  0.15537740  1  -0.053556  0.006707  3.71575  0.008  -0.038624  0.004358  3.944  0.005  -0.042839  0.002539  3.964321  0.003  -0.005009  -0.035907  0.005857  3.93048  0.007
C  C44  1  0.86512296  0.43013714  0.78204253  1  -0.088439  0.004319  3.739488  0.004  -0.110658  0.002012  3.986867  0.002  -0.113873  0.001434  4.009401  0.002  -0.085538  -0.10842  0.002652  3.971629  0.003
C  C45  1  0.36515228  0.56984172  0.71799468  1  -0.088657  0.004306  3.739342  0.004  -0.11086  0.002011  3.986847  0.002  -0.114109  0.001433  4.009307  0.002  -0.085816  -0.108635  0.002651  3.971636  0.003
C  C46  1  0.63484727  0.56983945  0.28200489  1  -0.088679  0.004344  3.739322  0.004  -0.110844  0.002011  3.986828  0.002  -0.114097  0.001434  4.009283  0.002  -0.08581  -0.108618  0.002652  3.971604  0.003
C  C47  1  0.13487815  0.43013509  0.21795758  1  -0.088485  0.00429  3.739341  0.004  -0.110716  0.002012  3.986735  0.002  -0.11393  0.001433  4.009268  0.002  -0.08556  -0.108483  0.002652  3.971468  0.003
C  C48  1  0.90473946  0.31557656  0.72723907  1  -0.051004  -0.002227  3.74895  -0.001  -0.066877  -0.000363  4.005457  0.0  -0.067118  -0.000837  4.025435  0.0  -0.083602  -0.066509  -1.6e-05  3.991711  0.0
C  C49  1  0.40475516  0.68440810  0.77279600  1  -0.050637  -0.002199  3.749049  -0.001  -0.066401  -0.000359  4.005548  0.0  -0.066644  -0.000834  4.025529  0.0  -0.083515  -0.066039  -1.3e-05  3.991814  0.0
C  C50  1  0.59524592  0.68440745  0.22720305  1  -0.050648  -0.002258  3.749111  -0.001  -0.066406  -0.000359  4.005618  0.0  -0.06665  -0.000836  4.025602  0.0  -0.083542  -0.066039  -1.3e-05  3.99187  0.0
C  C51  1  0.09526321  0.31557581  0.27276107  1  -0.05082  -0.002189  3.74881  -0.001  -0.066681  -0.000363  4.005304  0.0  -0.066922  -0.000836  4.025281  0.0  -0.083552  -0.066319  -1.7e-05  3.99156  0.0
C  C52  1  0.96004796  0.12100730  0.73459810  1  -0.070014  0.005337  3.748679  0.005  -0.086273  0.001632  4.004095  0.002  -0.089877  0.001144  4.026012  0.001  -0.087922  -0.083772  0.002285  3.989089  0.002
C  C53  1  0.46004546  0.87897445  0.76544304  1  -0.069625  0.005327  3.748785  0.005  -0.085864  0.001629  4.004012  0.002  -0.089471  0.001143  4.025947  0.001  -0.087662  -0.083352  0.002283  3.988998  0.002
C  C54  1  0.53995561  0.87897233  0.23455643  1  -0.069667  0.005362  3.748907  0.005  -0.085924  0.001629  4.004142  0.002  -0.089538  0.001143  4.026074  0.001  -0.08769  -0.083418  0.002283  3.989131  0.002
C  C55  1  0.03995473  0.12100658  0.26540259  1  -0.070086  0.005317  3.748746  0.005  -0.086342  0.001632  4.004165  0.002  -0.08995  0.001143  4.026079  0.001  -0.087931  -0.083845  0.002285  3.989161  0.002
C  C56  1  0.97020414  0.04028752  0.79695092  1  -0.059491  -0.003468  3.729335  -0.002  -0.082507  -0.000734  3.977845  -0.001  -0.082003  -0.001128  3.998533  -0.001  -0.079331  -0.08274  -0.000512  3.963812  0.0
C  C57  1  0.47019397  0.95970874  0.70308968  1  -0.060061  -0.00345  3.729508  -0.002  -0.08292  -0.00073  3.977918  -0.001  -0.082408  -0.001128  3.998613  -0.001  -0.079381  -0.083151  -0.000511  3.963877  0.0
C  C58  1  0.52980709  0.95970354  0.29690975  1  -0.060126  -0.003492  3.729486  -0.002  -0.082982  -0.000731  3.977898  -0.001  -0.082468  -0.001128  3.998595  -0.001  -0.079424  -0.083218  -0.000511  3.963861  0.0
C  C59  1  0.02979856  0.04028553  0.20304980  1  -0.059436  -0.003442  3.72914  -0.002  -0.082467  -0.000734  3.97767  -0.001  -0.081955  -0.001127  3.998356  -0.001  -0.07932  -0.082695  -0.000513  3.963631  0.0
C  C60  1  0.91153998  0.05745817  0.91764703  1  0.710289  -0.005215  3.829575  -0.005  0.659186  -0.000981  4.125541  -0.002  0.698113  -0.001474  4.114972  -0.002  0.235599  0.632678  -0.000501  4.132062  -0.002
C  C61  1  0.41149420  0.94253665  0.58238653  1  0.710064  -0.005217  3.828106  -0.005  0.658602  -0.00098  4.124799  -0.002  0.697533  -0.001477  4.114222  -0.002  0.235064  0.632107  -0.000498  4.131266  -0.002
C  C62  1  0.58850686  0.94253254  0.41761340  1  0.709989  -0.005219  3.828168  -0.005  0.658547  -0.000981  4.124828  -0.002  0.697478  -0.001474  4.114252  -0.002  0.235068  0.632049  -0.000498  4.131305  -0.002
C  C63  1  0.08846117  0.05745653  0.08235320  1  0.710454  -0.005213  3.829207  -0.005  0.659248  -0.000982  4.125327  -0.002  0.698172  -0.001474  4.11476  -0.002  0.235624  0.63275  -0.000501  4.13183  -0.002
C  C64  1  0.85424932  0.48697539  0.90122433  1  0.686327  -0.007097  3.85088  -0.007  0.63163  -0.002117  4.158656  -0.003  0.670138  -0.002719  4.148185  -0.003  0.227925  0.605417  -0.001498  4.165247  -0.002
C  C65  1  0.35419966  0.51301362  0.59880609  1  0.686565  -0.00709  3.851925  -0.007  0.632357  -0.002113  4.159027  -0.003  0.670846  -0.002716  4.148513  -0.003  0.228361  0.606145  -0.001493  4.165602  -0.002
C  C66  1  0.64579526  0.51300955  0.40119301  1  0.686629  -0.007092  3.851843  -0.007  0.63245  -0.002112  4.158918  -0.003  0.670926  -0.002715  4.148413  -0.003  0.228456  0.606244  -0.001494  4.165482  -0.002
C  C67  1  0.14575178  0.48697515  0.09877575  1  0.686376  -0.007104  3.850765  -0.007  0.63167  -0.002116  4.158555  -0.003  0.670176  -0.00272  4.148084  -0.003  0.227928  0.605449  -0.001499  4.165136  -0.002
O  O68  1  0.02143005  0.90246801  0.92567425  1  -0.643772  0.071789  2.145561  0.099  -0.601749  0.049181  2.431516  0.074  -0.645112  0.037671  2.417935  0.062  -0.318184  -0.572904  0.056487  2.440207  0.08
O  O69  1  0.52137265  0.09751668  0.57434167  1  -0.643579  0.071776  2.14479  0.099  -0.601479  0.049174  2.430913  0.074  -0.644849  0.037663  2.417369  0.062  -0.317987  -0.572592  0.056477  2.439568  0.08
O  O70  1  0.47862694  0.09751254  0.42565805  1  -0.643498  0.071782  2.144702  0.099  -0.601405  0.049178  2.430831  0.074  -0.644773  0.037665  2.417285  0.062  -0.317978  -0.572525  0.056479  2.439503  0.08
O  O71  1  0.97856792  0.90246488  0.07432618  1  -0.643867  0.071793  2.145414  0.099  -0.60177  0.049184  2.431368  0.074  -0.645132  0.037673  2.417786  0.062  -0.318195  -0.572919  0.056491  2.440036  0.08
O  O72  1  0.79027517  0.12613558  0.95940178  1  -0.68904  -0.000549  2.039317  0.001  -0.630858  -0.000581  2.282973  0.001  -0.656736  -0.001266  2.272727  0.0  -0.333922  -0.612907  9.9e-05  2.289636  0.001
O  O73  1  0.29018667  0.87382006  0.54064847  1  -0.688982  -0.000548  2.039021  0.001  -0.630545  -0.000579  2.28276  0.001  -0.656438  -0.001267  2.272513  0.0  -0.333629  -0.612601  0.0001  2.289402  0.001
O  O74  1  0.70981130  0.87381581  0.45935099  1  -0.688904  -0.000544  2.039065  0.001  -0.630496  -0.000582  2.282827  0.001  -0.656387  -0.001266  2.272582  0.0  -0.33359  -0.612545  0.0001  2.289466  0.001
O  O75  1  0.20972752  0.12613406  0.04059940  1  -0.689056  -0.00055  2.03919  0.001  -0.630859  -0.000582  2.282925  0.001  -0.656737  -0.001265  2.272687  0.0  -0.333907  -0.612916  9.9e-05  2.289587  0.001
O  O76  1  0.02148707  0.51802274  0.93386594  1  -0.603288  0.080055  2.101392  0.111  -0.562077  0.05434  2.374783  0.082  -0.605769  0.042147  2.362706  0.069  -0.307353  -0.533286  0.061494  2.382776  0.088
O  O77  1  0.52137594  0.48198806  0.56614316  1  -0.60322  0.080051  2.101887  0.111  -0.562262  0.054339  2.375148  0.082  -0.605952  0.042141  2.36308  0.069  -0.307417  -0.533452  0.06149  2.383179  0.088
O  O78  1  0.47861898  0.48198100  0.43385449  1  -0.60323  0.080052  2.101789  0.111  -0.562328  0.054339  2.375098  0.082  -0.606014  0.042141  2.363032  0.069  -0.307505  -0.533519  0.061493  2.383126  0.088
O  O79  1  0.97851403  0.51802400  0.06613414  1  -0.603298  0.080059  2.101384  0.111  -0.562056  0.054342  2.374748  0.082  -0.605748  0.04215  2.36267  0.069  -0.307345  -0.533274  0.061497  2.382752  0.088
O  O80  1  0.68577160  0.57309651  0.91179522  1  -0.640619  -0.001645  2.013023  0.0  -0.590021  -0.001062  2.249731  0.001  -0.616836  -0.00183  2.236321  0.0  -0.300155  -0.571277  -0.000377  2.258655  0.001
O  O81  1  0.18569464  0.42692880  0.58827896  1  -0.640816  -0.00164  2.013302  0.0  -0.590347  -0.001056  2.249732  0.001  -0.617181  -0.001826  2.236363  0.0  -0.300282  -0.571596  -0.000371  2.258637  0.001
O  O82  1  0.81430183  0.42693049  0.41172261  1  -0.640854  -0.001639  2.013373  0.0  -0.590361  -0.001057  2.249756  0.001  -0.6172  -0.001824  2.236406  0.0  -0.300284  -0.571612  -0.000371  2.258656  0.001
O  O83  1  0.31423104  0.57309629  0.08820581  1  -0.640628  -0.001644  2.012971  0.0  -0.590022  -0.001061  2.249664  0.001  -0.616845  -0.001832  2.236275  0.0  -0.30016  -0.57128  -0.000377  2.258589  0.001
O  O84  1  0.38580564  0.31268980  0.93273397  1  -0.912199  0.000667  1.825421  0.001  -0.858428  0.000446  2.002434  0.001  -0.875377  0.000217  1.969967  0.0  -0.622029  -0.846443  0.00068  2.025242  0.001
O  O85  1  0.88574545  0.68736452  0.56727288  1  -0.912382  0.000668  1.824987  0.001  -0.858539  0.000445  2.00193  0.001  -0.875495  0.000217  1.969465  0.0  -0.621986  -0.846576  0.000679  2.02469  0.001
O  O86  1  0.11425409  0.68736474  0.43272762  1  -0.912341  0.000667  1.825047  0.001  -0.858501  0.000445  2.002003  0.001  -0.875449  0.000217  1.969527  0.0  -0.621963  -0.846536  0.000679  2.024767  0.001
O  O87  1  0.61419548  0.31268962  0.06726666  1  -0.912206  0.000668  1.825415  0.001  -0.858433  0.000446  2.002426  0.001  -0.875382  0.000217  1.969965  0.0  -0.622013  -0.846451  0.00068  2.02523  0.001
O  O88  1  0.43926801  0.89816657  0.93151625  1  -0.925621  -0.00033  1.848969  0.0  -0.873315  -0.000531  2.041745  0.0  -0.890019  -0.000611  2.008179  0.0  -0.610179  -0.861417  -0.000416  2.065239  0.0
O  O89  1  0.93923875  0.10185582  0.56848986  1  -0.925406  -0.000332  1.849417  0.0  -0.873245  -0.000532  2.041815  0.0  -0.889961  -0.000612  2.008241  0.0  -0.610025  -0.861351  -0.000417  2.06531  0.0
O  O90  1  0.06076085  0.10185460  0.43150840  1  -0.925471  -0.000331  1.84939  0.0  -0.873324  -0.000532  2.04178  0.0  -0.89004  -0.000612  2.008206  0.0  -0.610025  -0.861425  -0.000417  2.065275  0.0
O  O91  1  0.56073150  0.89816640  0.06848419  1  -0.92562  -0.000329  1.849  0.0  -0.873319  -0.000531  2.041789  0.0  -0.890024  -0.000611  2.008225  0.0  -0.610178  -0.86142  -0.000416  2.065283  0.0
