# generated using pymatgen
data_ZnH23C28N3O4
_symmetry_space_group_name_H-M   'P 1'
_cell_length_a   8.22172204
_cell_length_b   15.13638141
_cell_length_c   23.04004864
_cell_angle_alpha   94.96136624
_cell_angle_beta   89.98674781
_cell_angle_gamma   105.76307058
_symmetry_Int_Tables_number   1
_chemical_formula_structural   ZnH23C28N3O4
_chemical_formula_sum   'Zn4 H92 C112 N12 O16'
_cell_volume   2748.29095013
_cell_formula_units_Z   4
loop_
 _symmetry_equiv_pos_site_id
 _symmetry_equiv_pos_as_xyz
  1  'x, y, z'
loop_
 _atom_site_type_symbol
 _atom_site_label
 _atom_site_symmetry_multiplicity
 _atom_site_fract_x
 _atom_site_fract_y
 _atom_site_fract_z
 _atom_site_occupancy
 _atom_site_pbe_bader_charge
 _atom_site_pbe_bader_spin_density
 _atom_site_pbe_cm5_charge
 _atom_site_pbe_ddec_charge
 _atom_site_pbe_ddec_spin_density
 _atom_site_pbe_ddec_sum_bond_order
 _atom_site_pbe_magmom
Zn  Zn0  1  0.65757517  0.06875306  0.49769237  1  1.297817  0  0.672494  0.82835  0  2.411842  0
Zn  Zn1  1  0.58876005  0.93123070  0.00226769  1  1.29682  0  0.671969  0.827692  0  2.411737  0
Zn  Zn2  1  0.34241695  0.93124922  0.50230906  1  1.29795  0  0.672511  0.828375  0  2.411846  0
Zn  Zn3  1  0.41123659  0.06877089  0.99773197  1  1.297052  0  0.671913  0.827603  0  2.411942  0
H  H4  1  0.87418078  0.97348940  0.33341552  1  0.110499  0  0.103967  0.106333  0  1.021672  0
H  H5  1  0.89994948  0.02641752  0.16656253  1  0.108292  0  0.103482  0.105422  0  1.021522  0
H  H6  1  0.12580750  0.02651494  0.66658169  1  0.110791  0  0.103946  0.106297  0  1.02157  0
H  H7  1  0.10005049  0.97357855  0.83343855  1  0.10834  0  0.103475  0.105437  0  1.021503  0
H  H8  1  0.94511037  0.87548139  0.25078222  1  0.112527  0  0.104923  0.118024  0  1.003349  0
H  H9  1  0.06900583  0.12425178  0.24917909  1  0.086924  0  0.104438  0.117172  0  1.004486  0
H  H10  1  0.05489027  0.12452088  0.74921791  1  0.112268  0  0.104936  0.118061  0  1.003401  0
H  H11  1  0.93100088  0.87575049  0.75081887  1  0.086978  0  0.104414  0.117172  0  1.00443  0
H  H12  1  0.47348755  0.66953972  0.27085742  1  0.06112  0  0.095815  0.101537  0  1.056166  0
H  H13  1  0.80388740  0.33047577  0.22926893  1  0.06391  0  0.095356  0.100767  0  1.056292  0
H  H14  1  0.52650962  0.33046049  0.72914433  1  0.061115  0  0.095812  0.101551  0  1.056137  0
H  H15  1  0.19611880  0.66952305  0.77073014  1  0.063786  0  0.095322  0.100689  0  1.056299  0
H  H16  1  0.40706465  0.76896689  0.35430451  1  0.091387  0  0.100065  0.103802  0  1.017237  0
H  H17  1  0.63780800  0.23111447  0.14589337  1  0.091281  0  0.100246  0.103607  0  1.017821  0
H  H18  1  0.59292901  0.23104089  0.64569376  1  0.091502  0  0.100063  0.10369  0  1.017327  0
H  H19  1  0.36219507  0.76888780  0.85410719  1  0.091261  0  0.10023  0.103527  0  1.017879  0
H  H20  1  0.65990615  0.60120059  0.11002417  1  0.068985  0  0.100309  0.107208  0  1.022587  0
H  H21  1  0.05813799  0.39870238  0.39003018  1  0.091368  0  0.100117  0.107155  0  1.022709  0
H  H22  1  0.34009189  0.39879893  0.88997711  1  0.068914  0  0.100323  0.107219  0  1.022767  0
H  H23  1  0.94187203  0.60129921  0.60997035  1  0.091217  0  0.100076  0.107074  0  1.022708  0
H  H24  1  0.55554840  0.43022103  0.10118575  1  0.075349  0  0.093935  0.087261  0  1.037174  0
H  H25  1  0.12499699  0.56974414  0.39886756  1  0.068396  0  0.09391  0.087298  0  1.036932  0
H  H26  1  0.44445831  0.56978125  0.89881612  1  0.075273  0  0.093914  0.087237  0  1.037119  0
H  H27  1  0.87501041  0.43025951  0.60113178  1  0.068353  0  0.093893  0.08726  0  1.036988  0
H  H28  1  0.52647007  0.34421964  0.18968207  1  0.088454  0  0.101569  0.102779  0  1.006428  0
H  H29  1  0.18231017  0.65574043  0.31038802  1  0.088311  0  0.101494  0.101879  0  1.007364  0
H  H30  1  0.47353440  0.65578056  0.81031665  1  0.088454  0  0.101584  0.102802  0  1.006432  0
H  H31  1  0.81769030  0.34425908  0.68960935  1  0.088295  0  0.101522  0.101958  0  1.007324  0
H  H32  1  0.61970999  0.43072425  0.28681173  1  0.043487  0  0.098815  0.093643  0  1.005838  0
H  H33  1  0.18912403  0.56922960  0.21325558  1  0.047181  0  0.098573  0.093616  0  1.006106  0
H  H34  1  0.38029466  0.56927389  0.71318904  1  0.043544  0  0.098837  0.093688  0  1.005884  0
H  H35  1  0.81087263  0.43076716  0.78674338  1  0.047179  0  0.098578  0.093576  0  1.006137  0
H  H36  1  0.72665343  0.60081555  0.29529726  1  0.09315  0  0.100465  0.103382  0  1.037856  0
H  H37  1  0.12576411  0.39912168  0.20477511  1  0.096666  0  0.100563  0.103478  0  1.037652  0
H  H38  1  0.27334669  0.39918329  0.70470441  1  0.093198  0  0.100482  0.103353  0  1.037842  0
H  H39  1  0.87423932  0.60087646  0.79522392  1  0.096747  0  0.100576  0.103485  0  1.037637  0
H  H40  1  0.72972214  0.84503035  0.14256947  1  0.100768  0  0.110074  0.126692  0  0.988632  0
H  H41  1  0.88471457  0.15478270  0.35739304  1  0.076138  0  0.110492  0.126956  0  0.988806  0
H  H42  1  0.27027383  0.15496503  0.85743027  1  0.100793  0  0.110059  0.126679  0  0.988648  0
H  H43  1  0.11528590  0.84521682  0.64260694  1  0.076149  0  0.110489  0.126956  0  0.988759  0
H  H44  1  0.94881256  0.92479710  0.07684530  1  0.116031  0  0.106926  0.114754  0  1.023751  0
H  H45  1  0.02402710  0.07498365  0.42306225  1  0.13457  0  0.106747  0.114276  0  1.024244  0
H  H46  1  0.05118880  0.07519690  0.92315567  1  0.115942  0  0.106918  0.114695  0  1.023716  0
H  H47  1  0.97598118  0.92501931  0.57693879  1  0.134491  0  0.106794  0.114388  0  1.024266  0
H  H48  1  0.26265802  0.75173738  0.11684100  1  0.088404  0  0.102468  0.102863  0  1.008351  0
H  H49  1  0.51099710  0.24813098  0.38309103  1  0.083318  0  0.102605  0.102413  0  1.007701  0
H  H50  1  0.73734401  0.24826283  0.88316336  1  0.088382  0  0.102457  0.102833  0  1.008391  0
H  H51  1  0.48900266  0.75187198  0.61690871  1  0.083355  0  0.102595  0.102445  0  1.007661  0
H  H52  1  0.03999956  0.66901198  0.18299660  1  0.054568  0  0.100792  0.105035  0  1.025022  0
H  H53  1  0.37101233  0.33094596  0.31700286  1  0.057053  0  0.101192  0.105371  0  1.025451  0
H  H54  1  0.95999988  0.33098547  0.81700543  1  0.05474  0  0.10078  0.10503  0  1.025058  0
H  H55  1  0.62898778  0.66905768  0.68299518  1  0.057143  0  0.101159  0.10534  0  1.025432  0
H  H56  1  0.96016917  0.09918344  0.57313953  1  0.139545  0  0.125248  0.102649  0  0.994742  0
H  H57  1  0.86099730  0.90084507  0.92691830  1  0.133445  0  0.125247  0.102511  0  0.994273  0
H  H58  1  0.03984170  0.90082227  0.42685558  1  0.139474  0  0.125191  0.102539  0  0.99471  0
H  H59  1  0.13901236  0.09916065  0.07308463  1  0.133549  0  0.125264  0.102539  0  0.994234  0
H  H60  1  0.20013647  0.23218424  0.61233505  1  0.108864  0  0.103267  0.111667  0  1.058244  0
H  H61  1  0.96802516  0.76787723  0.88762724  1  0.109394  0  0.102918  0.110768  0  1.058934  0
H  H62  1  0.79987112  0.76781734  0.38766070  1  0.108662  0  0.103189  0.111613  0  1.058257  0
H  H63  1  0.03197564  0.23212780  0.11236914  1  0.109205  0  0.102945  0.110797  0  1.058906  0
H  H64  1  0.02378380  0.40198573  0.49979634  1  0.066142  0  0.106594  0.112557  0  1.008378  0
H  H65  1  0.62186520  0.59799192  0.00018275  1  0.065804  0  0.107003  0.112441  0  1.008058  0
H  H66  1  0.97620117  0.59802414  0.50020943  1  0.06629  0  0.106591  0.112567  0  1.008475  0
H  H67  1  0.37814569  0.40200897  0.99981471  1  0.06563  0  0.106991  0.112407  0  1.008132  0
H  H68  1  0.78538109  0.26169068  0.46683484  1  0.090892  0  0.119914  0.094937  0  0.997721  0
H  H69  1  0.52379396  0.73828867  0.03326603  1  0.10048  0  0.120173  0.094903  0  0.997909  0
H  H70  1  0.21459624  0.73831850  0.53317393  1  0.090885  0  0.119869  0.094908  0  0.997729  0
H  H71  1  0.47621347  0.26171016  0.96673217  1  0.100362  0  0.120151  0.094884  0  0.997888  0
H  H72  1  0.36422486  0.33543270  0.48422591  1  0.053134  0  0.102404  0.085441  0  0.999962  0
H  H73  1  0.02863652  0.66453536  0.01578355  1  0.051123  0  0.102499  0.08498  0  1.00032  0
H  H74  1  0.63577125  0.66457026  0.51577296  1  0.052986  0  0.102403  0.085416  0  0.999959  0
H  H75  1  0.97136793  0.33546967  0.98421500  1  0.051217  0  0.102478  0.084949  0  1.000271  0
H  H76  1  0.55068709  0.38891375  0.52737493  1  0.016936  0  0.088908  0.05605  0  0.983076  0
H  H77  1  0.16168768  0.61110570  0.97261526  1  0.008514  0  0.089244  0.056467  0  0.982473  0
H  H78  1  0.44930902  0.61108921  0.47262394  1  0.016853  0  0.088918  0.056052  0  0.983009  0
H  H79  1  0.83831764  0.38889864  0.02738282  1  0.008651  0  0.08927  0.056467  0  0.982503  0
H  H80  1  0.60784111  0.41050268  0.42413787  1  0.029371  0  0.100886  0.076214  0  0.986147  0
H  H81  1  0.19703489  0.58953097  0.07588026  1  0.006804  0  0.100962  0.076602  0  0.985396  0
H  H82  1  0.39215865  0.58950028  0.57586187  1  0.029322  0  0.100902  0.076199  0  0.986106  0
H  H83  1  0.80297199  0.41047406  0.92411959  1  0.006804  0  0.100959  0.07655  0  0.985446  0
H  H84  1  0.43100472  0.45628737  0.41695938  1  0.036568  0  0.087842  0.056486  0  1.00232  0
H  H85  1  0.97442932  0.54361034  0.08299705  1  0.027672  0  0.088404  0.057301  0  1.001797  0
H  H86  1  0.56899226  0.54371490  0.58303902  1  0.036633  0  0.087818  0.056457  0  1.002377  0
H  H87  1  0.02557513  0.45639469  0.91700063  1  0.027597  0  0.088379  0.057235  0  1.001838  0
H  H88  1  0.21709592  0.45939967  0.60809656  1  0.060077  0  0.10724  0.090833  0  0.984501  0
H  H89  1  0.75765584  0.54053236  0.89188215  1  0.058071  0  0.107503  0.090766  0  0.98361  0
H  H90  1  0.78290715  0.54060260  0.39190270  1  0.060082  0  0.107202  0.090773  0  0.984569  0
H  H91  1  0.24235104  0.45947266  0.10811553  1  0.058223  0  0.107478  0.090675  0  0.983575  0
H  H92  1  0.35868905  0.38898024  0.60987134  1  0.022143  0  0.094606  0.068337  0  0.988809  0
H  H93  1  0.96967422  0.61095314  0.89007971  1  0.005843  0  0.094773  0.06856  0  0.988948  0
H  H94  1  0.64131558  0.61102273  0.39012840  1  0.021748  0  0.094612  0.068318  0  0.988771  0
H  H95  1  0.03033543  0.38905258  0.10991714  1  0.005923  0  0.094763  0.068561  0  0.988992  0
C  C96  1  0.59641685  0.93278877  0.40128690  1  1.588445  0  0.206506  0.586115  0  4.195054  0
C  C97  1  0.66301338  0.06737589  0.09875829  1  1.554761  0  0.207635  0.587475  0  4.192236  0
C  C98  1  0.40357563  0.06720938  0.59871474  1  1.588679  0  0.206403  0.585868  0  4.19515  0
C  C99  1  0.33698498  0.93262913  0.90123853  1  1.555154  0  0.207671  0.587499  0  4.192052  0
C  C100  1  0.63586361  0.87729077  0.34923020  1  -0.014818  0  -0.032361  -0.064906  0  3.998109  0
C  C101  1  0.75804276  0.12273171  0.15083483  1  0.011184  0  -0.032232  -0.063764  0  3.998834  0
C  C102  1  0.36411946  0.12271287  0.65076740  1  -0.015606  0  -0.032312  -0.064834  0  3.99802  0
C  C103  1  0.24195858  0.87726711  0.84916511  1  0.011116  0  -0.03226  -0.063854  0  3.99893  0
C  C104  1  0.78646609  0.90705216  0.31919927  1  -0.114609  0  -0.082908  -0.070534  0  3.990963  0
C  C105  1  0.87879877  0.09287401  0.18081044  1  -0.076245  0  -0.083016  -0.071131  0  3.990217  0
C  C106  1  0.21352167  0.09295356  0.68079845  1  -0.114518  0  -0.08288  -0.070462  0  3.990851  0
C  C107  1  0.12120206  0.90712138  0.81919018  1  -0.076182  0  -0.083055  -0.071211  0  3.990396  0
C  C108  1  0.82607338  0.85206614  0.27289480  1  0.005476  0  -0.102333  -0.19261  0  3.98804  0
C  C109  1  0.97354730  0.14781773  0.22710477  1  0.002022  0  -0.102383  -0.191346  0  3.987416  0
C  C110  1  0.17392291  0.14793475  0.72710656  1  0.006235  0  -0.102389  -0.192687  0  3.988078  0
C  C111  1  0.02645473  0.85218248  0.77289524  1  0.001991  0  -0.102346  -0.191314  0  3.987374  0
C  C112  1  0.71405442  0.76543816  0.25480923  1  0.265514  0  0.097451  0.198391  0  4.028204  0
C  C113  1  0.94848360  0.23451493  0.24524551  1  0.259005  0  0.097649  0.196551  0  4.028232  0
C  C114  1  0.28593997  0.23456136  0.74519205  1  0.265165  0  0.09736  0.19824  0  4.028029  0
C  C115  1  0.05152208  0.76548528  0.75475321  1  0.259523  0  0.097676  0.196557  0  4.028096  0
C  C116  1  0.56148006  0.73609429  0.28439274  1  0.008737  0  -0.110057  -0.207067  0  4.025595  0
C  C117  1  0.82527906  0.26391784  0.21571411  1  -0.031291  0  -0.109128  -0.203503  0  4.022896  0
C  C118  1  0.43851467  0.26390592  0.71560901  1  0.009208  0  -0.110049  -0.207069  0  4.025473  0
C  C119  1  0.17472680  0.73608030  0.78428405  1  -0.031237  0  -0.109051  -0.203361  0  4.022628  0
C  C120  1  0.52416000  0.79133700  0.33085995  1  -0.079069  0  -0.089377  -0.081829  0  4.014168  0
C  C121  1  0.73252516  0.20868927  0.16928609  1  -0.050759  0  -0.089871  -0.083263  0  4.015364  0
C  C122  1  0.47582984  0.20866803  0.66913773  1  -0.079701  0  -0.089368  -0.081671  0  4.013971  0
C  C123  1  0.26748140  0.79131024  0.83071345  1  -0.0508  0  -0.089847  -0.083113  0  4.015178  0
C  C124  1  0.69513647  0.61249125  0.20358814  1  0.27584  0  0.093114  0.184627  0  4.03107  0
C  C125  1  0.08245398  0.38745872  0.29647634  1  0.298602  0  0.092133  0.185486  0  4.029422  0
C  C126  1  0.30486956  0.38750965  0.79641539  1  0.275683  0  0.093153  0.184737  0  4.030876  0
C  C127  1  0.91755188  0.61253942  0.70352443  1  0.298548  0  0.092166  0.185616  0  4.029402  0
C  C128  1  0.64899579  0.56348889  0.14873181  1  0.03984  0  -0.101591  -0.186325  0  3.993817  0
C  C129  1  0.08510135  0.43642948  0.35133141  1  -0.06538  0  -0.101354  -0.186886  0  3.993814  0
C  C130  1  0.35100937  0.43651270  0.85127132  1  0.039487  0  -0.101648  -0.186439  0  3.993837  0
C  C131  1  0.91490711  0.56357142  0.64866952  1  -0.065213  0  -0.101288  -0.186784  0  3.993802  0
C  C132  1  0.59055353  0.46757171  0.14397236  1  -0.12685  0  -0.098264  -0.075626  0  4.05289  0
C  C133  1  0.12271113  0.53236154  0.35609517  1  -0.043109  0  -0.098318  -0.07627  0  4.053331  0
C  C134  1  0.40945337  0.53242850  0.85602939  1  -0.126287  0  -0.098302  -0.075655  0  4.052706  0
C  C135  1  0.87728968  0.46763867  0.64390441  1  -0.043092  0  -0.098286  -0.07618  0  4.053378  0
C  C136  1  0.57530925  0.41906732  0.19353011  1  -0.077095  0  -0.102712  -0.108564  0  4.021306  0
C  C137  1  0.15628319  0.58089171  0.30655199  1  -0.075253  0  -0.102385  -0.106656  0  4.021873  0
C  C138  1  0.42470095  0.58093220  0.80647030  1  -0.077839  0  -0.102684  -0.108528  0  4.021185  0
C  C139  1  0.84371450  0.41910712  0.69344752  1  -0.075292  0  -0.102437  -0.10685  0  4.022035  0
C  C140  1  0.62504190  0.46765400  0.24791289  1  -0.026885  0  -0.093294  -0.068397  0  4.036253  0
C  C141  1  0.15752328  0.53232294  0.25216202  1  -0.035902  0  -0.093485  -0.068902  0  4.036079  0
C  C142  1  0.37496240  0.53234345  0.75208828  1  -0.026529  0  -0.09334  -0.068527  0  4.036292  0
C  C143  1  0.84247650  0.46767520  0.74783701  1  -0.035903  0  -0.093459  -0.068761  0  4.036233  0
C  C144  1  0.68559016  0.56335612  0.25302868  1  -0.022544  0  -0.097883  -0.175445  0  3.98775  0
C  C145  1  0.12221859  0.43662460  0.24704148  1  -0.036819  0  -0.097081  -0.175369  0  3.987174  0
C  C146  1  0.31440928  0.43664133  0.74697379  1  -0.022192  0  -0.097838  -0.175279  0  3.987625  0
C  C147  1  0.87778970  0.56337354  0.75295842  1  -0.036842  0  -0.097135  -0.175483  0  3.987181  0
C  C148  1  0.87261090  0.75213268  0.16692842  1  0.302606  0  0.091896  0.178986  0  4.0441  0
C  C149  1  0.12054632  0.24779052  0.33309086  1  0.276849  0  0.091458  0.178212  0  4.044935  0
C  C150  1  0.12739062  0.24786408  0.83307227  1  0.302674  0  0.091924  0.17895  0  4.044128  0
C  C151  1  0.87945537  0.75220900  0.66690824  1  0.276173  0  0.091407  0.178179  0  4.04493  0
C  C152  1  0.84555517  0.82362706  0.13670661  1  -0.03328  0  -0.091874  -0.177309  0  3.984929  0
C  C153  1  0.02195159  0.17621507  0.36325694  1  -0.016396  0  -0.092177  -0.177417  0  3.985084  0
C  C154  1  0.15444011  0.17636694  0.86329480  1  -0.034179  0  -0.091899  -0.17739  0  3.984914  0
C  C155  1  0.97804661  0.82378721  0.63674493  1  -0.01562  0  -0.092126  -0.177348  0  3.985024  0
C  C156  1  0.96893962  0.86880232  0.10004094  1  -0.030065  0  -0.08351  -0.079576  0  3.975678  0
C  C157  1  0.10014247  0.13101701  0.39988950  1  -0.066257  0  -0.082837  -0.078507  0  3.975181  0
C  C158  1  0.03105792  0.13119375  0.89996058  1  -0.029231  0  -0.08346  -0.079318  0  3.975273  0
C  C159  1  0.89985901  0.86898941  0.60011304  1  -0.066591  0  -0.082905  -0.078671  0  3.975254  0
C  C160  1  0.11941549  0.84284301  0.09278867  1  -0.009625  0  -0.022955  -0.049405  0  3.977335  0
C  C161  1  0.27657194  0.15694291  0.40709326  1  0.01671  0  -0.023945  -0.050331  0  3.978646  0
C  C162  1  0.88058255  0.15715650  0.90721131  1  -0.009893  0  -0.022964  -0.049598  0  3.977265  0
C  C163  1  0.72342659  0.84306488  0.59291022  1  0.016803  0  -0.023925  -0.050253  0  3.978622  0
C  C164  1  0.14374220  0.76993077  0.12214331  1  -0.08201  0  -0.085744  -0.078813  0  4.002846  0
C  C165  1  0.37390093  0.22991340  0.37778196  1  -0.077992  0  -0.084618  -0.076244  0  3.999632  0
C  C166  1  0.85625376  0.23006461  0.87785470  1  -0.081784  0  -0.085725  -0.078729  0  4.002857  0
C  C167  1  0.62610352  0.77009163  0.62221919  1  -0.07803  0  -0.084597  -0.076339  0  3.999736  0
C  C168  1  0.02115120  0.72450346  0.15891026  1  -0.013175  0  -0.095918  -0.177697  0  3.99768  0
C  C169  1  0.29675270  0.27540633  0.34108083  1  0.00937  0  -0.097029  -0.179322  0  3.998928  0
C  C170  1  0.97885379  0.27549537  0.84109272  1  -0.013249  0  -0.095985  -0.177734  0  3.99773  0
C  C171  1  0.70324983  0.72459732  0.65891895  1  0.009381  0  -0.097024  -0.17927  0  3.9989  0
C  C172  1  0.25573977  0.89452371  0.05575602  1  1.57515  0  0.212903  0.591552  0  4.18379  0
C  C173  1  0.36100223  0.10516801  0.44410016  1  1.579701  0  0.212196  0.590443  0  4.184882  0
C  C174  1  0.74426314  0.10547581  0.94424743  1  1.575207  0  0.213011  0.591739  0  4.183552  0
C  C175  1  0.63899040  0.89483772  0.55590364  1  1.579261  0  0.212279  0.590501  0  4.184636  0
C  C176  1  0.97877378  0.16786088  0.55867967  1  0.48725  0  0.062744  0.12067  0  3.890607  0
C  C177  1  0.81097937  0.83216240  0.94138656  1  0.495885  0  0.063277  0.120879  0  3.89032  0
C  C178  1  0.02123032  0.83214346  0.44131667  1  0.487366  0  0.062773  0.120789  0  3.890199  0
C  C179  1  0.18902716  0.16784194  0.05861369  1  0.495918  0  0.063314  0.120958  0  3.890193  0
C  C180  1  0.11100854  0.24221967  0.58024327  1  0.008123  0  -0.082526  -0.180506  0  3.925888  0
C  C181  1  0.86893341  0.75782485  0.91977235  1  0.003147  0  -0.082153  -0.179049  0  3.924884  0
C  C182  1  0.88900026  0.75778191  0.41975161  1  0.008217  0  -0.082375  -0.180505  0  3.925478  0
C  C183  1  0.13107190  0.24217949  0.08022573  1  0.003193  0  -0.082162  -0.179083  0  3.924857  0
C  C184  1  0.12923367  0.32823006  0.55954817  1  -0.071979  0  0.015826  0.147477  0  3.951527  0
C  C185  1  0.80104960  0.67176337  0.94041327  1  -0.042236  0  0.014922  0.14499  0  3.948975  0
C  C186  1  0.87076696  0.67177222  0.44045153  1  -0.07179  0  0.015776  0.147478  0  3.951352  0
C  C187  1  0.19895693  0.32824097  0.05958481  1  -0.042237  0  0.014832  0.144889  0  3.94894  0
C  C188  1  0.01187539  0.33606473  0.51751426  1  0.014983  0  -0.084748  -0.187582  0  3.97427  0
C  C189  1  0.67582215  0.66393300  0.98247141  1  0.00945  0  -0.084949  -0.186386  0  3.97403  0
C  C190  1  0.98811618  0.66394375  0.48248839  1  0.014284  0  -0.084772  -0.187651  0  3.974514  0
C  C191  1  0.32418334  0.33606927  0.01752656  1  0.009828  0  -0.084825  -0.18619  0  3.973931  0
C  C192  1  0.88218408  0.25910058  0.49850536  1  0.490223  0  0.049831  0.092213  0  3.946694  0
C  C193  1  0.62312847  0.74088070  0.00155880  1  0.443241  0  0.050224  0.092538  0  3.948164  0
C  C194  1  0.11779830  0.74090653  0.50150025  1  0.490485  0  0.049783  0.092179  0  3.946796  0
C  C195  1  0.37688311  0.25912158  0.99844090  1  0.44325  0  0.05019  0.092493  0  3.948077  0
C  C196  1  0.45108230  0.40241836  0.49951202  1  0.293215  0  -0.069751  -0.071986  0  3.939547  0
C  C197  1  0.04855660  0.59757525  0.00048271  1  0.307731  0  -0.070232  -0.07232  0  3.938246  0
C  C198  1  0.54891503  0.59758461  0.50048685  1  0.293381  0  -0.069789  -0.071936  0  3.939323  0
C  C199  1  0.95144785  0.40242978  0.99951540  1  0.307377  0  -0.070197  -0.072266  0  3.93821  0
C  C200  1  0.53200134  0.45121300  0.44757676  1  0.29483  0  -0.068871  -0.078035  0  3.976342  0
C  C201  1  0.08060705  0.54877179  0.05240800  1  0.332326  0  -0.070058  -0.079717  0  3.976409  0
C  C202  1  0.46799564  0.54878927  0.55242207  1  0.294849  0  -0.068829  -0.077977  0  3.976171  0
C  C203  1  0.91939895  0.45123392  0.94759059  1  0.332594  0  -0.070058  -0.079591  0  3.976434  0
C  C204  1  0.27082498  0.41080469  0.58113562  1  0.280085  0  -0.058656  -0.112122  0  3.968507  0
C  C205  1  0.85998949  0.58913567  0.91883142  1  0.318442  0  -0.059478  -0.111729  0  3.963875  0
C  C206  1  0.72917965  0.58919828  0.41886412  1  0.280592  0  -0.058597  -0.111947  0  3.968378  0
C  C207  1  0.14002016  0.41087005  0.08116543  1  0.318292  0  -0.059497  -0.111617  0  3.963998  0
N  N208  1  0.75360315  0.70987012  0.20792134  1  -1.25321  0  -0.256511  -0.16052  0  3.676717  0
N  N209  1  0.04375307  0.29006491  0.29211675  1  -1.24935  0  -0.256264  -0.160596  0  3.675851  0
N  N210  1  0.24639888  0.29013009  0.79208172  1  -1.252807  0  -0.256451  -0.16049  0  3.676531  0
N  N211  1  0.95625279  0.70993322  0.70788272  1  -1.249456  0  -0.256312  -0.160729  0  3.675856  0
N  N212  1  0.86634324  0.17626705  0.51863333  1  -1.271145  0  -0.326112  -0.210897  0  3.537802  0
N  N213  1  0.69011352  0.82373237  0.98143779  1  -1.264224  0  -0.326116  -0.210342  0  3.538231  0
N  N214  1  0.13365182  0.82373867  0.48136786  1  -1.271035  0  -0.325992  -0.210745  0  3.537693  0
N  N215  1  0.30989388  0.17627129  0.01856372  1  -1.26436  0  -0.32616  -0.210437  0  3.538396  0
N  N216  1  0.35693847  0.45822682  0.53283843  1  -1.024364  0  -0.346164  -0.150954  0  3.499024  0
N  N217  1  0.89865992  0.54174974  0.96715148  1  -1.044291  0  -0.34516  -0.150063  0  3.496652  0
N  N218  1  0.64306337  0.54177545  0.46716126  1  -1.024399  0  -0.346136  -0.151046  0  3.499082  0
N  N219  1  0.10134695  0.45825529  0.03284620  1  -1.044405  0  -0.345179  -0.150155  0  3.496801  0
O  O220  1  0.38085215  0.86126114  0.04569894  1  -1.171801  0  -0.31952  -0.552864  0  2.333419  0
O  O221  1  0.51941367  0.13836343  0.45413949  1  -1.16719  0  -0.31946  -0.55279  0  2.332846  0
O  O222  1  0.61913754  0.13874113  0.95429598  1  -1.17188  0  -0.319613  -0.553041  0  2.333188  0
O  O223  1  0.48057865  0.86163195  0.54585938  1  -1.166924  0  -0.31962  -0.552861  0  2.332537  0
O  O224  1  0.23682990  0.96834457  0.03772770  1  -1.176284  0  -0.313892  -0.5482  0  2.346967  0
O  O225  1  0.26818847  0.03139323  0.46215654  1  -1.179454  0  -0.313152  -0.54714  0  2.347609  0
O  O226  1  0.76317660  0.03166944  0.96228220  1  -1.17632  0  -0.313927  -0.548182  0  2.347176  0
O  O227  1  0.73178834  0.96861250  0.53784683  1  -1.179403  0  -0.31313  -0.547191  0  2.347817  0
O  O228  1  0.45560604  0.90030523  0.42513307  1  -1.182653  0  -0.323615  -0.56673  0  2.353726  0
O  O229  1  0.55490395  0.10004357  0.07496189  1  -1.180346  0  -0.32427  -0.56749  0  2.352432  0
O  O230  1  0.54437585  0.09969360  0.57486861  1  -1.182821  0  -0.323495  -0.566476  0  2.353937  0
O  O231  1  0.44510375  0.89997042  0.92503499  1  -1.181069  0  -0.324277  -0.567478  0  2.352418  0
O  O232  1  0.70683241  0.00759490  0.41894066  1  -1.176048  0  -0.318315  -0.542233  0  2.31604  0
O  O233  1  0.69855411  0.99257507  0.08103408  1  -1.172521  0  -0.318512  -0.542501  0  2.315599  0
O  O234  1  0.29315557  0.99239910  0.58106031  1  -1.176101  0  -0.318331  -0.54226  0  2.315966  0
O  O235  1  0.30142862  0.00742789  0.91896479  1  -1.172232  0  -0.318518  -0.542506  0  2.315312  0
