# generated using pymatgen
data_ZnH9C19NO8
_symmetry_space_group_name_H-M   'P 1'
_cell_length_a   9.43446796
_cell_length_b   10.89168999
_cell_length_c   16.10430192
_cell_angle_alpha   89.27350430
_cell_angle_beta   87.68879053
_cell_angle_gamma   90.20327546
_symmetry_Int_Tables_number   1
_chemical_formula_structural   ZnH9C19NO8
_chemical_formula_sum   'Zn2 H18 C38 N2 O16'
_cell_volume   1653.34185574
_cell_formula_units_Z   2
loop_
 _symmetry_equiv_pos_site_id
 _symmetry_equiv_pos_as_xyz
  1  'x, y, z'
loop_
 _atom_site_type_symbol
 _atom_site_label
 _atom_site_symmetry_multiplicity
 _atom_site_fract_x
 _atom_site_fract_y
 _atom_site_fract_z
 _atom_site_occupancy
 _atom_site_pbe_bader_charge
 _atom_site_pbe_bader_spin_density
 _atom_site_pbe_cm5_charge
 _atom_site_pbe_ddec_charge
 _atom_site_pbe_ddec_spin_density
 _atom_site_pbe_ddec_sum_bond_order
 _atom_site_pbe_magmom
Zn  Zn0  1  0.64320566  0.50544964  0.50426155  1  1.261621  0  0.664598  0.786788  0  2.481787  0
Zn  Zn1  1  0.35679850  0.49456235  0.49573880  1  1.259874  0  0.664696  0.786926  0  2.481533  0
H  H2  1  0.25533906  0.73174893  0.04855341  1  0.055419  0  0.108668  0.044489  0  0.94263  0
H  H3  1  0.74466847  0.26822886  0.95137686  1  0.055102  0  0.108689  0.044319  0  0.942723  0
H  H4  1  0.58836053  0.68616071  0.92950243  1  0.116624  0  0.123458  0.128871  0  0.953272  0
H  H5  1  0.41162775  0.31381083  0.07049767  1  0.116312  0  0.123511  0.1289  0  0.953363  0
H  H6  1  0.14079402  0.44897489  0.04065600  1  0.094662  0  0.103716  0.042718  0  0.972493  0
H  H7  1  0.85918271  0.55102786  0.95934039  1  0.094499  0  0.103741  0.042748  0  0.972524  0
H  H8  1  0.35027734  0.09128544  0.60957540  1  0.078591  0  0.112221  0.10937  0  0.969776  0
H  H9  1  0.64973160  0.90872366  0.39044106  1  0.078896  0  0.112211  0.109292  0  0.969659  0
H  H10  1  0.63827041  0.98293700  0.69480593  1  0.061521  0  0.102894  0.036959  0  0.950494  0
H  H11  1  0.36175553  0.01706206  0.30520973  1  0.061918  0  0.102818  0.036931  0  0.950257  0
H  H12  1  0.74896051  0.05844298  0.51937278  1  0.095424  0  0.10477  0.105904  0  0.9909  0
H  H13  1  0.25104747  0.94156614  0.48064058  1  0.095618  0  0.104792  0.105906  0  0.990833  0
H  H14  1  0.91377233  0.69346536  0.55512869  1  0.171534  0  0.136805  0.126156  0  0.939014  0
H  H15  1  0.08622693  0.30655040  0.44485929  1  0.171703  0  0.136812  0.126308  0  0.938999  0
H  H16  1  0.21229056  0.66193628  0.35771491  1  0.140595  0  0.116597  0.073538  0  0.970291  0
H  H17  1  0.78771722  0.33808044  0.64227172  1  0.140644  0  0.116639  0.073594  0  0.970353  0
H  H18  1  0.89390106  0.48005535  0.36648584  1  0.179433  0  0.135767  0.133578  0  0.952192  0
H  H19  1  0.10610141  0.51995309  0.63350151  1  0.179644  0  0.135766  0.133732  0  0.952277  0
C  C20  1  0.48250814  0.73885890  0.50444809  1  1.58863  0  0.219201  0.60086  0  4.182079  0
C  C21  1  0.51748083  0.26114926  0.49556303  1  1.588919  0  0.219329  0.601101  0  4.181547  0
C  C22  1  0.41595134  0.04973292  0.56008064  1  0.002702  0  -0.053751  -0.062177  0  3.577024  0
C  C23  1  0.58405440  0.95027524  0.43993648  1  0.002318  0  -0.053662  -0.061815  0  3.576498  0
C  C24  1  0.51474944  0.12464654  0.49730287  1  -0.022639  0  -0.002247  -0.041137  0  3.6537  0
C  C25  1  0.48527334  0.87536079  0.50271156  1  -0.022216  0  -0.002308  -0.041397  0  3.653823  0
C  C26  1  0.63844792  0.03279146  0.51067032  1  -0.030238  0  -0.067756  -0.084156  0  3.611572  0
C  C27  1  0.36155554  0.96722215  0.48935177  1  -0.029475  0  -0.067756  -0.084069  0  3.611672  0
C  C28  1  0.05191661  0.59150749  0.45118579  1  0.193574  0  0.095013  0.094104  0  3.594044  0
C  C29  1  0.94808484  0.40850280  0.54880032  1  0.193784  0  0.094959  0.094676  0  3.593812  0
C  C30  1  0.95832998  0.60785001  0.53131540  1  0.190063  0  0.041227  0.029286  0  3.531793  0
C  C31  1  0.04167146  0.39216303  0.46867069  1  0.190383  0  0.04127  0.028826  0  3.532212  0
C  C32  1  0.94834927  0.48740938  0.42483916  1  0.196865  0  0.045041  0.031898  0  3.486837  0
C  C33  1  0.05165424  0.51259997  0.57514879  1  0.19584  0  0.045025  0.031319  0  3.487117  0
C  C34  1  0.52248457  0.50941199  0.33610637  1  1.694929  0  0.224809  0.669963  0  4.241972  0
C  C35  1  0.47751961  0.49059816  0.66389337  1  1.694816  0  0.224618  0.66981  0  4.242165  0
C  C36  1  0.55030200  0.60218772  0.96104548  1  -0.019649  0  -0.043215  -0.093588  0  3.564627  0
C  C37  1  0.44968632  0.39778199  0.03895339  1  -0.01938  0  -0.043473  -0.094002  0  3.564706  0
C  C38  1  0.43232033  0.59894605  0.03305604  1  -0.017309  0  0.014769  0.004461  0  3.599016  0
C  C39  1  0.56767222  0.40101450  0.96694343  1  -0.018108  0  0.01497  0.004771  0  3.598499  0
C  C40  1  0.53400715  0.51021444  0.24652057  1  0.226712  0  -0.031538  -0.153801  0  3.949071  0
C  C41  1  0.46599173  0.48978101  0.75347930  1  0.226711  0  -0.031445  -0.153636  0  3.948837  0
C  C42  1  0.64378084  0.51144076  0.01133384  1  -0.006746  0  0.002598  -0.019265  0  3.641724  0
C  C43  1  0.35621605  0.48852993  0.98866243  1  -0.006106  0  0.002653  -0.019042  0  3.641891  0
C  C44  1  0.52604913  0.50545232  0.08397408  1  0.149456  0  0.025164  0.107489  0  3.78819  0
C  C45  1  0.47393269  0.49452375  0.91602919  1  0.149268  0  0.025234  0.107244  0  3.788688  0
C  C46  1  0.53936792  0.50970908  0.17093953  1  -0.489779  0  -0.032823  -0.048259  0  4.078263  0
C  C47  1  0.46062036  0.49026980  0.82906054  1  -0.489854  0  -0.032983  -0.048455  0  4.078243  0
C  C48  1  0.54194105  0.95603810  0.57470550  1  -0.03736  0  -5.5e-05  0.020187  0  3.64378  0
C  C49  1  0.45806053  0.04396640  0.42530920  1  -0.037154  0  -5.2e-05  0.019921  0  3.644265  0
C  C50  1  0.36532899  0.71135941  0.06800938  1  0.981719  0  0.111293  0.278519  0  3.944765  0
C  C51  1  0.63464400  0.28860950  0.93197228  1  0.984195  0  0.111482  0.279133  0  3.944516  0
C  C52  1  0.19983128  0.48104705  0.98271390  1  0.908464  0  0.105042  0.274629  0  3.958485  0
C  C53  1  0.80016134  0.51895300  0.01728292  1  0.908523  0  0.105031  0.274734  0  3.95891  0
C  C54  1  0.57773162  0.91430152  0.65885577  1  0.967562  0  0.102306  0.271099  0  3.979336  0
C  C55  1  0.42229843  0.08570303  0.34116355  1  0.966547  0  0.102393  0.271091  0  3.979515  0
C  C56  1  0.11620528  0.68919719  0.39514925  1  0.959784  0  0.115427  0.271287  0  3.906911  0
C  C57  1  0.88379829  0.31082229  0.60483679  1  0.959813  0  0.115184  0.270879  0  3.907213  0
N  N58  1  0.85725624  0.50580566  0.50503015  1  -0.840954  0  -0.303211  -0.182903  0  3.053386  0
N  N59  1  0.14275155  0.49420372  0.49495651  1  -0.839919  0  -0.303086  -0.18262  0  3.05336  0
O  O60  1  0.60377448  0.68798101  0.50698788  1  -1.151857  0  -0.316575  -0.541539  0  2.327466  0
O  O61  1  0.39622527  0.31202449  0.49301753  1  -1.152359  0  -0.316729  -0.541703  0  2.327384  0
O  O62  1  0.36362695  0.68399847  0.50094553  1  -1.149251  0  -0.31247  -0.540884  0  2.317366  0
O  O63  1  0.63637491  0.31601437  0.49906043  1  -1.149476  0  -0.312543  -0.54109  0  2.31714  0
O  O64  1  0.63729640  0.50905788  0.37485196  1  -1.148837  0  -0.306419  -0.540902  0  2.277191  0
O  O65  1  0.36272371  0.49096887  0.62514689  1  -1.148619  0  -0.306453  -0.540842  0  2.277516  0
O  O66  1  0.39675109  0.50990864  0.36827678  1  -1.15152  0  -0.310952  -0.546519  0  2.27751  0
O  O67  1  0.60326666  0.49008956  0.63172967  1  -1.151638  0  -0.310741  -0.546455  0  2.27731  0
O  O68  1  0.42685749  0.77881555  0.11486257  1  -1.044357  0  -0.252232  -0.335972  0  2.081246  0
O  O69  1  0.57306663  0.22114275  0.88515453  1  -1.044995  0  -0.252484  -0.336393  0  2.08106  0
O  O70  1  0.13613964  0.50941676  0.92058844  1  -1.065556  0  -0.258148  -0.351186  0  2.105856  0
O  O71  1  0.86385493  0.49060712  0.07941323  1  -1.065366  0  -0.258196  -0.35133  0  2.106079  0
O  O72  1  0.54279810  0.81489702  0.68983127  1  -1.077855  0  -0.266039  -0.354564  0  2.11046  0
O  O73  1  0.45724066  0.18509753  0.31018114  1  -1.077852  0  -0.266087  -0.354526  0  2.110395  0
O  O74  1  0.06136638  0.79032577  0.38988895  1  -1.062412  0  -0.253966  -0.345124  0  2.08998  0
O  O75  1  0.93862866  0.20968723  0.61009847  1  -1.062377  0  -0.253806  -0.344964  0  2.090176  0
