# generated using pymatgen
data_CdH14C10N4Cl2O
_symmetry_space_group_name_H-M   'P 1'
_cell_length_a   7.30419056
_cell_length_b   9.74636464
_cell_length_c   10.45218577
_cell_angle_alpha   90.22362556
_cell_angle_beta   98.35090626
_cell_angle_gamma   112.19227512
_symmetry_Int_Tables_number   1
_chemical_formula_structural   CdH14C10N4Cl2O
_chemical_formula_sum   'Cd2 H28 C20 N8 Cl4 O2'
_cell_volume   680.25457572
_cell_formula_units_Z   2
loop_
 _symmetry_equiv_pos_site_id
 _symmetry_equiv_pos_as_xyz
  1  'x, y, z'
loop_
 _atom_site_type_symbol
 _atom_site_label
 _atom_site_symmetry_multiplicity
 _atom_site_fract_x
 _atom_site_fract_y
 _atom_site_fract_z
 _atom_site_occupancy
 _atom_site_hle17_bader_spin_density
 _atom_site_hle17_ddec_charge
 _atom_site_hle17_ddec_spin_density
 _atom_site_hle17_ddec_sum_bond_order
 _atom_site_hle17_magmom
 _atom_site_hse06_10hf_bader_spin_density
 _atom_site_hse06_10hf_ddec_charge
 _atom_site_hse06_10hf_ddec_spin_density
 _atom_site_hse06_10hf_ddec_sum_bond_order
 _atom_site_hse06_10hf_magmom
 _atom_site_hse06_bader_spin_density
 _atom_site_hse06_ddec_charge
 _atom_site_hse06_ddec_spin_density
 _atom_site_hse06_ddec_sum_bond_order
 _atom_site_hse06_magmom
 _atom_site_pbe_bader_spin_density
 _atom_site_pbe_cm5_charge
 _atom_site_pbe_ddec_charge
 _atom_site_pbe_ddec_spin_density
 _atom_site_pbe_ddec_sum_bond_order
 _atom_site_pbe_magmom
Cd  Cd0  1  0.74879966  0.04082068  0.41964908  1  0  0.986326  0  1.897214  0  0  0.820595  0  2.348323  0  0  0.866612  0  2.309377  0  0  0.609564  0.787715  0  2.375052  0
Cd  Cd1  1  0.25119729  0.95917597  0.58035262  1  0  0.986303  0  1.897218  0  0  0.820579  0  2.348319  0  0  0.866596  0  2.309373  0  0  0.609567  0.787711  0  2.375026  0
H  H2  1  0.03633189  0.90879127  0.25713320  1  0  0.093862  0  1.002055  0  0  0.096465  0  1.081321  0  0  0.099382  0  1.077578  0  0  0.111409  0.094339  0  1.083993  0
H  H3  1  0.96367621  0.09121109  0.74286493  1  0  0.093786  0  1.001999  0  0  0.096371  0  1.081334  0  0  0.09929  0  1.077587  0  0  0.111394  0.094246  0  1.08401  0
H  H4  1  0.48308728  0.93409606  0.10481507  1  0  0.096028  0  0.978571  0  0  0.104203  0  1.043722  0  0  0.106206  0  1.043395  0  0  0.107761  0.10273  0  1.044037  0
H  H5  1  0.51691994  0.06590727  0.89519064  1  0  0.096057  0  0.978545  0  0  0.104204  0  1.043725  0  0  0.106204  0  1.043416  0  0  0.107779  0.102732  0  1.044041  0
H  H6  1  0.61553219  0.81301246  0.91107893  1  0  0.1244  0  0.965965  0  0  0.129672  0  1.032874  0  0  0.13316  0  1.030268  0  0  0.121144  0.127171  0  1.034696  0
H  H7  1  0.38446949  0.18699086  0.08892335  1  0  0.124445  0  0.965986  0  0  0.12972  0  1.032893  0  0  0.133208  0  1.030288  0  0  0.121157  0.127238  0  1.034686  0
H  H8  1  0.11607002  0.79838907  0.07792421  1  0  0.087405  0  0.923951  0  0  0.103503  0  0.987149  0  0  0.103981  0  0.987008  0  0  0.115038  0.102983  0  0.987501  0
H  H9  1  0.88393280  0.20161104  0.92207240  1  0  0.087487  0  0.923955  0  0  0.103636  0  0.987102  0  0  0.104115  0  0.986961  0  0  0.115119  0.103115  0  0.987455  0
H  H10  1  0.03654052  0.85030521  0.92268352  1  0  0.093574  0  0.937414  0  0  0.106925  0  1.000068  0  0  0.1073  0  1.001113  0  0  0.114985  0.106533  0  0.999393  0
H  H11  1  0.96345896  0.14969376  0.07731273  1  0  0.093595  0  0.937462  0  0  0.106971  0  1.000115  0  0  0.107346  0  1.001162  0  0  0.114991  0.106577  0  0.999441  0
H  H12  1  0.98508701  0.58136588  0.92909224  1  0  0.04023  0  0.957131  0  0  0.053723  0  1.02736  0  0  0.05381  0  1.027573  0  0  0.095709  0.053559  0  1.0273  0
H  H13  1  0.01490439  0.41863073  0.07090795  1  0  0.040245  0  0.957045  0  0  0.053737  0  1.027264  0  0  0.053825  0  1.027481  0  0  0.095714  0.053572  0  1.027205  0
H  H14  1  0.80610563  0.55694781  0.03687852  1  0  0.043453  0  0.935119  0  0  0.054684  0  1.007156  0  0  0.055706  0  1.00595  0  0  0.09412  0.053673  0  1.008249  0
H  H15  1  0.19389048  0.44305547  0.96312225  1  0  0.043492  0  0.935093  0  0  0.054717  0  1.007117  0  0  0.055741  0  1.005909  0  0  0.094153  0.053706  0  1.008211  0
H  H16  1  0.50086244  0.41083803  0.86899430  1  0  0.045964  0  0.940559  0  0  0.058238  0  1.009336  0  0  0.058835  0  1.009373  0  0  0.09206  0.057717  0  1.009481  0
H  H17  1  0.49913259  0.58916308  0.13100346  1  0  0.045957  0  0.940536  0  0  0.058228  0  1.009363  0  0  0.058822  0  1.009402  0  0  0.092072  0.057707  0  1.009508  0
H  H18  1  0.69855238  0.39963993  0.79240336  1  0  0.055782  0  0.926918  0  0  0.071393  0  0.991676  0  0  0.071721  0  0.99155  0  0  0.096098  0.070966  0  0.992055  0
H  H19  1  0.30144596  0.60036226  0.20759857  1  0  0.055775  0  0.926779  0  0  0.071398  0  0.991567  0  0  0.071732  0  0.991434  0  0  0.096111  0.070972  0  0.991947  0
H  H20  1  0.61044637  0.53088600  0.60710206  1  0  0.090902  0  0.930616  0  0  0.104065  0  0.995915  0  0  0.104858  0  0.995783  0  0  0.112372  0.103398  0  0.996197  0
H  H21  1  0.38955725  0.46911846  0.39289948  1  0  0.090893  0  0.9307  0  0  0.104052  0  0.99597  0  0  0.104845  0  0.995843  0  0  0.11239  0.103385  0  0.996254  0
H  H22  1  0.41134507  0.35959335  0.62477342  1  0  0.097394  0  0.963421  0  0  0.108644  0  1.031733  0  0  0.109628  0  1.031509  0  0  0.100997  0.107691  0  1.032385  0
H  H23  1  0.58865971  0.64040790  0.37522244  1  0  0.097427  0  0.963415  0  0  0.108656  0  1.031728  0  0  0.109642  0  1.031505  0  0  0.100951  0.107706  0  1.032378  0
H  H24  1  0.57005328  0.77441975  0.65043795  1  0  0.092918  0  0.99393  0  0  0.096535  0  1.071048  0  0  0.099538  0  1.067035  0  0  0.112435  0.094382  0  1.073794  0
H  H25  1  0.42994034  0.22558132  0.34956157  1  0  0.09295  0  0.993875  0  0  0.096536  0  1.071036  0  0  0.099541  0  1.067021  0  0  0.112439  0.094383  0  1.073781  0
H  H26  1  0.95303950  0.60930650  0.67302129  1  0  0.102504  0  0.981058  0  0  0.110293  0  1.045351  0  0  0.113255  0  1.043409  0  0  0.106907  0.108206  0  1.046766  0
H  H27  1  0.04695412  0.39068351  0.32697901  1  0  0.102503  0  0.981104  0  0  0.110288  0  1.045399  0  0  0.113262  0  1.043442  0  0  0.106899  0.108202  0  1.046813  0
H  H28  1  0.08030054  0.37235824  0.67628879  1  0  0.115185  0  0.975408  0  0  0.119723  0  1.047867  0  0  0.122601  0  1.046283  0  0  0.110207  0.11764  0  1.049153  0
H  H29  1  0.91970226  0.62763628  0.32371156  1  0  0.115229  0  0.975422  0  0  0.119771  0  1.047856  0  0  0.122654  0  1.046263  0  0  0.110235  0.117686  0  1.049153  0
C  C30  1  0.90142607  0.89969747  0.19155332  1  0  0.145413  0  3.664147  0  0  0.08542  0  3.932001  0  0  0.098646  0  3.945093  0  0  0.130323  0.076908  0  3.922819  0
C  C31  1  0.09858259  0.10030600  0.80844488  1  0  0.145418  0  3.664075  0  0  0.085438  0  3.931916  0  0  0.098665  0  3.945006  0  0  0.130232  0.076921  0  3.922737  0
C  C32  1  0.61765201  0.91138534  0.10734828  1  0  -0.009992  0  3.78374  0  0  -0.040866  0  4.048014  0  0  -0.038686  0  4.067942  0  0  -0.009277  -0.042311  0  4.03452  0
C  C33  1  0.38235303  0.08861919  0.89264957  1  0  -0.010019  0  3.783755  0  0  -0.040862  0  4.048052  0  0  -0.038689  0  4.067974  0  0  -0.009215  -0.042308  0  4.034565  0
C  C34  1  0.68045371  0.85195245  0.01080520  1  0  -0.078608  0  3.670321  0  0  -0.118433  0  3.930731  0  0  -0.116356  0  3.946992  0  0  -0.006798  -0.119694  0  3.919818  0
C  C35  1  0.31955186  0.14805312  0.98919751  1  0  -0.078694  0  3.670246  0  0  -0.118531  0  3.930669  0  0  -0.116455  0  3.946933  0  0  -0.006877  -0.119808  0  3.919728  0
C  C36  1  0.98504224  0.78525083  0.00523930  1  0  -0.031073  0  3.627768  0  0  -0.094909  0  3.882827  0  0  -0.091433  0  3.893834  0  0  -0.052663  -0.097084  0  3.875269  0
C  C37  1  0.01495836  0.21475038  0.99475614  1  0  -0.031299  0  3.627924  0  0  -0.09527  0  3.883124  0  0  -0.091789  0  3.894127  0  0  -0.052799  -0.097449  0  3.875567  0
C  C38  1  0.87560824  0.62343962  0.95845100  1  0  0.072163  0  3.684586  0  0  0.01195  0  3.958387  0  0  0.018708  0  3.963492  0  0  -0.070838  0.007486  0  3.954821  0
C  C39  1  0.12439095  0.37656151  0.04154813  1  0  0.072153  0  3.684406  0  0  0.011993  0  3.95818  0  0  0.018741  0  3.963298  0  0  -0.070863  0.007522  0  3.954617  0
C  C40  1  0.60677311  0.46587138  0.80211985  1  0  0.074438  0  3.65945  0  0  0.014361  0  3.933446  0  0  0.02059  0  3.939691  0  0  -0.071563  0.010282  0  3.929106  0
C  C41  1  0.39322469  0.53412976  0.19787819  1  0  0.07452  0  3.659074  0  0  0.014339  0  3.93323  0  0  0.02057  0  3.939469  0  0  -0.071583  0.010256  0  3.928893  0
C  C42  1  0.49898684  0.47227112  0.66856124  1  0  -0.043855  0  3.636445  0  0  -0.106377  0  3.890202  0  0  -0.103046  0  3.900687  0  0  -0.061094  -0.108491  0  3.883237  0
C  C43  1  0.50101320  0.52772895  0.33143604  1  0  -0.043849  0  3.636405  0  0  -0.1063  0  3.89014  0  0  -0.102982  0  3.900643  0  0  -0.061003  -0.108419  0  3.883181  0
C  C44  1  0.41941172  0.70076765  0.66153899  1  0  0.159526  0  3.664101  0  0  0.099073  0  3.9293  0  0  0.113048  0  3.941623  0  0  0.128702  0.090301  0  3.919948  0
C  C45  1  0.58058190  0.29923341  0.33846053  1  0  0.159499  0  3.664213  0  0  0.099068  0  3.92942  0  0  0.113043  0  3.941745  0  0  0.128714  0.0903  0  3.920056  0
C  C46  1  0.10097797  0.60851910  0.67308287  1  0  -0.002235  0  3.769904  0  0  -0.034176  0  4.03366  0  0  -0.032001  0  4.053802  0  0  -0.015339  -0.035707  0  4.019999  0
C  C47  1  0.89901537  0.39147311  0.32691745  1  0  -0.002181  0  3.76994  0  0  -0.034123  0  4.033687  0  0  -0.031954  0  4.05384  0  0  -0.015308  -0.035656  0  4.020025  0
C  C48  1  0.16228493  0.49115001  0.67655039  1  0  -0.082756  0  3.685337  0  0  -0.120615  0  3.943245  0  0  -0.119573  0  3.962083  0  0  -0.010529  -0.121182  0  3.930843  0
C  C49  1  0.83771732  0.50884897  0.32344710  1  0  -0.0829  0  3.685242  0  0  -0.120757  0  3.943155  0  0  -0.119717  0  3.961996  0  0  -0.010604  -0.121326  0  3.930754  0
N  N50  1  0.75622107  0.94052406  0.21882194  1  0  -0.374566  0  3.287241  0  0  -0.301708  0  3.564829  0  0  -0.322406  0  3.584188  0  0  -0.361793  -0.287369  0  3.551426  0
N  N51  1  0.24378617  0.05947933  0.78117995  1  0  -0.374418  0  3.287434  0  0  -0.301578  0  3.564999  0  0  -0.322273  0  3.584359  0  0  -0.361734  -0.287242  0  3.551602  0
N  N52  1  0.86052756  0.84465713  0.06628891  1  0  -0.060951  0  3.563671  0  0  0.033665  0  3.783465  0  0  0.01918  0  3.809929  0  0  -0.246596  0.04311  0  3.765386  0
N  N53  1  0.13947523  0.15534844  0.93371161  1  0  -0.060884  0  3.563464  0  0  0.03376  0  3.783258  0  0  0.019274  0  3.809724  0  0  -0.246508  0.043215  0  3.765161  0
N  N54  1  0.36482930  0.55172657  0.66877896  1  0  -0.053675  0  3.554931  0  0  0.042599  0  3.767479  0  0  0.028191  0  3.793469  0  0  -0.244069  0.052168  0  3.749628  0
N  N55  1  0.63516906  0.44827015  0.33121906  1  0  -0.053672  0  3.555023  0  0  0.042581  0  3.767545  0  0  0.028175  0  3.793535  0  0  -0.24413  0.052151  0  3.749695  0
N  N56  1  0.26252118  0.73847991  0.66356764  1  0  -0.391833  0  3.252873  0  0  -0.317747  0  3.52921  0  0  -0.338729  0  3.548099  0  0  -0.365835  -0.302534  0  3.514876  0
N  N57  1  0.73747189  0.26151451  0.33643268  1  0  -0.391811  0  3.252793  0  0  -0.317712  0  3.529101  0  0  -0.338698  0  3.548  0  0  -0.365787  -0.302498  0  3.514764  0
Cl  Cl58  1  0.65622501  0.11945961  0.63800031  1  0  -0.592811  0  0.911066  0  0  -0.527844  0  1.179035  0  0  -0.545993  0  1.159317  0  0  -0.317143  -0.515394  0  1.193023  0
Cl  Cl59  1  0.34377194  0.88053704  0.36200140  1  0  -0.592811  0  0.911056  0  0  -0.52784  0  1.179009  0  0  -0.54599  0  1.159288  0  0  -0.317136  -0.515389  0  1.192996  0
Cl  Cl60  1  0.85172162  0.82476443  0.53115570  1  0  -0.580582  0  0.996744  0  0  -0.519774  0  1.285615  0  0  -0.537686  0  1.264922  0  0  -0.294433  -0.506926  0  1.299848  0
Cl  Cl61  1  0.14827588  0.17523331  0.46884704  1  0  -0.580595  0  0.996749  0  0  -0.519781  0  1.285616  0  0  -0.537696  0  1.264926  0  0  -0.294451  -0.506935  0  1.299849  0
O  O62  1  0.72918329  0.61459215  0.84998347  1  0  -0.314541  0  2.281741  0  0  -0.243277  0  2.538653  0  0  -0.259041  0  2.540564  0  0  -0.231878  -0.23227  0  2.537087  0
O  O63  1  0.27081366  0.38541003  0.15001737  1  0  -0.314592  0  2.281634  0  0  -0.243291  0  2.538558  0  0  -0.259053  0  2.540472  0  0  -0.231905  -0.232272  0  2.536986  0
