# generated using pymatgen
data_CoH14C14S2(N2O)2
_symmetry_space_group_name_H-M   'P 1'
_cell_length_a   7.74991921
_cell_length_b   7.49430965
_cell_length_c   7.74290487
_cell_angle_alpha   90.00465567
_cell_angle_beta   68.89698432
_cell_angle_gamma   86.29951776
_symmetry_Int_Tables_number   1
_chemical_formula_structural   CoH14C14S2(N2O)2
_chemical_formula_sum   'Co1 H14 C14 S2 N4 O2'
_cell_volume   418.54410935
_cell_formula_units_Z   1
loop_
 _symmetry_equiv_pos_site_id
 _symmetry_equiv_pos_as_xyz
  1  'x, y, z'
loop_
 _atom_site_type_symbol
 _atom_site_label
 _atom_site_symmetry_multiplicity
 _atom_site_fract_x
 _atom_site_fract_y
 _atom_site_fract_z
 _atom_site_occupancy
 _atom_site_pbe_cm5_charge
 _atom_site_pbe_ddec_charge
 _atom_site_pbe_ddec_spin_density
 _atom_site_pbe_ddec_sum_bond_order
 _atom_site_pbe_magmom
Co  Co0  1  0.00000095  0.00000023  0.49999857  1  0.741372  0.72221  -1.041315  3.111618  -0.967
H  H1  1  0.88743197  0.21834761  0.23816692  1  0.121987  0.097492  0.000212  1.000727  0.0
H  H2  1  0.11256760  0.78166445  0.76183913  1  0.121968  0.097512  0.000212  1.000347  0.0
H  H3  1  0.74938309  0.52631235  0.23603827  1  0.097253  0.107816  0.000145  1.036099  0.0
H  H4  1  0.25062307  0.47368399  0.76398295  1  0.097243  0.107791  0.000145  1.035892  0.0
H  H5  1  0.68487559  0.58291740  0.81146710  1  0.096613  0.106671  0.000104  1.056592  0.0
H  H6  1  0.31512029  0.41707648  0.18854462  1  0.096592  0.106671  0.000103  1.056683  0.0
H  H7  1  0.83622236  0.27645328  0.78719668  1  0.121521  0.096309  0.000188  0.998586  0.0
H  H8  1  0.16377270  0.72353828  0.21280644  1  0.121558  0.096342  0.000188  0.998665  0.0
H  H9  1  0.51527625  0.77938219  0.47434864  1  0.097346  0.077629  -0.000589  1.005305  -0.001
H  H10  1  0.48471818  0.22061808  0.52566028  1  0.097332  0.077567  -0.000589  1.005343  -0.001
H  H11  1  0.57722004  0.83171902  0.66728912  1  0.100714  0.080993  6.2e-05  1.008031  0.0
H  H12  1  0.42278089  0.16828310  0.33272405  1  0.100735  0.081032  6.2e-05  1.008062  0.0
H  H13  1  0.76749870  0.88174607  0.28684091  1  0.267652  0.294191  -0.000508  1.045215  -0.002
H  H14  1  0.23250107  0.11825564  0.71316877  1  0.267749  0.294403  -0.000508  1.04503  -0.002
C  C15  1  0.23449359  0.08990363  0.10757407  1  0.144806  0.246671  0.01119  4.340108  0.008
C  C16  1  0.76552475  0.91009885  0.89241793  1  0.144639  0.246409  0.011185  4.34084  0.008
C  C17  1  0.84321538  0.30413029  0.36160685  1  0.043684  0.082473  0.005764  3.927755  0.004
C  C18  1  0.15677655  0.69585814  0.63838068  1  0.043724  0.08246  0.00577  3.927548  0.004
C  C19  1  0.76437789  0.47556349  0.36244152  1  -0.08697  -0.176283  -0.000758  3.957835  -0.002
C  C20  1  0.23561801  0.52442142  0.63755032  1  -0.086991  -0.176337  -0.000758  3.958011  -0.002
C  C21  1  0.70698770  0.58303578  0.52404529  1  0.004959  0.125305  0.007246  3.932803  0.005
C  C22  1  0.29301598  0.41695242  0.47595155  1  0.005086  0.125593  0.007253  3.932728  0.005
C  C23  1  0.72949459  0.50779803  0.68015508  1  -0.084679  -0.16914  -0.000539  3.934412  -0.001
C  C24  1  0.27050709  0.49221751  0.31983433  1  -0.08471  -0.16918  -0.00054  3.934733  -0.001
C  C25  1  0.81375105  0.33638687  0.66860118  1  0.048404  0.094863  0.006219  3.922093  0.004
C  C26  1  0.18626661  0.66360931  0.33138260  1  0.048311  0.094819  0.006218  3.922714  0.004
C  C27  1  0.63036297  0.77381626  0.52624902  1  -0.072982  0.019738  -0.001767  3.884924  -0.003
C  C28  1  0.36962604  0.22618270  0.47376045  1  -0.073058  0.019551  -0.001765  3.885339  -0.003
S  S29  1  0.36515747  0.16804781  0.91241357  1  -0.143963  -0.333555  0.003056  2.448589  0.0
S  S30  1  0.63484546  0.83196297  0.08758115  1  -0.143981  -0.333583  0.003053  2.448606  0.0
N  N31  1  0.14306969  0.03745549  0.25417240  1  -0.41555  -0.462149  0.001185  3.537346  -0.001
N  N32  1  0.85692104  0.96255022  0.74582542  1  -0.415378  -0.461762  0.001186  3.537851  -0.001
N  N33  1  0.87239134  0.23512280  0.51140999  1  -0.327502  -0.184023  0.009588  3.627386  0.007
N  N34  1  0.12761136  0.76488078  0.48856865  1  -0.327507  -0.184131  0.009586  3.627283  0.007
O  O35  1  0.77119452  0.88461458  0.41389997  1  -0.383968  -0.46613  -0.020144  2.454548  -0.033
O  O36  1  0.22880089  0.11539140  0.58611194  1  -0.384008  -0.466237  -0.020141  2.454603  -0.033
