# generated using pymatgen
data_CuH16C12N2(ClO5)2
_symmetry_space_group_name_H-M   'P 1'
_cell_length_a   6.36695230
_cell_length_b   10.31443405
_cell_length_c   13.29087505
_cell_angle_alpha   90.00020994
_cell_angle_beta   90.00047857
_cell_angle_gamma   100.80050187
_symmetry_Int_Tables_number   1
_chemical_formula_structural   CuH16C12N2(ClO5)2
_chemical_formula_sum   'Cu2 H32 C24 N4 Cl4 O20'
_cell_volume   857.37014394
_cell_formula_units_Z   2
loop_
 _symmetry_equiv_pos_site_id
 _symmetry_equiv_pos_as_xyz
  1  'x, y, z'
loop_
 _atom_site_type_symbol
 _atom_site_label
 _atom_site_symmetry_multiplicity
 _atom_site_fract_x
 _atom_site_fract_y
 _atom_site_fract_z
 _atom_site_occupancy
 _atom_site_hle17_ddec_charge
 _atom_site_hle17_ddec_spin_density
 _atom_site_hle17_ddec_sum_bond_order
 _atom_site_hle17_magmom
 _atom_site_hse06_10hf_ddec_charge
 _atom_site_hse06_10hf_ddec_spin_density
 _atom_site_hse06_10hf_ddec_sum_bond_order
 _atom_site_hse06_10hf_magmom
 _atom_site_hse06_ddec_charge
 _atom_site_hse06_ddec_spin_density
 _atom_site_hse06_ddec_sum_bond_order
 _atom_site_hse06_magmom
 _atom_site_pbe_cm5_charge
 _atom_site_pbe_ddec_charge
 _atom_site_pbe_ddec_spin_density
 _atom_site_pbe_ddec_sum_bond_order
 _atom_site_pbe_magmom
Cu  Cu0  1  0.49999557  0.99999981  0.99999923  1  0.941004  -0.762587  1.691189  -0.549  0.914134  -0.826582  2.066277  -0.657  0.991086  -0.892508  2.011131  -0.732  0.766237  0.861532  -0.778797  2.109561  -0.607
Cu  Cu1  1  0.99999782  0.49999792  0.50000142  1  0.940975  0.762555  1.690968  0.549  0.914178  0.826592  2.0661  0.657  0.99113  0.89251  2.010908  0.732  0.766225  0.861598  0.778786  2.109304  0.607
H  H2  1  0.22386783  0.99016832  0.14987271  1  0.43949  -0.000592  0.843216  -0.001  0.415057  -0.001003  0.898875  -0.001  0.425133  -0.000727  0.884439  -0.001  0.307193  0.407775  -0.00121  0.909289  -0.002
H  H3  1  0.72385825  0.49016349  0.35012601  1  0.439493  0.000592  0.843179  0.001  0.415075  0.001003  0.898841  0.001  0.425151  0.000727  0.884404  0.001  0.307256  0.407794  0.001211  0.909257  0.002
H  H4  1  0.77613725  0.00983378  0.85013173  1  0.439547  -0.000592  0.843165  -0.001  0.41507  -0.001002  0.898892  -0.001  0.425146  -0.000727  0.884455  -0.001  0.307178  0.407789  -0.00121  0.909305  -0.002
H  H5  1  0.27613940  0.50982973  0.64987316  1  0.439516  0.000592  0.843085  0.001  0.415095  0.001003  0.898802  0.001  0.42517  0.000727  0.884365  0.001  0.307241  0.407816  0.00121  0.909213  0.002
H  H6  1  0.36375998  0.88016643  0.17211135  1  0.437869  -0.000755  0.852529  -0.001  0.411499  -0.001135  0.908831  -0.002  0.422048  -0.000832  0.893616  -0.001  0.303945  0.403822  -0.001367  0.919893  -0.002
H  H7  1  0.86375516  0.38016339  0.32788977  1  0.437909  0.000755  0.852474  0.001  0.411531  0.001135  0.908785  0.002  0.422077  0.000832  0.893575  0.001  0.303954  0.403858  0.001367  0.919846  0.002
H  H8  1  0.63624666  0.11983566  0.82789159  1  0.437911  -0.000755  0.85246  -0.001  0.411531  -0.001135  0.90878  -0.002  0.422077  -0.000832  0.893571  -0.001  0.303956  0.403855  -0.001367  0.919844  -0.002
H  H9  1  0.13626084  0.61984364  0.67210715  1  0.437904  0.000755  0.85248  0.001  0.411511  0.001135  0.908824  0.002  0.422058  0.000832  0.893611  0.001  0.303958  0.403839  0.001367  0.919883  0.002
H  H10  1  0.50749378  0.78150871  0.86141593  1  0.075184  -0.001401  0.967617  -0.002  0.078439  -0.000935  1.04109  -0.002  0.080065  -0.000646  1.038468  -0.001  0.112078  0.077131  -0.00119  1.043058  -0.002
H  H11  1  0.00746138  0.28150244  0.63858508  1  0.075105  0.001401  0.967517  0.002  0.078419  0.000936  1.040927  0.002  0.080047  0.000646  1.038302  0.001  0.112035  0.077102  0.001191  1.0429  0.002
H  H12  1  0.49252476  0.21849634  0.13857722  1  0.075177  -0.0014  0.967538  -0.002  0.078498  -0.000935  1.04094  -0.002  0.080129  -0.000646  1.038307  -0.001  0.112057  0.077183  -0.00119  1.042911  -0.002
H  H13  1  0.99252679  0.71849572  0.36141937  1  0.075124  0.001401  0.96751  0.002  0.078431  0.000936  1.040938  0.002  0.080063  0.000646  1.038305  0.001  0.112006  0.077114  0.001191  1.042903  0.002
H  H14  1  0.64323259  0.57004219  0.86384236  1  0.119631  -0.000737  0.958958  -0.001  0.126099  -0.000465  1.023756  -0.001  0.128951  -0.000305  1.023227  0.0  0.10539  0.123955  -0.00061  1.02439  -0.001
H  H15  1  0.14320272  0.07002899  0.63615855  1  0.119749  0.000737  0.958835  0.001  0.126188  0.000465  1.023654  0.001  0.12904  0.000305  1.023127  0.0  0.10543  0.124073  0.00061  1.024259  0.001
H  H16  1  0.35679531  0.42996779  0.13614855  1  0.119731  -0.000737  0.95894  -0.001  0.12616  -0.000465  1.023741  -0.001  0.129016  -0.000305  1.023224  0.0  0.105421  0.124041  -0.00061  1.024355  -0.001
H  H17  1  0.85678768  0.92996621  0.36384966  1  0.11967  0.000738  0.958894  0.001  0.126141  0.000465  1.023682  0.001  0.129002  0.000305  1.023162  0.0  0.105375  0.124026  0.00061  1.024288  0.001
H  H18  1  0.91047763  0.67993642  0.15675097  1  0.12153  -0.000755  0.946081  -0.001  0.13168  -0.000515  1.003919  -0.001  0.134488  -0.00034  1.003067  0.0  0.108767  0.129572  -0.000674  1.004892  -0.001
H  H19  1  0.41049296  0.17994273  0.34326411  1  0.121569  0.000756  0.946054  0.001  0.131716  0.000515  1.003892  0.001  0.134523  0.00034  1.003041  0.0  0.108781  0.129608  0.000675  1.004861  0.001
H  H20  1  0.08951059  0.32005680  0.84324972  1  0.121532  -0.000755  0.946024  -0.001  0.131648  -0.000515  1.003897  -0.001  0.134457  -0.00034  1.003042  0.0  0.108741  0.129534  -0.000674  1.004875  -0.001
H  H21  1  0.58951151  0.82005740  0.65674785  1  0.121547  0.000756  0.946037  0.001  0.131683  0.000515  1.003892  0.001  0.134491  0.00034  1.003038  0.0  0.108757  0.129578  0.000675  1.004868  0.001
H  H22  1  0.75936293  0.88449879  0.14466902  1  0.076502  -0.001504  0.968619  -0.002  0.079739  -0.001023  1.042411  -0.002  0.081137  -0.000703  1.040028  -0.001  0.111943  0.078556  -0.001274  1.044228  -0.002
H  H23  1  0.25938177  0.38450026  0.35534235  1  0.076524  0.001503  0.968797  0.002  0.079768  0.001022  1.042545  0.002  0.081162  0.000703  1.040161  0.001  0.111935  0.078587  0.001274  1.044365  0.002
H  H24  1  0.24061992  0.11549740  0.85533242  1  0.076455  -0.001504  0.968697  -0.002  0.079698  -0.001023  1.04247  -0.002  0.081099  -0.000703  1.04009  -0.001  0.11194  0.07852  -0.001275  1.04428  -0.002
H  H25  1  0.74062741  0.61549986  0.64466661  1  0.076474  0.001504  0.968692  0.002  0.079719  0.001023  1.042452  0.002  0.081117  0.000703  1.040074  0.001  0.111944  0.078543  0.001274  1.044271  0.002
H  H26  1  0.79496033  0.40921662  0.96354387  1  0.091345  4.9e-05  0.930951  0.0  0.107174  1.7e-05  0.99091  0.0  0.108357  1.8e-05  0.991329  0.0  0.096064  0.106267  9e-06  0.990677  0.0
H  H27  1  0.29496771  0.90921752  0.53646577  1  0.091433  -4.9e-05  0.930873  0.0  0.107273  -1.7e-05  0.990792  0.0  0.108456  -1.8e-05  0.991209  0.0  0.096104  0.106368  -9e-06  0.990564  0.0
H  H28  1  0.20503158  0.59078351  0.03644628  1  0.091404  4.9e-05  0.930818  0.0  0.107217  1.7e-05  0.990783  0.0  0.1084  1.8e-05  0.991203  0.0  0.096076  0.106313  9e-06  0.990557  0.0
H  H29  1  0.70502891  0.09078261  0.46354544  1  0.091379  -4.9e-05  0.930796  0.0  0.107242  -1.7e-05  0.990715  0.0  0.108423  -1.8e-05  0.99114  0.0  0.096073  0.106331  -9e-06  0.990481  0.0
H  H30  1  0.86807692  0.44227615  0.09144643  1  0.096639  0.000126  0.93254  0.0  0.112971  4e-05  0.991262  0.0  0.114218  4.4e-05  0.991276  0.0  0.095814  0.111976  3.8e-05  0.991373  0.0
H  H31  1  0.36806808  0.94226839  0.40856162  1  0.096638  -0.000126  0.932519  0.0  0.112979  -4e-05  0.991219  0.0  0.114226  -4.4e-05  0.991235  0.0  0.095836  0.111977  -3.8e-05  0.991334  0.0
H  H32  1  0.13191722  0.55772102  0.90854673  1  0.096739  0.000126  0.932793  0.0  0.113075  4e-05  0.991461  0.0  0.114323  4.4e-05  0.991476  0.0  0.095892  0.112106  3.8e-05  0.991545  0.0
H  H33  1  0.63193137  0.05773075  0.59144960  1  0.096752  -0.000125  0.932744  0.0  0.113052  -4e-05  0.991463  0.0  0.114325  -4.4e-05  0.991446  0.0  0.095864  0.112049  -3.8e-05  0.991581  0.0
C  C34  1  0.59529435  0.75409997  0.92580155  1  0.125896  0.005978  3.710881  0.006  0.096442  0.000177  3.971771  0.001  0.106006  0.001409  3.991082  0.002  0.038431  0.090614  -0.000855  3.958179  0.0
C  C35  1  0.09527723  0.25409709  0.57419287  1  0.125943  -0.005975  3.710791  -0.006  0.096437  -0.00018  3.971674  -0.001  0.106001  -0.001408  3.990992  -0.002  0.038451  0.090616  0.000854  3.958084  0.0
C  C36  1  0.40471199  0.24590114  0.07419161  1  0.125729  0.005967  3.710743  0.006  0.096242  0.000177  3.971645  0.001  0.105806  0.001409  3.990962  0.002  0.038357  0.090419  -0.000855  3.958058  0.0
C  C37  1  0.90471093  0.74590107  0.42581082  1  0.125807  -0.005972  3.710726  -0.006  0.096341  -0.000177  3.971628  -0.001  0.105904  -0.001408  3.990952  -0.002  0.038454  0.090523  0.000855  3.958034  0.0
C  C38  1  0.67160636  0.63681688  0.92787814  1  -0.149644  -0.01199  3.674592  -0.013  -0.169769  -0.004079  3.923705  -0.005  -0.178335  -0.003515  3.94475  -0.004  -0.081608  -0.163995  -0.004577  3.909406  -0.006
C  C39  1  0.17159305  0.13680609  0.57211472  1  -0.14994  0.011991  3.674661  0.013  -0.170056  0.004081  3.923819  0.005  -0.178626  0.003515  3.944868  0.004  -0.081713  -0.164309  0.004578  3.909498  0.006
C  C40  1  0.32840149  0.36318916  0.07211276  1  -0.149841  -0.011981  3.674794  -0.013  -0.169946  -0.00408  3.923883  -0.005  -0.178528  -0.003516  3.944942  -0.004  -0.081722  -0.164201  -0.004577  3.909575  -0.006
C  C41  1  0.82839578  0.86318911  0.42788897  1  -0.149797  0.011987  3.674679  0.013  -0.169976  0.004079  3.92384  0.005  -0.178563  0.003515  3.944902  0.004  -0.0817  -0.164236  0.004577  3.909528  0.006
C  C42  1  0.78687196  0.60646641  0.01154356  1  0.17118  0.009385  3.694712  0.009  0.186374  0.002578  3.93275  0.003  0.192766  0.002806  3.953812  0.003  0.021122  0.181894  0.002365  3.918633  0.002
C  C43  1  0.28687725  0.10646507  0.48845219  1  0.171396  -0.009379  3.695183  -0.009  0.186542  -0.002578  3.9332  -0.003  0.192934  -0.002805  3.95426  -0.003  0.021211  0.182059  -0.002365  3.919086  -0.002
C  C44  1  0.21312091  0.39353175  0.98844884  1  0.17123  0.009375  3.695229  0.009  0.186515  0.002579  3.93304  0.003  0.192911  0.002806  3.954099  0.003  0.021249  0.182039  0.002365  3.918933  0.002
C  C45  1  0.71312130  0.89353111  0.51155451  1  0.171318  -0.009377  3.695141  -0.009  0.186587  -0.002576  3.93307  -0.003  0.192979  -0.002805  3.954135  -0.003  0.021279  0.182114  -0.002365  3.918941  -0.002
C  C46  1  0.82070665  0.69808154  0.09017360  1  -0.139517  -0.012211  3.663349  -0.013  -0.15884  -0.004232  3.909174  -0.005  -0.166785  -0.003656  3.928567  -0.004  -0.078954  -0.15395  -0.00478  3.896684  -0.006
C  C47  1  0.32071115  0.19808348  0.40983148  1  -0.139515  0.012206  3.663573  0.013  -0.158809  0.00423  3.909363  0.005  -0.166753  0.003655  3.928753  0.004  -0.078963  -0.153916  0.00478  3.896866  0.006
C  C48  1  0.17928152  0.30191662  0.90982181  1  -0.139444  -0.012203  3.663292  -0.013  -0.158763  -0.004233  3.909071  -0.005  -0.166706  -0.003657  3.928455  -0.004  -0.078934  -0.153866  -0.004781  3.896569  -0.006
C  C49  1  0.67928800  0.80191467  0.59017672  1  -0.13953  0.012205  3.663526  0.013  -0.158878  0.00423  3.90935  0.005  -0.166819  0.003655  3.928737  0.004  -0.078965  -0.153987  0.00478  3.896859  0.006
C  C50  1  0.73844615  0.81297697  0.08376321  1  0.138535  0.005781  3.697723  0.006  0.108319  7.6e-05  3.956281  0.001  0.118528  0.001358  3.974879  0.002  0.040493  0.101599  -0.000927  3.943685  0.0
C  C51  1  0.23845650  0.31297699  0.41623966  1  0.138485  -0.005775  3.698264  -0.006  0.108267  -7.4e-05  3.956797  -0.001  0.118482  -0.001356  3.975391  -0.002  0.040527  0.101542  0.000928  3.94421  0.001
C  C52  1  0.26154267  0.18701823  0.91623522  1  0.138554  0.005773  3.697906  0.006  0.108368  7.6e-05  3.956477  0.001  0.118574  0.001359  3.975077  0.002  0.040522  0.101644  -0.000927  3.943878  0.0
C  C53  1  0.76154767  0.68702215  0.58376629  1  0.138533  -0.005775  3.697975  -0.006  0.108342  -7.6e-05  3.956544  -0.001  0.118547  -0.001356  3.975147  -0.002  0.040492  0.101608  0.000927  3.943976  0.001
C  C54  1  0.88066282  0.48392134  0.01514979  1  -0.155713  -0.00037  3.669282  -0.001  -0.198254  8e-06  3.918099  0.0  -0.200855  0.000112  3.930655  0.0  -0.154943  -0.196203  -0.000136  3.909329  0.0
C  C55  1  0.38065173  0.98392114  0.48485388  1  -0.155916  0.00037  3.669468  0.001  -0.198407  -7e-06  3.918247  0.0  -0.201007  -0.000113  3.9308  0.0  -0.155068  -0.196373  0.000136  3.909497  0.0
C  C56  1  0.11934105  0.51607681  0.98484337  1  -0.156015  -0.000368  3.669745  -0.001  -0.198552  7e-06  3.918511  0.0  -0.201152  0.000112  3.931058  0.0  -0.155106  -0.196551  -0.000136  3.909777  0.0
C  C57  1  0.61933516  0.01607801  0.51515583  1  -0.155979  0.000367  3.669577  0.001  -0.198553  -9e-06  3.9184  0.0  -0.201175  -0.000113  3.930963  0.0  -0.155083  -0.196494  0.000136  3.909609  0.0
N  N58  1  0.62663126  0.84054162  0.00301445  1  -0.323941  -0.093024  3.355992  -0.115  -0.276216  -0.053939  3.65445  -0.071  -0.309187  -0.043941  3.678586  -0.061  -0.367183  -0.25462  -0.05962  3.638422  -0.076
N  N59  1  0.12663265  0.34054233  0.49698140  1  -0.323883  0.093027  3.356266  0.115  -0.276178  0.05394  3.654763  0.071  -0.309149  0.04394  3.678887  0.061  -0.367217  -0.254594  0.059625  3.638729  0.076
N  N60  1  0.37336041  0.15945259  0.99697946  1  -0.32369  -0.093014  3.355987  -0.115  -0.276079  -0.05394  3.654555  -0.071  -0.309047  -0.043942  3.678689  -0.061  -0.367156  -0.254488  -0.05962  3.638531  -0.076
N  N61  1  0.87336711  0.65945780  0.50302305  1  -0.323701  0.093021  3.355985  0.115  -0.27606  0.053935  3.654522  0.071  -0.309035  0.043938  3.67866  0.061  -0.367131  -0.254474  0.05962  3.638493  0.076
Cl  Cl62  1  0.11803116  0.85191199  0.79789520  1  1.389413  -2.2e-05  6.180783  0.0  1.321692  -1.6e-05  6.756873  0.0  1.373811  -1.8e-05  6.734441  0.0  0.734682  1.285769  -1e-06  6.77064  0.0
Cl  Cl63  1  0.61802353  0.35190393  0.70209350  1  1.389257  2.2e-05  6.180483  0.0  1.32167  2.2e-05  6.756433  0.0  1.373793  1.9e-05  6.733997  0.0  0.734599  1.285739  1e-06  6.770221  0.0
Cl  Cl64  1  0.88197886  0.14809603  0.20209646  1  1.389263  -2.2e-05  6.18036  0.0  1.321662  -1.7e-05  6.756316  0.0  1.373784  -1.9e-05  6.73388  0.0  0.73465  1.28573  -1e-06  6.770108  0.0
Cl  Cl65  1  0.38197405  0.64809423  0.29790718  1  1.389058  2.3e-05  6.181381  0.0  1.321421  1.7e-05  6.757356  0.0  1.373543  1.5e-05  6.734926  0.0  0.734512  1.28549  1e-06  6.771143  0.0
O  O66  1  0.30848927  0.93047543  0.11790797  1  -0.79575  -0.058725  1.940213  -0.076  -0.763928  -0.045727  2.144116  -0.064  -0.792799  -0.036507  2.111923  -0.053  -0.571056  -0.743441  -0.051926  2.167424  -0.07
O  O67  1  0.80848454  0.43047383  0.38209085  1  -0.795774  0.058726  1.940083  0.076  -0.763985  0.045724  2.14405  0.064  -0.792839  0.036505  2.111831  0.053  -0.571106  -0.743496  0.051925  2.167342  0.07
O  O68  1  0.69151581  0.06952667  0.88209497  1  -0.795837  -0.05873  1.94013  -0.076  -0.763995  -0.04573  2.144008  -0.064  -0.792877  -0.03651  2.111838  -0.053  -0.571065  -0.743504  -0.051929  2.167311  -0.07
O  O69  1  0.19152277  0.56952531  0.61790607  1  -0.795794  0.058736  1.939982  0.076  -0.763997  0.045729  2.143988  0.064  -0.792864  0.03651  2.111795  0.053  -0.571124  -0.743509  0.051932  2.167275  0.07
O  O70  1  0.15970827  0.86322874  0.90568426  1  -0.540547  0.000379  1.899683  0.0  -0.524504  0.000375  2.170284  0.0  -0.5423  0.000513  2.157552  0.0  -0.299168  -0.511631  0.000217  2.178463  0.0
O  O71  1  0.65967774  0.36322570  0.59430082  1  -0.540489  -0.000378  1.899548  0.0  -0.524422  -0.000378  2.170066  0.0  -0.54222  -0.000513  2.157331  0.0  -0.299092  -0.511554  -0.000218  2.178244  0.0
O  O72  1  0.84031432  0.13677927  0.09430438  1  -0.540488  0.000378  1.899544  0.0  -0.52441  0.00038  2.170065  0.0  -0.542204  0.000513  2.157327  0.0  -0.299104  -0.511539  0.000218  2.178238  0.0
O  O73  1  0.34032769  0.63677245  0.40569535  1  -0.540499  -0.000379  1.899734  0.0  -0.52446  -0.000377  2.170322  0.0  -0.542258  -0.000512  2.157589  0.0  -0.299125  -0.511589  -0.000218  2.178495  0.0
O  O74  1  0.31072572  0.90594496  0.74136652  1  -0.530704  -7.1e-05  1.853953  0.0  -0.499995  6.9e-05  2.098297  0.0  -0.515746  0.000101  2.085334  0.0  -0.30084  -0.488818  1.8e-05  2.106781  0.0
O  O75  1  0.81073425  0.40593934  0.75861908  1  -0.530713  7e-05  1.853693  0.0  -0.500162  -7e-05  2.09819  0.0  -0.51592  -0.0001  2.085226  0.0  -0.300861  -0.488945  -1.8e-05  2.106606  0.0
O  O76  1  0.68926660  0.09407196  0.25862137  1  -0.530717  -7.1e-05  1.853626  0.0  -0.50015  6.9e-05  2.098111  0.0  -0.515896  0.000101  2.085131  0.0  -0.300883  -0.488935  1.8e-05  2.106529  0.0
O  O77  1  0.18926701  0.59406573  0.24138536  1  -0.530618  7e-05  1.853899  0.0  -0.500017  -6.7e-05  2.09834  0.0  -0.515768  -9.9e-05  2.085365  0.0  -0.300781  -0.4888  -1.8e-05  2.106752  0.0
O  O78  1  0.94836064  0.92510230  0.77170630  1  -0.561373  -0.000468  1.873322  -0.001  -0.52322  -0.000465  2.110105  0.0  -0.539918  -0.000264  2.097855  0.0  -0.30495  -0.511349  -0.000779  2.118168  -0.001
O  O79  1  0.44835532  0.42509580  0.72829629  1  -0.56134  0.000468  1.873389  0.001  -0.523216  0.000463  2.110114  0.0  -0.539915  0.000264  2.097863  0.0  -0.304949  -0.511348  0.000779  2.118175  0.001
O  O80  1  0.05164008  0.07489585  0.22829137  1  -0.561324  -0.000467  1.8733  -0.001  -0.523219  -0.000467  2.110059  0.0  -0.53992  -0.000265  2.097814  0.0  -0.304991  -0.511352  -0.000779  2.118123  -0.001
O  O81  1  0.55162753  0.57490039  0.27170665  1  -0.561262  0.000467  1.87363  0.001  -0.523148  0.000462  2.110383  0.0  -0.539848  0.000265  2.098131  0.0  -0.304973  -0.511285  0.000779  2.118459  0.001
O  O82  1  0.04737025  0.71208769  0.77190643  1  -0.556514  0.000529  1.908891  0.001  -0.517731  0.000467  2.149816  0.001  -0.535023  0.00027  2.137813  0.0  -0.300268  -0.505607  0.000665  2.157762  0.001
O  O83  1  0.54736895  0.21207787  0.72808325  1  -0.556397  -0.000529  1.908793  -0.001  -0.517678  -0.000467  2.149717  -0.001  -0.534973  -0.00027  2.137722  0.0  -0.300239  -0.505549  -0.000665  2.157658  -0.001
O  O84  1  0.95266049  0.28792130  0.22808673  1  -0.556457  0.00053  1.908817  0.001  -0.517732  0.000467  2.149759  0.001  -0.535043  0.00027  2.137777  0.0  -0.300249  -0.505602  0.000665  2.157691  0.001
O  O85  1  0.45264095  0.78791436  0.27192119  1  -0.556383  -0.00053  1.908981  -0.001  -0.517609  -0.000468  2.149863  -0.001  -0.53491  -0.00027  2.137873  0.0  -0.300225  -0.505476  -0.000665  2.157802  -0.001
