# generated using pymatgen
data_CdH20C21N2O5
_symmetry_space_group_name_H-M   'P 1'
_cell_length_a   8.60340408
_cell_length_b   9.70676360
_cell_length_c   12.70934872
_cell_angle_alpha   69.78416653
_cell_angle_beta   79.27198319
_cell_angle_gamma   90.12243855
_symmetry_Int_Tables_number   1
_chemical_formula_structural   CdH20C21N2O5
_chemical_formula_sum   'Cd2 H40 C42 N4 O10'
_cell_volume   976.03615634
_cell_formula_units_Z   2
loop_
 _symmetry_equiv_pos_site_id
 _symmetry_equiv_pos_as_xyz
  1  'x, y, z'
loop_
 _atom_site_type_symbol
 _atom_site_label
 _atom_site_symmetry_multiplicity
 _atom_site_fract_x
 _atom_site_fract_y
 _atom_site_fract_z
 _atom_site_occupancy
 _atom_site_hle17_bader_spin_density
 _atom_site_hle17_ddec_charge
 _atom_site_hle17_ddec_spin_density
 _atom_site_hle17_ddec_sum_bond_order
 _atom_site_hle17_magmom
 _atom_site_hse06_10hf_bader_spin_density
 _atom_site_hse06_10hf_ddec_charge
 _atom_site_hse06_10hf_ddec_spin_density
 _atom_site_hse06_10hf_ddec_sum_bond_order
 _atom_site_hse06_10hf_magmom
 _atom_site_hse06_bader_spin_density
 _atom_site_hse06_ddec_charge
 _atom_site_hse06_ddec_spin_density
 _atom_site_hse06_ddec_sum_bond_order
 _atom_site_hse06_magmom
 _atom_site_pbe_bader_spin_density
 _atom_site_pbe_cm5_charge
 _atom_site_pbe_ddec_charge
 _atom_site_pbe_ddec_spin_density
 _atom_site_pbe_ddec_sum_bond_order
 _atom_site_pbe_magmom
Cd  Cd0  1  0.58474890  0.92464828  0.72247340  1  0  1.095768  0  1.636598  0  0  0.899497  0  2.075147  0  0  0.959539  0  2.024565  0  0  0.756271  0.856798  0  2.109504  0
Cd  Cd1  1  0.41524835  0.07534774  0.27753659  1  0  1.095726  0  1.63659  0  0  0.899441  0  2.075168  0  0  0.959483  0  2.024579  0  0  0.756204  0.856738  0  2.109526  0
H  H2  1  0.71868579  0.12225665  0.49379388  1  0  0.419116  0  0.893241  0  0  0.384232  0  0.964523  0  0  0.395802  0  0.947705  0  0  0.280557  0.376026  0  0.976419  0
H  H3  1  0.28131356  0.87773654  0.50620550  1  0  0.419092  0  0.893281  0  0  0.384193  0  0.96459  0  0  0.395763  0  0.947771  0  0  0.280526  0.375987  0  0.976486  0
H  H4  1  0.81755030  0.98386211  0.53657396  1  0  0.417556  0  0.831975  0  0  0.400157  0  0.887183  0  0  0.408499  0  0.87802  0  0  0.311334  0.394211  0  0.893724  0
H  H5  1  0.18245539  0.01613772  0.46342377  1  0  0.417435  0  0.83215  0  0  0.400086  0  0.887261  0  0  0.408426  0  0.878105  0  0  0.311298  0.394141  0  0.893801  0
H  H6  1  0.06381198  0.83977494  0.88424779  1  0  0.088816  0  0.970174  0  0  0.09654  0  1.037504  0  0  0.099565  0  1.035983  0  0  0.096734  0.094294  0  1.038779  0
H  H7  1  0.93619467  0.16023907  0.11574952  1  0  0.088709  0  0.970228  0  0  0.096428  0  1.03759  0  0  0.099454  0  1.036067  0  0  0.096693  0.094186  0  1.038869  0
H  H8  1  0.75243344  0.13095979  0.99057750  1  0  0.091773  0  0.989004  0  0  0.097659  0  1.058827  0  0  0.100237  0  1.058624  0  0  0.096731  0.095968  0  1.058682  0
H  H9  1  0.24757217  0.86905637  0.00942021  1  0  0.091755  0  0.989077  0  0  0.097605  0  1.058918  0  0  0.100184  0  1.058713  0  0  0.096698  0.095914  0  1.058772  0
H  H10  1  0.74006079  0.55243630  0.56589122  1  0  0.093791  0  0.961295  0  0  0.102213  0  1.02614  0  0  0.105848  0  1.023596  0  0  0.101177  0.099446  0  1.028224  0
H  H11  1  0.25994168  0.44756919  0.43410083  1  0  0.093923  0  0.961392  0  0  0.102297  0  1.026249  0  0  0.105926  0  1.02372  0  0  0.101235  0.09953  0  1.028334  0
H  H12  1  0.26858735  0.65064423  0.51132009  1  0  0.099756  0  0.951258  0  0  0.112792  0  1.007463  0  0  0.115978  0  1.005513  0  0  0.105166  0.110258  0  1.009261  0
H  H13  1  0.73141281  0.34936243  0.48866962  1  0  0.099623  0  0.951366  0  0  0.112697  0  1.007531  0  0  0.115881  0  1.005584  0  0  0.10513  0.110165  0  1.009328  0
H  H14  1  0.29370817  0.68765546  0.80142978  1  0  0.078807  0  0.959514  0  0  0.087381  0  1.024077  0  0  0.089905  0  1.021818  0  0  0.112116  0.085453  0  1.025863  0
H  H15  1  0.70630123  0.31234652  0.19856931  1  0  0.078851  0  0.959481  0  0  0.087414  0  1.024056  0  0  0.089927  0  1.021811  0  0  0.112137  0.085485  0  1.025841  0
H  H16  1  0.11852520  0.51196807  0.97514077  1  0  0.093971  0  0.984812  0  0  0.10649  0  1.044822  0  0  0.10935  0  1.0442  0  0  0.102664  0.104399  0  1.045534  0
H  H17  1  0.88148018  0.48802759  0.02485250  1  0  0.093924  0  0.984879  0  0  0.106448  0  1.044877  0  0  0.109308  0  1.044256  0  0  0.102628  0.104349  0  1.0456  0
H  H18  1  0.43424410  0.59431384  0.17604509  1  0  0.10749  0  0.946063  0  0  0.119984  0  1.004593  0  0  0.122527  0  1.004755  0  0  0.108414  0.118149  0  1.004574  0
H  H19  1  0.56575524  0.40567939  0.82395349  1  0  0.107443  0  0.94613  0  0  0.119969  0  1.004628  0  0  0.122511  0  1.004788  0  0  0.108404  0.118139  0  1.004597  0
H  H20  1  0.59986348  0.76484336  0.99383311  1  0  0.077064  0  0.949782  0  0  0.086707  0  1.012238  0  0  0.088557  0  1.010749  0  0  0.115886  0.085349  0  1.013229  0
H  H21  1  0.40012856  0.23516365  0.00617331  1  0  0.076977  0  0.949956  0  0  0.086713  0  1.012287  0  0  0.088559  0  1.010799  0  0  0.115879  0.085338  0  1.013289  0
H  H22  1  0.20358121  0.41629073  0.27162408  1  0  0.096383  0  0.952501  0  0  0.111881  0  1.012922  0  0  0.114179  0  1.011337  0  0  0.093983  0.110115  0  1.014254  0
H  H23  1  0.79641584  0.58370354  0.72837534  1  0  0.096532  0  0.952433  0  0  0.111972  0  1.012953  0  0  0.114269  0  1.011371  0  0  0.094013  0.110205  0  1.014284  0
H  H24  1  0.11553391  0.34362009  0.18628690  1  0  0.112347  0  0.949845  0  0  0.128236  0  1.007764  0  0  0.131011  0  1.005559  0  0  0.099125  0.126492  0  1.008929  0
H  H25  1  0.88445929  0.65636980  0.81371251  1  0  0.112366  0  0.94991  0  0  0.128292  0  1.007791  0  0  0.131067  0  1.005588  0  0  0.099111  0.126548  0  1.008955  0
H  H26  1  0.95379923  0.57607470  0.13852118  1  0  0.051003  0  0.96633  0  0  0.070273  0  1.031724  0  0  0.070784  0  1.032482  0  0  0.08524  0.069794  0  1.031422  0
H  H27  1  0.04619834  0.42392714  0.86147948  1  0  0.050994  0  0.966286  0  0  0.070182  0  1.031775  0  0  0.07069  0  1.032529  0  0  0.085218  0.069706  0  1.031471  0
H  H28  1  0.89765789  0.43940504  0.27579581  1  0  0.065886  0  0.933952  0  0  0.086126  0  0.99231  0  0  0.086722  0  0.992786  0  0  0.090402  0.085656  0  0.992133  0
H  H29  1  0.10234689  0.56059931  0.72419780  1  0  0.06591  0  0.933845  0  0  0.086142  0  0.992208  0  0  0.086739  0  0.992685  0  0  0.090414  0.085676  0  0.992027  0
H  H30  1  0.11736244  0.71474109  0.22562793  1  0  0.096521  0  0.940629  0  0  0.114103  0  1.002316  0  0  0.114887  0  1.0034  0  0  0.099898  0.113566  0  1.001522  0
H  H31  1  0.88263596  0.28525517  0.77437633  1  0  0.096555  0  0.940555  0  0  0.114153  0  1.002258  0  0  0.114935  0  1.003344  0  0  0.099938  0.113618  0  1.001464  0
H  H32  1  0.03393664  0.58697440  0.36058612  1  0  0.078274  0  0.91792  0  0  0.10175  0  0.969164  0  0  0.10213  0  0.969537  0  0  0.097013  0.101576  0  0.96876  0
H  H33  1  0.96606604  0.41301553  0.63941361  1  0  0.078351  0  0.917822  0  0  0.101794  0  0.969134  0  0  0.10217  0  0.969513  0  0  0.097045  0.101621  0  0.96873  0
H  H34  1  0.72480921  0.63701548  0.19822395  1  0  0.096509  0  0.964525  0  0  0.107435  0  1.026769  0  0  0.109863  0  1.02715  0  0  0.10333  0.105529  0  1.02694  0
H  H35  1  0.27518943  0.36298398  0.80178187  1  0  0.096538  0  0.964475  0  0  0.107461  0  1.026731  0  0  0.109886  0  1.027111  0  0  0.103318  0.105553  0  1.026905  0
H  H36  1  0.50863866  0.80454370  0.20961887  1  0  0.088905  0  0.97687  0  0  0.096903  0  1.042858  0  0  0.099885  0  1.039515  0  0  0.114596  0.094816  0  1.045038  0
H  H37  1  0.49136706  0.19545600  0.79038203  1  0  0.088858  0  0.976908  0  0  0.096829  0  1.04295  0  0  0.099805  0  1.039609  0  0  0.114573  0.094744  0  1.04513  0
H  H38  1  0.75142774  0.01996809  0.36452186  1  0  0.074129  0  0.989433  0  0  0.084675  0  1.053539  0  0  0.0873  0  1.050319  0  0  0.113051  0.082866  0  1.055551  0
H  H39  1  0.24857722  0.98003820  0.63547755  1  0  0.074199  0  0.989472  0  0  0.084738  0  1.053582  0  0  0.087364  0  1.05036  0  0  0.113096  0.082928  0  1.055594  0
H  H40  1  0.97934875  0.86129193  0.36194969  1  0  0.118956  0  0.942454  0  0  0.130024  0  1.000337  0  0  0.133443  0  0.999015  0  0  0.10837  0.127511  0  1.001501  0
H  H41  1  0.02065055  0.13869997  0.63805473  1  0  0.118917  0  0.942514  0  0  0.129992  0  1.000388  0  0  0.133413  0  0.999066  0  0  0.10837  0.127479  0  1.001551  0
C  C42  1  0.79225181  0.97114102  0.85270427  1  0  0.612716  0  3.965805  0  0  0.565757  0  4.256462  0  0  0.599648  0  4.250366  0  0  0.185759  0.54287  0  4.259971  0
C  C43  1  0.20774150  0.02886705  0.14730331  1  0  0.612481  0  3.96623  0  0  0.565519  0  4.256903  0  0  0.599411  0  4.250819  0  0  0.185693  0.542635  0  4.260406  0
C  C44  1  0.89828392  0.98416817  0.93027224  1  0  -0.062806  0  3.77041  0  0  -0.039071  0  3.999882  0  0  -0.045849  0  4.021896  0  0  -0.020761  -0.034619  0  3.985089  0
C  C45  1  0.10171534  0.01584135  0.06972712  1  0  -0.062509  0  3.770101  0  0  -0.038785  0  3.999561  0  0  -0.045559  0  4.021581  0  0  -0.020737  -0.034334  0  3.98477  0
C  C46  1  0.03686476  0.90885890  0.93596525  1  0  -0.080286  0  3.758551  0  0  -0.103026  0  4.008659  0  0  -0.104088  0  4.029784  0  0  -0.091615  -0.102221  0  3.994586  0
C  C47  1  0.96314078  0.09115612  0.06403353  1  0  -0.080222  0  3.758289  0  0  -0.102981  0  4.008477  0  0  -0.104053  0  4.029613  0  0  -0.091655  -0.102188  0  3.994423  0
C  C48  1  0.86157067  0.07484111  0.99527572  1  0  -0.075337  0  3.737166  0  0  -0.09688  0  3.986105  0  0  -0.097744  0  4.007218  0  0  -0.090865  -0.096278  0  3.971745  0
C  C49  1  0.13843479  0.92517285  0.00472254  1  0  -0.075376  0  3.737492  0  0  -0.096876  0  3.986422  0  0  -0.097746  0  4.007536  0  0  -0.090872  -0.096273  0  3.972057  0
C  C50  1  0.50964673  0.73393497  0.59372644  1  0  0.636803  0  3.927355  0  0  0.58384  0  4.226104  0  0  0.618158  0  4.219364  0  0  0.200212  0.561243  0  4.228695  0
C  C51  1  0.49034782  0.26605697  0.40627623  1  0  0.636736  0  3.927552  0  0  0.583784  0  4.226275  0  0  0.618104  0  4.219535  0  0  0.200183  0.561188  0  4.228869  0
C  C52  1  0.50522751  0.61424247  0.54405591  1  0  -0.059643  0  3.746452  0  0  -0.037126  0  3.980349  0  0  -0.043755  0  4.003427  0  0  -0.016851  -0.032861  0  3.964568  0
C  C53  1  0.49476714  0.38575197  0.45593905  1  0  -0.059791  0  3.746598  0  0  -0.037279  0  3.980477  0  0  -0.043908  0  4.003554  0  0  -0.016985  -0.033014  0  3.964699  0
C  C54  1  0.63488961  0.52826139  0.53730540  1  0  -0.07364  0  3.744501  0  0  -0.097688  0  3.998395  0  0  -0.098513  0  4.018835  0  0  -0.085184  -0.097234  0  3.98478  0
C  C55  1  0.36511346  0.47173541  0.46268632  1  0  -0.073655  0  3.744808  0  0  -0.097641  0  3.998628  0  0  -0.098466  0  4.019066  0  0  -0.085153  -0.097191  0  3.985015  0
C  C56  1  0.37011523  0.58471410  0.50611427  1  0  -0.07495  0  3.730721  0  0  -0.097744  0  3.979639  0  0  -0.098987  0  4.000666  0  0  -0.084873  -0.096711  0  3.965394  0
C  C57  1  0.62988199  0.41528377  0.49387716  1  0  -0.074609  0  3.730475  0  0  -0.097421  0  3.979397  0  0  -0.098664  0  4.000427  0  0  -0.084734  -0.09639  0  3.965153  0
C  C58  1  0.32074523  0.66373634  0.88632219  1  0  0.115146  0  3.747744  0  0  0.08566  0  4.000598  0  0  0.092879  0  4.020015  0  0  0.037861  0.081039  0  3.987457  0
C  C59  1  0.67926047  0.33626349  0.11367554  1  0  0.115147  0  3.747389  0  0  0.085657  0  4.000242  0  0  0.092881  0  4.019665  0  0  0.037926  0.081037  0  3.987104  0
C  C60  1  0.22341047  0.56701253  0.98359323  1  0  -0.180448  0  3.723441  0  0  -0.19803  0  3.971395  0  0  -0.206888  0  3.993201  0  0  -0.087773  -0.192143  0  3.956565  0
C  C61  1  0.77659401  0.43298748  0.01639989  1  0  -0.180391  0  3.723357  0  0  -0.19795  0  3.971303  0  0  -0.206807  0  3.993103  0  0  -0.087769  -0.192057  0  3.956481  0
C  C62  1  0.25827451  0.54168383  0.09194923  1  0  0.178248  0  3.699369  0  0  0.19265  0  3.936749  0  0  0.19905  0  3.958022  0  0  0.02144  0.188688  0  3.92195  0
C  C63  1  0.74172748  0.45831383  0.90804794  1  0  0.17822  0  3.699564  0  0  0.192601  0  3.937018  0  0  0.199002  0  3.95829  0  0  0.021396  0.188638  0  3.922223  0
C  C64  1  0.39871202  0.61206371  0.09465664  1  0  -0.167065  0  3.686777  0  0  -0.186738  0  3.938472  0  0  -0.194556  0  3.958075  0  0  -0.080778  -0.181718  0  3.924986  0
C  C65  1  0.60128178  0.38793483  0.90534453  1  0  -0.167008  0  3.686757  0  0  -0.186686  0  3.938475  0  0  -0.194502  0  3.958069  0  0  -0.080741  -0.18166  0  3.92499  0
C  C66  1  0.49144176  0.70710116  0.99335152  1  0  0.139997  0  3.715442  0  0  0.107751  0  3.971846  0  0  0.116797  0  3.988743  0  0  0.04862  0.101861  0  3.959958  0
C  C67  1  0.50855257  0.29290485  0.00665327  1  0  0.139954  0  3.715505  0  0  0.107634  0  3.971936  0  0  0.116689  0  3.988827  0  0  0.048532  0.101756  0  3.960053  0
C  C68  1  0.14525933  0.44718310  0.19764445  1  0  -0.18451  0  3.665187  0  0  -0.223585  0  3.908617  0  0  -0.226093  0  3.919003  0  0  -0.165603  -0.221798  0  3.901094  0
C  C69  1  0.85472491  0.55281433  0.80235587  1  0  -0.184732  0  3.665353  0  0  -0.223866  0  3.90892  0  0  -0.226375  0  3.919306  0  0  -0.165644  -0.222075  0  3.901399  0
C  C70  1  0.99232575  0.52342743  0.22025536  1  0  -0.087143  0  3.680887  0  0  -0.129219  0  3.941309  0  0  -0.130024  0  3.955487  0  0  -0.162216  -0.128483  0  3.931327  0
C  C71  1  0.00766654  0.47656688  0.77974230  1  0  -0.086998  0  3.680744  0  0  -0.128951  0  3.94117  0  0  -0.129742  0  3.955329  0  0  -0.162107  -0.12822  0  3.931193  0
C  C72  1  0.01109737  0.63988356  0.27341990  1  0  -0.164153  0  3.692042  0  0  -0.205733  0  3.942457  0  0  -0.207564  0  3.95564  0  0  -0.155256  -0.204328  0  3.93301  0
C  C73  1  0.98890450  0.36011176  0.72658100  1  0  -0.164268  0  3.692187  0  0  -0.20592  0  3.942672  0  0  -0.207742  0  3.955842  0  0  -0.155379  -0.204515  0  3.93323  0
C  C74  1  0.87240647  0.73318540  0.27999230  1  0  0.162875  0  3.697479  0  0  0.176575  0  3.936811  0  0  0.182336  0  3.959275  0  0  0.017019  0.172907  0  3.921345  0
C  C75  1  0.12759573  0.26681401  0.72001543  1  0  0.162821  0  3.697554  0  0  0.176616  0  3.936762  0  0  0.182378  0  3.959226  0  0  0.017059  0.172946  0  3.9213  0
C  C76  1  0.73692059  0.71934796  0.23709566  1  0  -0.171456  0  3.71326  0  0  -0.187778  0  3.961593  0  0  -0.19701  0  3.985115  0  0  -0.08678  -0.181761  0  3.945732  0
C  C77  1  0.26307928  0.28065278  0.76290575  1  0  -0.171527  0  3.713327  0  0  -0.187854  0  3.961628  0  0  -0.197086  0  3.985145  0  0  -0.086793  -0.181837  0  3.945771  0
C  C78  1  0.61468788  0.81145790  0.24339693  1  0  0.125277  0  3.72027  0  0  0.093035  0  3.972264  0  0  0.101099  0  3.991353  0  0  0.04104  0.087979  0  3.95898  0
C  C79  1  0.38531915  0.18854411  0.75660089  1  0  0.125315  0  3.720326  0  0  0.093045  0  3.972373  0  0  0.101121  0  3.991451  0  0  0.041043  0.087986  0  3.95909  0
C  C80  1  0.75036481  0.93124388  0.33084058  1  0  0.12406  0  3.732667  0  0  0.089234  0  3.990239  0  0  0.097196  0  4.009226  0  0  0.036137  0.084035  0  3.9771  0
C  C81  1  0.24964468  0.06875910  0.66916062  1  0  0.123906  0  3.732938  0  0  0.089055  0  3.990533  0  0  0.097016  0  4.009523  0  0  0.036063  0.083858  0  3.977392  0
C  C82  1  0.87628323  0.84252018  0.32848564  1  0  -0.169508  0  3.690529  0  0  -0.186917  0  3.942302  0  0  -0.195803  0  3.963623  0  0  -0.084773  -0.181199  0  3.9282  0
C  C83  1  0.12372340  0.15747501  0.67151939  1  0  -0.169364  0  3.690574  0  0  -0.186784  0  3.942302  0  0  -0.195673  0  3.963628  0  0  -0.08472  -0.181068  0  3.928198  0
N  N84  1  0.45234997  0.73530874  0.89065865  1  0  -0.342646  0  3.251848  0  0  -0.267364  0  3.518988  0  0  -0.288629  0  3.538782  0  0  -0.33106  -0.252765  0  3.50523  0
N  N85  1  0.54765110  0.26469184  0.10934658  1  0  -0.34261  0  3.251614  0  0  -0.267291  0  3.518745  0  0  -0.28855  0  3.538504  0  0  -0.331044  -0.252681  0  3.504969  0
N  N86  1  0.62038305  0.91670368  0.28941737  1  0  -0.347451  0  3.261336  0  0  -0.2665  0  3.531688  0  0  -0.289557  0  3.552577  0  0  -0.331918  -0.250876  0  3.517058  0
N  N87  1  0.37963215  0.08329606  0.71058387  1  0  -0.347344  0  3.261388  0  0  -0.266353  0  3.531722  0  0  -0.289407  0  3.552607  0  0  -0.33189  -0.25073  0  3.517088  0
O  O88  1  0.81866257  0.87517919  0.80470659  1  0  -0.638336  0  1.957362  0  0  -0.575958  0  2.191424  0  0  -0.604691  0  2.183197  0  0  -0.334436  -0.556213  0  2.196046  0
O  O89  1  0.18132334  0.12482446  0.19530144  1  0  -0.638196  0  1.957655  0  0  -0.575834  0  2.191765  0  0  -0.604548  0  2.183502  0  0  -0.334316  -0.556088  0  2.196381  0
O  O90  1  0.67858483  0.05544147  0.83798439  1  0  -0.643938  0  1.946201  0  0  -0.585702  0  2.182558  0  0  -0.613045  0  2.173887  0  0  -0.336896  -0.566864  0  2.187369  0
O  O91  1  0.32140201  0.94455754  0.16203095  1  0  -0.643904  0  1.946235  0  0  -0.585712  0  2.182688  0  0  -0.613047  0  2.173985  0  0  -0.336929  -0.566873  0  2.187493  0
O  O92  1  0.63473074  0.75482876  0.62827491  1  0  -0.636135  0  1.997179  0  0  -0.571478  0  2.242669  0  0  -0.600753  0  2.233301  0  0  -0.32283  -0.550779  0  2.24794  0
O  O93  1  0.36526285  0.24516637  0.37172946  1  0  -0.636034  0  1.997355  0  0  -0.571389  0  2.242855  0  0  -0.600668  0  2.233488  0  0  -0.322729  -0.55068  0  2.248101  0
O  O94  1  0.38761763  0.80657665  0.60285665  1  0  -0.666509  0  2.009717  0  0  -0.607249  0  2.243997  0  0  -0.633198  0  2.232182  0  0  -0.328015  -0.589221  0  2.250673  0
O  O95  1  0.61237697  0.19341655  0.39714177  1  0  -0.666497  0  2.009746  0  0  -0.607269  0  2.24407  0  0  -0.633201  0  2.232211  0  0  -0.328022  -0.589241  0  2.250745  0
O  O96  1  0.77938937  0.06896191  0.55504245  1  0  -0.812171  0  1.813737  0  0  -0.755907  0  1.993744  0  0  -0.776585  0  1.964597  0  0  -0.58167  -0.740968  0  2.014049  0
O  O97  1  0.22060783  0.93103453  0.44495721  1  0  -0.812032  0  1.813931  0  0  -0.755786  0  1.993889  0  0  -0.776465  0  1.964745  0  0  -0.581597  -0.740836  0  2.014175  0
