# generated using pymatgen
data_FeH24C18(SN7)2
_symmetry_space_group_name_H-M   'P 1'
_cell_length_a   8.32852002
_cell_length_b   8.79499239
_cell_length_c   16.65345381
_cell_angle_alpha   89.99034132
_cell_angle_beta   89.99962853
_cell_angle_gamma   110.28310289
_symmetry_Int_Tables_number   1
_chemical_formula_structural   FeH24C18(SN7)2
_chemical_formula_sum   'Fe2 H48 C36 S4 N28'
_cell_volume   1144.21168771
_cell_formula_units_Z   2
loop_
 _symmetry_equiv_pos_site_id
 _symmetry_equiv_pos_as_xyz
  1  'x, y, z'
loop_
 _atom_site_type_symbol
 _atom_site_label
 _atom_site_symmetry_multiplicity
 _atom_site_fract_x
 _atom_site_fract_y
 _atom_site_fract_z
 _atom_site_occupancy
 _atom_site_hle17_bader_spin_density
 _atom_site_hle17_ddec_charge
 _atom_site_hle17_ddec_spin_density
 _atom_site_hle17_ddec_sum_bond_order
 _atom_site_hle17_magmom
 _atom_site_hse06_10hf_bader_spin_density
 _atom_site_hse06_10hf_ddec_charge
 _atom_site_hse06_10hf_ddec_spin_density
 _atom_site_hse06_10hf_ddec_sum_bond_order
 _atom_site_hse06_10hf_magmom
 _atom_site_hse06_bader_spin_density
 _atom_site_hse06_ddec_charge
 _atom_site_hse06_ddec_spin_density
 _atom_site_hse06_ddec_sum_bond_order
 _atom_site_hse06_magmom
 _atom_site_pbe_bader_spin_density
 _atom_site_pbe_cm5_charge
 _atom_site_pbe_ddec_charge
 _atom_site_pbe_ddec_spin_density
 _atom_site_pbe_ddec_sum_bond_order
 _atom_site_pbe_magmom
Fe  Fe0  1  0.00566498  0.98687832  0.50435923  1  0  0.560389  0  3.0557  0  0  0.523518  0  3.545654  0  0  0.578953  0  3.481012  0  0  0.71839  0.491271  0  3.585283  0
Fe  Fe1  1  0.99418766  0.51304299  0.00451451  1  0  0.559438  0  3.056715  0  0  0.522533  0  3.546604  0  0  0.577953  0  3.482009  0  0  0.718594  0.49029  0  3.586273  0
H  H2  1  0.73688810  0.48514342  0.29753765  1  0  0.075828  0  0.938266  0  0  0.08821  0  1.009412  0  0  0.089116  0  1.00888  0  0  0.108625  0.087516  0  1.009922  0
H  H3  1  0.26309092  0.01519052  0.79748395  1  0  0.075725  0  0.937338  0  0  0.08782  0  1.008726  0  0  0.088723  0  1.008165  0  0  0.108372  0.087135  0  1.009256  0
H  H4  1  0.25306275  0.51991012  0.70108614  1  0  0.079771  0  0.934869  0  0  0.091453  0  1.004861  0  0  0.092596  0  1.00432  0  0  0.109957  0.090568  0  1.005433  0
H  H5  1  0.74718954  0.98034464  0.20107118  1  0  0.080363  0  0.935244  0  0  0.091744  0  1.005331  0  0  0.092885  0  1.004826  0  0  0.110136  0.090858  0  1.005897  0
H  H6  1  0.63468440  0.47604865  0.39188140  1  0  0.075052  0  0.953461  0  0  0.08489  0  1.028871  0  0  0.084336  0  1.030427  0  0  0.100057  0.08526  0  1.027983  0
H  H7  1  0.36512465  0.02383261  0.89183801  1  0  0.075016  0  0.953407  0  0  0.084787  0  1.028683  0  0  0.084223  0  1.030244  0  0  0.100021  0.085161  0  1.027799  0
H  H8  1  0.35532981  0.52716599  0.60677429  1  0  0.077475  0  0.94662  0  0  0.086642  0  1.021401  0  0  0.086358  0  1.022755  0  0  0.102377  0.08678  0  1.020576  0
H  H9  1  0.64477528  0.97276681  0.10676811  1  0  0.07757  0  0.94613  0  0  0.086508  0  1.021063  0  0  0.086244  0  1.022403  0  0  0.102242  0.086631  0  1.020259  0
H  H10  1  0.55079090  0.18790349  0.27512647  1  0  0.067101  0  0.944111  0  0  0.08449  0  1.008791  0  0  0.085115  0  1.009626  0  0  0.09031  0.084  0  1.008252  0
H  H11  1  0.44943031  0.31244505  0.77527075  1  0  0.066942  0  0.943574  0  0  0.084575  0  1.008173  0  0  0.085206  0  1.009007  0  0  0.090331  0.084077  0  1.007643  0
H  H12  1  0.44476333  0.81440530  0.72425103  1  0  0.067391  0  0.943095  0  0  0.085176  0  1.006765  0  0  0.085861  0  1.007539  0  0  0.090155  0.084641  0  1.006226  0
H  H13  1  0.55562093  0.68597200  0.22455547  1  0  0.067319  0  0.943503  0  0  0.085355  0  1.006847  0  0  0.086073  0  1.007575  0  0  0.090027  0.084805  0  1.006322  0
H  H14  1  0.44471981  0.19345793  0.36731327  1  0  0.075522  0  0.945458  0  0  0.093853  0  1.00564  0  0  0.093762  0  1.007256  0  0  0.092168  0.093912  0  1.004477  0
H  H15  1  0.55539256  0.30646061  0.86746134  1  0  0.07555  0  0.945432  0  0  0.094051  0  1.005667  0  0  0.093917  0  1.007352  0  0  0.092199  0.094139  0  1.004454  0
H  H16  1  0.54967041  0.80818394  0.63177543  1  0  0.074374  0  0.949123  0  0  0.092212  0  1.010248  0  0  0.091937  0  1.012141  0  0  0.091908  0.092372  0  1.00893  0
H  H17  1  0.45066763  0.69165768  0.13201661  1  0  0.073958  0  0.949406  0  0  0.091929  0  1.010301  0  0  0.091663  0  1.012187  0  0  0.091758  0.092087  0  1.008999  0
H  H18  1  0.36981503  0.43027895  0.31201573  1  0  0.068661  0  0.956752  0  0  0.085338  0  1.022336  0  0  0.086315  0  1.022483  0  0  0.086936  0.08417  0  1.023106  0
H  H19  1  0.63002674  0.06964605  0.81202149  1  0  0.068568  0  0.956835  0  0  0.08529  0  1.022384  0  0  0.08627  0  1.022521  0  0  0.08675  0.08412  0  1.023157  0
H  H20  1  0.61847116  0.56663335  0.68633280  1  0  0.069878  0  0.956972  0  0  0.08618  0  1.023363  0  0  0.087269  0  1.023483  0  0  0.086478  0.085034  0  1.024057  0
H  H21  1  0.38169277  0.93341466  0.18627329  1  0  0.069826  0  0.957422  0  0  0.086087  0  1.023762  0  0  0.087177  0  1.023878  0  0  0.086405  0.084951  0  1.024433  0
H  H22  1  0.45993906  0.40385093  0.21876706  1  0  0.055405  0  0.959014  0  0  0.070284  0  1.030376  0  0  0.070422  0  1.031489  0  0  0.085034  0.070238  0  1.029432  0
H  H23  1  0.53989345  0.09632496  0.71880913  1  0  0.055345  0  0.958795  0  0  0.070047  0  1.030442  0  0  0.070179  0  1.031561  0  0  0.084913  0.070004  0  1.029499  0
H  H24  1  0.53176739  0.59621904  0.77997284  1  0  0.057387  0  0.955531  0  0  0.073042  0  1.025294  0  0  0.073393  0  1.026143  0  0  0.086257  0.072801  0  1.024594  0
H  H25  1  0.46822327  0.90401618  0.27999618  1  0  0.057314  0  0.955074  0  0  0.07317  0  1.024686  0  0  0.073528  0  1.025533  0  0  0.086008  0.07291  0  1.024003  0
H  H26  1  0.24618383  0.11753471  0.21110553  1  0  0.078523  0  0.940728  0  0  0.089796  0  1.013083  0  0  0.090197  0  1.013296  0  0  0.103713  0.089007  0  1.013783  0
H  H27  1  0.75394066  0.38248333  0.71110749  1  0  0.078386  0  0.940619  0  0  0.089877  0  1.012684  0  0  0.090271  0  1.012924  0  0  0.103749  0.089074  0  1.013367  0
H  H28  1  0.75005317  0.88334645  0.78390357  1  0  0.078316  0  0.936181  0  0  0.089306  0  1.008324  0  0  0.089671  0  1.008616  0  0  0.104899  0.088461  0  1.00894  0
H  H29  1  0.25012252  0.61676405  0.28395631  1  0  0.078543  0  0.936744  0  0  0.089564  0  1.00861  0  0  0.089927  0  1.008904  0  0  0.105053  0.088714  0  1.009229  0
H  H30  1  0.14837801  0.15514371  0.30065478  1  0  0.098835  0  0.926352  0  0  0.111243  0  0.991433  0  0  0.112232  0  0.991818  0  0  0.119379  0.110345  0  0.991298  0
H  H31  1  0.85171976  0.34469258  0.80062140  1  0  0.098773  0  0.926303  0  0  0.11108  0  0.991609  0  0  0.112076  0  0.991987  0  0  0.119219  0.110163  0  0.991469  0
H  H32  1  0.84594345  0.83674983  0.69608349  1  0  0.098287  0  0.931351  0  0  0.11078  0  0.996578  0  0  0.111837  0  0.996884  0  0  0.119665  0.109831  0  0.996498  0
H  H33  1  0.15426970  0.66326561  0.19608011  1  0  0.098575  0  0.931647  0  0  0.110915  0  0.996886  0  0  0.111967  0  0.997197  0  0  0.119642  0.109979  0  0.996787  0
H  H34  1  0.17005289  0.40110501  0.44923692  1  0  0.091579  0  0.950349  0  0  0.102374  0  1.010984  0  0  0.103348  0  1.009587  0  0  0.123887  0.101628  0  1.012404  0
H  H35  1  0.82996700  0.09889250  0.94934935  1  0  0.091659  0  0.950382  0  0  0.102507  0  1.010927  0  0  0.103472  0  1.009544  0  0  0.123985  0.10179  0  1.012311  0
H  H36  1  0.82549362  0.60695390  0.54718658  1  0  0.098913  0  0.950712  0  0  0.107846  0  1.012074  0  0  0.108852  0  1.010486  0  0  0.128051  0.106869  0  1.013993  0
H  H37  1  0.17465652  0.89286625  0.04724300  1  0  0.098906  0  0.950602  0  0  0.10773  0  1.012161  0  0  0.108731  0  1.010577  0  0  0.12794  0.106751  0  1.014083  0
H  H38  1  0.66730412  0.08998763  0.40527666  1  0  0.096526  0  0.943004  0  0  0.107392  0  1.007884  0  0  0.108385  0  1.006369  0  0  0.136758  0.106523  0  1.009245  0
H  H39  1  0.33270201  0.41006590  0.90537049  1  0  0.096681  0  0.942687  0  0  0.10764  0  1.007429  0  0  0.108662  0  1.005902  0  0  0.136762  0.106756  0  1.008784  0
H  H40  1  0.32956958  0.91628375  0.59298017  1  0  0.103646  0  0.944368  0  0  0.1125  0  1.010536  0  0  0.113845  0  1.008204  0  0  0.139813  0.111187  0  1.012717  0
H  H41  1  0.67049354  0.58371455  0.09319974  1  0  0.103643  0  0.944165  0  0  0.112353  0  1.01059  0  0  0.113775  0  1.008151  0  0  0.1398  0.11103  0  1.012793  0
H  H42  1  0.77982220  0.35659187  0.17062493  1  0  0.089173  0  0.941616  0  0  0.100015  0  1.002307  0  0  0.100969  0  1.000982  0  0  0.133357  0.099279  0  1.003338  0
H  H43  1  0.21993516  0.14303333  0.67051783  1  0  0.0887  0  0.941402  0  0  0.0997  0  1.001939  0  0  0.100661  0  1.000601  0  0  0.13331  0.098962  0  1.002974  0
H  H44  1  0.21183679  0.64773590  0.83702464  1  0  0.090524  0  0.939233  0  0  0.101485  0  0.999009  0  0  0.102451  0  0.997711  0  0  0.133755  0.100745  0  0.999978  0
H  H45  1  0.78782968  0.85159239  0.33698623  1  0  0.090444  0  0.939264  0  0  0.101478  0  0.998901  0  0  0.102474  0  0.997598  0  0  0.13373  0.100746  0  0.999849  0
H  H46  1  0.27080590  0.37886648  0.09687723  1  0  0.098386  0  0.969522  0  0  0.102893  0  1.043191  0  0  0.105003  0  1.040275  0  0  0.128952  0.101018  0  1.045977  0
H  H47  1  0.72907579  0.12117594  0.59684204  1  0  0.098063  0  0.969414  0  0  0.102661  0  1.043147  0  0  0.104827  0  1.040107  0  0  0.129008  0.100797  0  1.045914  0
H  H48  1  0.71959196  0.63391287  0.90398118  1  0  0.096137  0  0.981119  0  0  0.10101  0  1.054539  0  0  0.103258  0  1.051294  0  0  0.125605  0.0991  0  1.05745  0
H  H49  1  0.28053247  0.86666134  0.40383852  1  0  0.096151  0  0.980583  0  0  0.100924  0  1.054214  0  0  0.103197  0  1.050956  0  0  0.125716  0.099009  0  1.057141  0
C  C50  1  0.67160683  0.40321673  0.34651324  1  0  -0.016629  0  3.638956  0  0  -0.089764  0  3.892143  0  0  -0.086626  0  3.905158  0  0  -0.053928  -0.091618  0  3.882899  0
C  C51  1  0.32831437  0.09690780  0.84653488  1  0  -0.016438  0  3.637671  0  0  -0.088774  0  3.890196  0  0  -0.08559  0  3.903165  0  0  -0.053597  -0.090717  0  3.881086  0
C  C52  1  0.32013921  0.60108615  0.65219584  1  0  -0.01365  0  3.630068  0  0  -0.085745  0  3.882969  0  0  -0.082989  0  3.895739  0  0  -0.05163  -0.087422  0  3.874153  0
C  C53  1  0.68009720  0.89901440  0.15224901  1  0  -0.015032  0  3.631396  0  0  -0.086658  0  3.884647  0  0  -0.083955  0  3.897476  0  0  -0.051923  -0.08829  0  3.87574  0
C  C54  1  0.51331816  0.26758608  0.31638467  1  0  -0.124185  0  3.673107  0  0  -0.162912  0  3.929201  0  0  -0.164836  0  3.94457  0  0  -0.163066  -0.161169  0  3.917913  0
C  C55  1  0.48677657  0.23255215  0.81647894  1  0  -0.123909  0  3.671489  0  0  -0.163289  0  3.928088  0  0  -0.165209  0  3.943459  0  0  -0.163075  -0.161533  0  3.916767  0
C  C56  1  0.48014283  0.73413185  0.68253049  1  0  -0.124786  0  3.674346  0  0  -0.16328  0  3.930743  0  0  -0.165126  0  3.94617  0  0  -0.163189  -0.161567  0  3.919429  0
C  C57  1  0.52014964  0.76599525  0.18269575  1  0  -0.124487  0  3.676318  0  0  -0.162927  0  3.931995  0  0  -0.164839  0  3.947546  0  0  -0.162708  -0.161185  0  3.920604  0
C  C58  1  0.39485492  0.33999015  0.27296058  1  0  -0.121525  0  3.689289  0  0  -0.161058  0  3.947133  0  0  -0.162819  0  3.962143  0  0  -0.162989  -0.159598  0  3.936775  0
C  C59  1  0.60511325  0.16006925  0.77298893  1  0  -0.121306  0  3.688643  0  0  -0.160763  0  3.946835  0  0  -0.162497  0  3.961837  0  0  -0.162748  -0.159323  0  3.936449  0
C  C60  1  0.59671412  0.65857623  0.72543832  1  0  -0.121756  0  3.682703  0  0  -0.162261  0  3.942071  0  0  -0.164098  0  3.95689  0  0  -0.163467  -0.160829  0  3.931902  0
C  C61  1  0.40340748  0.84154827  0.22546385  1  0  -0.121535  0  3.682773  0  0  -0.162135  0  3.94156  0  0  -0.163975  0  3.956353  0  0  -0.163322  -0.160681  0  3.931378  0
C  C62  1  0.22514422  0.21221339  0.24819812  1  0  -0.014243  0  3.607231  0  0  -0.089148  0  3.863295  0  0  -0.085737  0  3.874132  0  0  -0.050739  -0.091005  0  3.855927  0
C  C63  1  0.77489516  0.28773403  0.74818750  1  0  -0.014226  0  3.606574  0  0  -0.089056  0  3.86276  0  0  -0.085652  0  3.873607  0  0  -0.050614  -0.090836  0  3.855309  0
C  C64  1  0.76848560  0.78455872  0.74904253  1  0  -0.015148  0  3.606276  0  0  -0.089007  0  3.864282  0  0  -0.085614  0  3.875162  0  0  -0.051376  -0.090665  0  3.856736  0
C  C65  1  0.23164482  0.71549539  0.24905285  1  0  -0.016232  0  3.607945  0  0  -0.089646  0  3.865503  0  0  -0.08625  0  3.876359  0  0  -0.051463  -0.091311  0  3.857959  0
C  C66  1  0.03775551  0.35568474  0.42936340  1  0  0.193275  0  3.708122  0  0  0.144027  0  4.004711  0  0  0.155658  0  4.018074  0  0  0.140776  0.13599  0  3.995334  0
C  C67  1  0.96222746  0.14434905  0.92947136  1  0  0.193407  0  3.70874  0  0  0.144109  0  4.005487  0  0  0.155738  0  4.018864  0  0  0.140898  0.136052  0  3.996114  0
C  C68  1  0.95717125  0.65175765  0.56760956  1  0  0.19693  0  3.662904  0  0  0.145125  0  3.959373  0  0  0.158366  0  3.971433  0  0  0.144496  0.135283  0  3.952144  0
C  C69  1  0.04297562  0.84815316  0.06768721  1  0  0.196573  0  3.661625  0  0  0.144719  0  3.958241  0  0  0.157955  0  3.97033  0  0  0.144437  0.134886  0  3.951004  0
C  C70  1  0.78373300  0.19489978  0.40776977  1  0  0.148091  0  3.678695  0  0  0.071837  0  3.953892  0  0  0.085059  0  3.967954  0  0  0.155096  0.063919  0  3.943118  0
C  C71  1  0.21622907  0.30515156  0.90785593  1  0  0.147583  0  3.679036  0  0  0.071246  0  3.954015  0  0  0.084418  0  3.968148  0  0  0.155173  0.063361  0  3.943205  0
C  C72  1  0.21273653  0.81215357  0.59039155  1  0  0.148941  0  3.62362  0  0  0.07028  0  3.897135  0  0  0.086011  0  3.909151  0  0  0.156009  0.06029  0  3.888547  0
C  C73  1  0.78735456  0.68783240  0.09054740  1  0  0.148641  0  3.622806  0  0  0.070284  0  3.896698  0  0  0.085984  0  3.908658  0  0  0.15613  0.06029  0  3.888138  0
C  C74  1  0.90532110  0.34553625  0.16997072  1  0  0.190194  0  3.678373  0  0  0.139853  0  3.971839  0  0  0.152113  0  3.98486  0  0  0.145722  0.131701  0  3.963172  0
C  C75  1  0.09449013  0.15423343  0.66989062  1  0  0.191413  0  3.677452  0  0  0.140958  0  3.971129  0  0  0.153213  0  3.984147  0  0  0.146128  0.132801  0  3.96245  0
C  C76  1  0.08648227  0.65909865  0.83546789  1  0  0.190805  0  3.676697  0  0  0.139246  0  3.972137  0  0  0.15148  0  3.985147  0  0  0.145779  0.130864  0  3.963822  0
C  C77  1  0.91330357  0.84051752  0.33539348  1  0  0.191346  0  3.676098  0  0  0.1397  0  3.971604  0  0  0.151902  0  3.984549  0  0  0.145949  0.131312  0  3.963322  0
C  C78  1  0.15509943  0.36122614  0.13122782  1  0  0.16623  0  3.602046  0  0  0.088401  0  3.871754  0  0  0.104  0  3.882326  0  0  0.160833  0.077858  0  3.865183  0
C  C79  1  0.84475435  0.13872131  0.63118171  1  0  0.167263  0  3.601618  0  0  0.089288  0  3.871888  0  0  0.104888  0  3.88248  0  0  0.161093  0.078745  0  3.865298  0
C  C80  1  0.83578695  0.64719131  0.87078370  1  0  0.163483  0  3.605921  0  0  0.087049  0  3.874315  0  0  0.103032  0  3.884281  0  0  0.159585  0.076414  0  3.86815  0
C  C81  1  0.16423774  0.85309805  0.37065099  1  0  0.164079  0  3.605251  0  0  0.087739  0  3.873856  0  0  0.103694  0  3.883812  0  0  0.159521  0.0771  0  3.867721  0
C  C82  1  0.62968851  0.78321817  0.47568929  1  0  0.243133  0  4.043091  0  0  0.235352  0  4.348085  0  0  0.25986  0  4.356621  0  0  0.126231  0.218265  0  4.343359  0
C  C83  1  0.37014523  0.71678536  0.97587299  1  0  0.243574  0  4.043383  0  0  0.235786  0  4.348271  0  0  0.26028  0  4.356814  0  0  0.126324  0.21871  0  4.343551  0
C  C84  1  0.37725029  0.20823529  0.52806314  1  0  0.241254  0  4.047693  0  0  0.233983  0  4.352649  0  0  0.258388  0  4.361758  0  0  0.125257  0.216977  0  4.347669  0
C  C85  1  0.62255538  0.29180666  0.02817233  1  0  0.240686  0  4.050168  0  0  0.233434  0  4.354969  0  0  0.257838  0  4.364082  0  0  0.124904  0.216426  0  4.350004  0
S  S86  1  0.44247856  0.67766604  0.44040012  1  0  -0.381803  0  2.079316  0  0  -0.370874  0  2.392903  0  0  -0.380192  0  2.38299  0  0  -0.1717  -0.364231  0  2.401346  0
S  S87  1  0.55729942  0.82237091  0.94051435  1  0  -0.382316  0  2.079231  0  0  -0.371408  0  2.392634  0  0  -0.380734  0  2.382709  0  0  -0.171859  -0.364759  0  2.401085  0
S  S88  1  0.56360676  0.32203656  0.56091401  1  0  -0.377255  0  2.073619  0  0  -0.366876  0  2.38658  0  0  -0.376865  0  2.377479  0  0  -0.171957  -0.359901  0  2.394442  0
S  S89  1  0.43615430  0.17788432  0.06094149  1  0  -0.377094  0  2.074375  0  0  -0.366754  0  2.387527  0  0  -0.376737  0  2.378452  0  0  -0.171778  -0.359777  0  2.395396  0
N  N90  1  0.79894819  0.34422355  0.38209330  1  0  0.036523  0  3.595543  0  0  0.159487  0  3.778575  0  0  0.150288  0  3.800818  0  0  -0.134976  0.165279  0  3.763634  0
N  N91  1  0.20097940  0.15585407  0.88215267  1  0  0.03642  0  3.595216  0  0  0.159498  0  3.777956  0  0  0.150307  0  3.800164  0  0  -0.13517  0.165297  0  3.763016  0
N  N92  1  0.19486090  0.66264619  0.61622716  1  0  0.041585  0  3.593426  0  0  0.161687  0  3.782206  0  0  0.153533  0  3.802645  0  0  -0.132948  0.166881  0  3.76847  0
N  N93  1  0.80533022  0.83738140  0.11633351  1  0  0.042643  0  3.593899  0  0  0.16183  0  3.783597  0  0  0.153694  0  3.804055  0  0  -0.133191  0.167012  0  3.769864  0
N  N94  1  0.96058222  0.44898489  0.39556485  1  0  -0.272589  0  2.857603  0  0  -0.276777  0  3.133284  0  0  -0.28629  0  3.149162  0  0  -0.226013  -0.269372  0  3.12231  0
N  N95  1  0.03934440  0.05107084  0.89564310  1  0  -0.272408  0  2.856993  0  0  -0.27676  0  3.132764  0  0  -0.286281  0  3.148637  0  0  -0.225971  -0.269351  0  3.1218  0
N  N96  1  0.03331304  0.55904689  0.60213887  1  0  -0.257161  0  2.856022  0  0  -0.265885  0  3.135317  0  0  -0.275284  0  3.149812  0  0  -0.22169  -0.259168  0  3.126029  0
N  N97  1  0.96689040  0.94092167  0.10219403  1  0  -0.257184  0  2.856099  0  0  -0.26548  0  3.135473  0  0  -0.274882  0  3.149965  0  0  -0.221501  -0.25877  0  3.126192  0
N  N98  1  0.93387118  0.19838800  0.43766889  1  0  -0.33722  0  3.137211  0  0  -0.294921  0  3.435515  0  0  -0.319944  0  3.451874  0  0  -0.30984  -0.27664  0  3.422542  0
N  N99  1  0.06607992  0.30160151  0.93777324  1  0  -0.337449  0  3.138234  0  0  -0.295195  0  3.436588  0  0  -0.320118  0  3.452727  0  0  -0.310001  -0.276911  0  3.423593  0
N  N100  1  0.06270419  0.80987480  0.55918394  1  0  -0.300764  0  3.316316  0  0  -0.256867  0  3.624746  0  0  -0.286821  0  3.64087  0  0  -0.341659  -0.23659  0  3.61232  0
N  N101  1  0.93734874  0.69005467  0.05934033  1  0  -0.299987  0  3.316265  0  0  -0.256  0  3.624488  0  0  -0.285971  0  3.640621  0  0  -0.341474  -0.235722  0  3.612047  0
N  N102  1  0.11926919  0.28275325  0.20192604  1  0  0.040428  0  3.565737  0  0  0.16558  0  3.74859  0  0  0.156696  0  3.768933  0  0  -0.132483  0.170788  0  3.735627  0
N  N103  1  0.88061031  0.21706666  0.70188900  1  0  0.040542  0  3.565844  0  0  0.165377  0  3.749163  0  0  0.15641  0  3.769688  0  0  -0.132415  0.170567  0  3.736184  0
N  N104  1  0.87197292  0.71550588  0.79771646  1  0  0.042965  0  3.567399  0  0  0.165287  0  3.753548  0  0  0.156165  0  3.774381  0  0  -0.133969  0.170297  0  3.740483  0
N  N105  1  0.12804132  0.78450484  0.29766625  1  0  0.043288  0  3.567444  0  0  0.164971  0  3.754108  0  0  0.155853  0  3.774933  0  0  -0.134019  0.169977  0  3.741053  0
N  N106  1  0.96034146  0.27102597  0.22743473  1  0  -0.266317  0  2.880646  0  0  -0.274562  0  3.160571  0  0  -0.282327  0  3.17442  0  0  -0.221007  -0.269024  0  3.15144  0
N  N107  1  0.03949414  0.22866461  0.72738775  1  0  -0.266701  0  2.879574  0  0  -0.274735  0  3.159668  0  0  -0.282493  0  3.17354  0  0  -0.221049  -0.26919  0  3.150529  0
N  N108  1  0.03150482  0.72470058  0.77430474  1  0  -0.270933  0  2.878735  0  0  -0.278541  0  3.160807  0  0  -0.286474  0  3.174537  0  0  -0.222458  -0.272646  0  3.151779  0
N  N109  1  0.96837626  0.77489446  0.27427869  1  0  -0.270484  0  2.87927  0  0  -0.277864  0  3.161536  0  0  -0.285794  0  3.175288  0  0  -0.22198  -0.271975  0  3.152507  0
N  N110  1  0.02139299  0.40367251  0.10939461  1  0  -0.306295  0  3.300079  0  0  -0.260325  0  3.601722  0  0  -0.287502  0  3.616959  0  0  -0.337278  -0.242765  0  3.591252  0
N  N111  1  0.97839432  0.09620043  0.60931468  1  0  -0.307657  0  3.299747  0  0  -0.261636  0  3.601559  0  0  -0.288811  0  3.616779  0  0  -0.337606  -0.244035  0  3.591057  0
N  N112  1  0.96978696  0.60943427  0.89650358  1  0  -0.301703  0  3.309354  0  0  -0.256196  0  3.612851  0  0  -0.283579  0  3.628193  0  0  -0.338894  -0.238494  0  3.602365  0
N  N113  1  0.03007634  0.89058133  0.39638111  1  0  -0.303266  0  3.310198  0  0  -0.257747  0  3.613858  0  0  -0.2851  0  3.629134  0  0  -0.33958  -0.24005  0  3.603397  0
N  N114  1  0.76792351  0.86219994  0.49961752  1  0  -0.470719  0  3.202331  0  0  -0.440953  0  3.508993  0  0  -0.46014  0  3.507745  0  0  -0.423734  -0.429349  0  3.509767  0
N  N115  1  0.23194492  0.63774161  0.99979130  1  0  -0.470417  0  3.202533  0  0  -0.440643  0  3.509176  0  0  -0.459803  0  3.507877  0  0  -0.423611  -0.429037  0  3.50994  0
N  N116  1  0.24010563  0.12234599  0.50592465  1  0  -0.471742  0  3.201782  0  0  -0.442734  0  3.508526  0  0  -0.462468  0  3.507696  0  0  -0.425462  -0.430909  0  3.509188  0
N  N117  1  0.75970790  0.37775615  0.00608877  1  0  -0.471279  0  3.20427  0  0  -0.442236  0  3.510876  0  0  -0.461968  0  3.510037  0  0  -0.425387  -0.430425  0  3.511565  0
