# generated using pymatgen
data_CuH2C6N7
_symmetry_space_group_name_H-M   'P 1'
_cell_length_a   31.91323647
_cell_length_b   32.59426967
_cell_length_c   32.62024404
_cell_angle_alpha   90.05052837
_cell_angle_beta   89.99366024
_cell_angle_gamma   89.77988038
_symmetry_Int_Tables_number   1
_chemical_formula_structural   CuH2C6N7
_chemical_formula_sum   'Cu12 H24 C72 N84'
_cell_volume   33930.94332085
_cell_formula_units_Z   12
loop_
 _symmetry_equiv_pos_site_id
 _symmetry_equiv_pos_as_xyz
  1  'x, y, z'
loop_
 _atom_site_type_symbol
 _atom_site_label
 _atom_site_symmetry_multiplicity
 _atom_site_fract_x
 _atom_site_fract_y
 _atom_site_fract_z
 _atom_site_occupancy
 _atom_site_pbe_bader_charge
 _atom_site_pbe_bader_spin_density
 _atom_site_pbe_cm5_charge
 _atom_site_pbe_ddec_charge
 _atom_site_pbe_ddec_spin_density
 _atom_site_pbe_ddec_sum_bond_order
 _atom_site_pbe_magmom
Cu  Cu0  1  0.12458334  0.83628026  0.91387955  1  0.557563  0  0.503688  0.22341  0  2.088825  0
Cu  Cu1  1  0.16422692  0.91668469  0.87548020  1  0.559608  0  0.502778  0.223698  0  2.08316  0
Cu  Cu2  1  0.08499328  0.87456403  0.83302811  1  0.561127  0  0.501726  0.223817  0  2.077576  0
Cu  Cu3  1  0.87512509  0.33652422  0.58611087  1  0.554944  0  0.502967  0.222992  0  2.08729  0
Cu  Cu4  1  0.83429314  0.41662803  0.62528815  1  0.561085  0  0.501317  0.223735  0  2.074841  0
Cu  Cu5  1  0.91523391  0.37542853  0.66621054  1  0.557952  0  0.502307  0.223099  0  2.08216  0
Cu  Cu6  1  0.62582122  0.66394383  0.08726329  1  0.556554  0  0.502839  0.222989  0  2.088834  0
Cu  Cu7  1  0.66501637  0.58237705  0.12470807  1  0.554865  0  0.502247  0.223906  0  2.077676  0
Cu  Cu8  1  0.58440047  0.62410856  0.16604507  1  0.557804  0  0.501712  0.223399  0  2.078699  0
Cu  Cu9  1  0.37584662  0.16333501  0.41439267  1  0.558414  0  0.503113  0.222931  0  2.087461  0
Cu  Cu10  1  0.33496603  0.08411951  0.37466414  1  0.558456  0  0.502501  0.223562  0  2.081635  0
Cu  Cu11  1  0.41457757  0.12582522  0.33260701  1  0.560464  0  0.502534  0.223247  0  2.080488  0
H  H12  1  0.19048389  0.81776531  0.98487333  1  0.119532  0  0.132665  0.123983  0  0.977829  0
H  H13  1  0.23495559  0.93585951  0.94212925  1  0.155432  0  0.132861  0.124217  0  0.976402  0
H  H14  1  0.01422815  0.80796268  0.81398397  1  0.138512  0  0.132519  0.123578  0  0.977194  0
H  H15  1  0.05878406  0.76566269  0.93235137  1  0.146765  0  0.132794  0.12426  0  0.977785  0
H  H16  1  0.18199330  0.98851971  0.81199316  1  0.158601  0  0.132383  0.123793  0  0.977009  0
H  H17  1  0.06759456  0.93825119  0.76099213  1  0.139306  0  0.132309  0.123163  0  0.977756  0
H  H18  1  0.81114029  0.31932173  0.51359097  1  0.146131  0  0.132523  0.123836  0  0.977907  0
H  H19  1  0.76160642  0.43443787  0.56013058  1  0.135037  0  0.132669  0.123674  0  0.977354  0
H  H20  1  0.98770674  0.30998977  0.68440778  1  0.135044  0  0.132421  0.123524  0  0.97746  0
H  H21  1  0.93977764  0.26404281  0.56874510  1  0.165371  0  0.132383  0.123714  0  0.978273  0
H  H22  1  0.81672149  0.48856611  0.68917036  1  0.148925  0  0.132255  0.123601  0  0.978026  0
H  H23  1  0.93285142  0.43909033  0.73795237  1  0.150364  0  0.132239  0.123012  0  0.977179  0
H  H24  1  0.69179244  0.68252256  0.01677871  1  0.143029  0  0.132534  0.123333  0  0.977693  0
H  H25  1  0.73593421  0.56338669  0.05783927  1  0.138573  0  0.132697  0.123921  0  0.976376  0
H  H26  1  0.51144265  0.68930067  0.18391869  1  0.143915  0  0.132681  0.124147  0  0.977325  0
H  H27  1  0.56158925  0.73678400  0.06986414  1  0.128889  0  0.132341  0.123308  0  0.978235  0
H  H28  1  0.68273539  0.51072297  0.18868241  1  0.130723  0  0.132262  0.123327  0  0.978201  0
H  H29  1  0.56680223  0.56048795  0.23770811  1  0.134987  0  0.132231  0.123079  0  0.977616  0
H  H30  1  0.31170189  0.18053548  0.48723447  1  0.126046  0  0.132297  0.123137  0  0.97718  0
H  H31  1  0.26272332  0.06590074  0.43988141  1  0.143986  0  0.132424  0.123795  0  0.976905  0
H  H32  1  0.48516243  0.19245754  0.31359746  1  0.146485  0  0.132618  0.123753  0  0.976687  0
H  H33  1  0.44176648  0.23388027  0.43276210  1  0.144932  0  0.132613  0.123703  0  0.977742  0
H  H34  1  0.31737582  0.01213611  0.31124926  1  0.149385  0  0.132387  0.123406  0  0.978283  0
H  H35  1  0.43205707  0.06206278  0.26055572  1  0.129568  0  0.13225  0.123531  0  0.97765  0
C  C36  1  0.65333107  0.37585909  0.40244019  1  1.127057  0  0.275609  0.35535  0  3.977837  0
C  C37  1  0.62468532  0.40369007  0.34584602  1  1.168201  0  0.276023  0.356032  0  3.975359  0
C  C38  1  0.59644585  0.34706705  0.37372798  1  1.091469  0  0.275168  0.351575  0  3.977063  0
C  C39  1  0.34601244  0.87642104  0.09740092  1  1.087602  0  0.275164  0.354192  0  3.977131  0
C  C40  1  0.40304332  0.84757207  0.12612691  1  1.1564  0  0.275508  0.355309  0  3.977345  0
C  C41  1  0.37443528  0.90429665  0.15399200  1  1.099682  0  0.275132  0.35237  0  3.977613  0
C  C42  1  0.15407339  0.12339484  0.59777157  1  1.144709  0  0.275913  0.354925  0  3.977841  0
C  C43  1  0.12542656  0.09560911  0.65426491  1  1.099188  0  0.275706  0.356229  0  3.975528  0
C  C44  1  0.09703614  0.15239111  0.62641519  1  1.167051  0  0.275981  0.353522  0  3.976517  0
C  C45  1  0.84680365  0.62400400  0.90288871  1  1.14647  0  0.275043  0.353973  0  3.974305  0
C  C46  1  0.90365702  0.65270547  0.87404584  1  1.131816  0  0.275716  0.354259  0  3.978192  0
C  C47  1  0.87518333  0.59615213  0.84612193  1  1.169534  0  0.275961  0.355676  0  3.978276  0
C  C48  1  0.19597549  0.84642200  0.96891363  1  0.484871  0  0.030125  -0.007841  0  3.921616  0
C  C49  1  0.22602647  0.87683276  0.97689749  1  0.048185  0  -0.029186  -0.092677  0  4.07919  0
C  C50  1  0.21861834  0.90717972  0.94712822  1  0.422223  0  0.030845  -0.005814  0  3.91656  0
C  C51  1  0.03056713  0.80304358  0.84273272  1  0.423297  0  0.030641  -0.005599  0  3.917764  0
C  C52  1  0.02320894  0.77340378  0.87317666  1  0.010367  0  -0.029401  -0.093284  0  4.07882  0
C  C53  1  0.05324904  0.78149280  0.90362027  1  0.448393  0  0.029964  -0.007154  0  3.919777  0
C  C54  1  0.15422164  0.97080082  0.80487333  1  0.439142  0  0.029954  -0.00689  0  3.91756  0
C  C55  1  0.12484267  0.97661151  0.77327905  1  0.028552  0  -0.028765  -0.09314  0  4.077904  0
C  C56  1  0.09534273  0.94518531  0.77887173  1  0.448248  0  0.030238  -0.005966  0  3.917433  0
C  C57  1  0.80437980  0.34726338  0.53046144  1  0.451501  0  0.029702  -0.007968  0  3.918851  0
C  C58  1  0.77304282  0.37687620  0.52340311  1  -0.024901  0  -0.029542  -0.093215  0  4.075868  0
C  C59  1  0.77914959  0.40648759  0.55419294  1  0.470633  0  0.030233  -0.005893  0  3.91654  0
C  C60  1  0.97053328  0.30421817  0.65630544  1  0.47047  0  0.030025  -0.006268  0  3.91765  0
C  C61  1  0.97711924  0.27359122  0.62658126  1  -0.019393  0  -0.028472  -0.092621  0  4.077354  0
C  C62  1  0.94612470  0.28079410  0.59679324  1  0.433677  0  0.029825  -0.007579  0  3.919806  0
C  C63  1  0.84491774  0.47107745  0.69575057  1  0.437324  0  0.029292  -0.008468  0  3.919228  0
C  C64  1  0.87481161  0.47709233  0.72682965  1  0.027599  0  -0.029652  -0.094191  0  4.077094  0
C  C65  1  0.90464901  0.44584966  0.72062441  1  0.412506  0  0.030213  -0.005401  0  3.916634  0
C  C66  1  0.69722658  0.65359465  0.03233104  1  0.395324  0  0.030025  -0.004959  0  3.918551  0
C  C67  1  0.72718067  0.62299266  0.02388150  1  0.066287  0  -0.029125  -0.093949  0  4.077376  0
C  C68  1  0.71968842  0.59231234  0.05324604  1  0.46953  0  0.030346  -0.006094  0  3.915603  0
C  C69  1  0.52914797  0.69544390  0.15622069  1  0.45891  0  0.030265  -0.006764  0  3.91871  0
C  C70  1  0.52316192  0.72649768  0.12686314  1  -0.020544  0  -0.029279  -0.093564  0  4.077099  0
C  C71  1  0.55471661  0.71965638  0.09753265  1  0.469098  0  0.030152  -0.006337  0  3.918533  0
C  C72  1  0.65458171  0.52827452  0.19530504  1  0.465576  0  0.02965  -0.007387  0  3.918583  0
C  C73  1  0.62475954  0.52240723  0.22647537  1  0.017805  0  -0.029409  -0.093712  0  4.076861  0
C  C74  1  0.59492302  0.55363297  0.22028616  1  0.45848  0  0.029863  -0.006165  0  3.917832  0
C  C75  1  0.30509887  0.15272891  0.47016375  1  0.445121  0  0.030144  -0.006216  0  3.917986  0
C  C76  1  0.27392817  0.12314071  0.47701547  1  0.092803  0  -0.029095  -0.093037  0  4.078531  0
C  C77  1  0.28015740  0.09373805  0.44601479  1  0.431004  0  0.030424  -0.006779  0  3.919615  0
C  C78  1  0.46907690  0.19718397  0.34252979  1  0.414927  0  0.0305  -0.005692  0  3.917137  0
C  C79  1  0.47678059  0.22654969  0.37319516  1  0.069923  0  -0.029148  -0.093528  0  4.07972  0
C  C80  1  0.44700762  0.21827030  0.40383420  1  0.452629  0  0.030167  -0.006717  0  3.918783  0
C  C81  1  0.34520875  0.02976572  0.30419292  1  0.449299  0  0.029829  -0.007115  0  3.918402  0
C  C82  1  0.37470226  0.02380697  0.27271038  1  0.046468  0  -0.028744  -0.091798  0  4.076685  0
C  C83  1  0.40422873  0.05522170  0.27834356  1  0.443835  0  0.030257  -0.007382  0  3.918176  0
C  C84  1  0.31342933  0.87664491  0.06484061  1  1.006563  0  0.247803  0.191804  0  3.951441  0
C  C85  1  0.25746398  0.87681631  0.00861297  1  0.897548  0  0.246183  0.281427  0  4.009964  0
C  C86  1  0.68586671  0.37623928  0.43512282  1  0.982215  0  0.248767  0.192868  0  3.952763  0
C  C87  1  0.74167394  0.37673529  0.49155770  1  0.975786  0  0.246152  0.279526  0  4.009896  0
C  C88  1  0.81438353  0.62366204  0.93563970  1  0.978804  0  0.247872  0.191448  0  3.949894  0
C  C89  1  0.75860178  0.62317908  0.99210623  1  0.955463  0  0.245918  0.279257  0  4.009641  0
C  C90  1  0.18671642  0.12312074  0.56521524  1  0.999505  0  0.248338  0.192125  0  3.956126  0
C  C91  1  0.24257100  0.12304393  0.50884803  1  0.934591  0  0.245545  0.280127  0  4.008248  0
C  C92  1  0.93611283  0.68532541  0.87371372  1  1.002038  0  0.247762  0.19127  0  3.95286  0
C  C93  1  0.99187197  0.74164319  0.87328051  1  0.97794  0  0.245737  0.279385  0  4.011313  0
C  C94  1  0.56403398  0.31442745  0.37350798  1  1.041045  0  0.247914  0.196585  0  3.944827  0
C  C95  1  0.50823386  0.25817488  0.37326371  1  0.923086  0  0.2458  0.279816  0  4.011162  0
C  C96  1  0.06448830  0.18518438  0.62658277  1  1.028914  0  0.248241  0.198437  0  3.943295  0
C  C97  1  0.00861612  0.24174633  0.62663400  1  0.960069  0  0.245948  0.279244  0  4.010877  0
C  C98  1  0.43568478  0.81484238  0.12643113  1  0.986041  0  0.248965  0.19349  0  3.952887  0
C  C99  1  0.49168756  0.75838312  0.12680049  1  0.978495  0  0.246542  0.280438  0  4.009184  0
C  C100  1  0.12529655  0.06333076  0.68650130  1  1.0135  0  0.248442  0.192601  0  3.955299  0
C  C101  1  0.12499690  0.00787291  0.74200828  1  0.910761  0  0.245398  0.279521  0  4.008294  0
C  C102  1  0.62466746  0.43589768  0.31352257  1  0.955171  0  0.248725  0.194447  0  3.954047  0
C  C103  1  0.62474373  0.49125617  0.25786936  1  0.938422  0  0.245522  0.279021  0  4.009017  0
C  C104  1  0.37447787  0.93666155  0.18619997  1  1.026968  0  0.249521  0.200855  0  3.945995  0
C  C105  1  0.37464996  0.99237605  0.24155854  1  0.930541  0  0.245647  0.278709  0  4.010403  0
C  C106  1  0.87510344  0.56388389  0.81378276  1  0.955172  0  0.248949  0.194966  0  3.952647  0
C  C107  1  0.87490376  0.50836900  0.75817403  1  0.97258  0  0.245781  0.279201  0  4.008011  0
N  N108  1  0.65496431  0.40575396  0.37427211  1  -1.102024  0  -0.291207  -0.364551  0  3.151283  0
N  N109  1  0.59447269  0.37530758  0.34389066  1  -1.141092  0  -0.29074  -0.362839  0  3.155552  0
N  N110  1  0.62503776  0.34560799  0.40382813  1  -1.140843  0  -0.2899  -0.362745  0  3.160047  0
N  N111  1  0.37464386  0.84623077  0.09589859  1  -1.145656  0  -0.290213  -0.363235  0  3.15703  0
N  N112  1  0.40473541  0.87576002  0.15605405  1  -1.107427  0  -0.29104  -0.36415  0  3.152016  0
N  N113  1  0.34413149  0.90632931  0.12561593  1  -1.156524  0  -0.289923  -0.362434  0  3.157145  0
N  N114  1  0.15577110  0.09345320  0.62590165  1  -1.159393  0  -0.290274  -0.363482  0  3.15228  0
N  N115  1  0.09516634  0.12419301  0.65626567  1  -1.118988  0  -0.290631  -0.363641  0  3.152397  0
N  N116  1  0.12560712  0.15371019  0.59631684  1  -1.139442  0  -0.290913  -0.363243  0  3.157109  0
N  N117  1  0.87524956  0.65414318  0.90430148  1  -1.167374  0  -0.289794  -0.362324  0  3.162355  0
N  N118  1  0.90544627  0.62448620  0.84411749  1  -1.122257  0  -0.291118  -0.363909  0  3.155188  0
N  N119  1  0.84495288  0.59418277  0.87458478  1  -1.109976  0  -0.291176  -0.364141  0  3.15463  0
N  N120  1  0.18671075  0.89550070  0.92307631  1  -0.79411  0  -0.33103  -0.136062  0  3.7361  0
N  N121  1  0.17231104  0.85800246  0.93694576  1  -0.772456  0  -0.332035  -0.135306  0  3.739457  0
N  N122  1  0.07685170  0.81338986  0.89198163  1  -0.783601  0  -0.331493  -0.135906  0  3.740166  0
N  N123  1  0.06243567  0.82711902  0.85438755  1  -0.780304  0  -0.33053  -0.135757  0  3.735118  0
N  N124  1  0.10653625  0.92225247  0.81124041  1  -0.776121  0  -0.330726  -0.136149  0  3.73532  0
N  N125  1  0.14286039  0.93846281  0.82767565  1  -0.77883  0  -0.331283  -0.136276  0  3.738418  0
N  N126  1  0.81154778  0.39516913  0.57790065  1  -0.774776  0  -0.329989  -0.136006  0  3.735798  0
N  N127  1  0.82747471  0.35858414  0.56287837  1  -0.789249  0  -0.331755  -0.135294  0  3.741376  0
N  N128  1  0.92275055  0.31316339  0.60810578  1  -0.790013  0  -0.33177  -0.135417  0  3.739633  0
N  N129  1  0.93818515  0.32799658  0.64485652  1  -0.776146  0  -0.33047  -0.135234  0  3.736581  0
N  N130  1  0.89318910  0.42287488  0.68840024  1  -0.798191  0  -0.331076  -0.136432  0  3.737879  0
N  N131  1  0.85629663  0.43880441  0.67267196  1  -0.775154  0  -0.329618  -0.134023  0  3.733287  0
N  N132  1  0.68781484  0.60397295  0.07748067  1  -0.787484  0  -0.330277  -0.135181  0  3.733507  0
N  N133  1  0.67354022  0.64182362  0.06415247  1  -0.764585  0  -0.331681  -0.137194  0  3.740539  0
N  N134  1  0.57784742  0.68711495  0.10877543  1  -0.791941  0  -0.331618  -0.135327  0  3.740248  0
N  N135  1  0.56169716  0.67178799  0.14500025  1  -0.778013  0  -0.330551  -0.135904  0  3.7377  0
N  N136  1  0.60631401  0.57649467  0.18798840  1  -0.766887  0  -0.330114  -0.135378  0  3.735015  0
N  N137  1  0.64314452  0.56045657  0.17218747  1  -0.788625  0  -0.330614  -0.135455  0  3.735447  0
N  N138  1  0.31246598  0.10516023  0.42237023  1  -0.790705  0  -0.330842  -0.135577  0  3.736657  0
N  N139  1  0.32823615  0.14157700  0.43765232  1  -0.788756  0  -0.331379  -0.13551  0  3.7392  0
N  N140  1  0.42324419  0.18650346  0.39210452  1  -0.783544  0  -0.331559  -0.135287  0  3.739268  0
N  N141  1  0.43727729  0.17307343  0.35423991  1  -0.780943  0  -0.33055  -0.135349  0  3.735816  0
N  N142  1  0.39293960  0.07826770  0.31063752  1  -0.786233  0  -0.33119  -0.135286  0  3.736809  0
N  N143  1  0.35652185  0.06218229  0.32696508  1  -0.774184  0  -0.331039  -0.135775  0  3.738527  0
N  N144  1  0.29413606  0.84072662  0.05702381  1  -0.525671  0  -0.149337  -0.120898  0  3.195084  0
N  N145  1  0.30586405  0.91266910  0.04588064  1  -0.523259  0  -0.149429  -0.121204  0  3.195003  0
N  N146  1  0.27736762  0.91276054  0.01662688  1  -0.516636  0  -0.158188  -0.157517  0  3.162673  0
N  N147  1  0.26501661  0.84081680  0.02838961  1  -0.519755  0  -0.157769  -0.157015  0  3.162819  0
N  N148  1  0.69106084  0.41162778  0.45589898  1  -0.505436  0  -0.150984  -0.123728  0  3.191338  0
N  N149  1  0.70748997  0.34112703  0.44116879  1  -0.542087  0  -0.150808  -0.123297  0  3.193352  0
N  N150  1  0.73659209  0.34144927  0.46983734  1  -0.515384  0  -0.157101  -0.154847  0  3.161261  0
N  N151  1  0.71940928  0.41182786  0.48532012  1  -0.581425  0  -0.157874  -0.155699  0  3.15938  0
N  N152  1  0.80709850  0.58752322  0.95438286  1  -0.52972  0  -0.150303  -0.121868  0  3.192215  0
N  N153  1  0.79495933  0.65957205  0.94386158  1  -0.527827  0  -0.149827  -0.121416  0  3.195322  0
N  N154  1  0.76595427  0.65932590  0.97261538  1  -0.556708  0  -0.157683  -0.155982  0  3.162597  0
N  N155  1  0.77869908  0.58726503  0.98374058  1  -0.559515  0  -0.157254  -0.155475  0  3.158557  0
N  N156  1  0.19245481  0.08776940  0.54444434  1  -0.560561  0  -0.150575  -0.122412  0  3.193695  0
N  N157  1  0.20784494  0.15837256  0.55923752  1  -0.561118  0  -0.149968  -0.122296  0  3.194573  0
N  N158  1  0.23697541  0.15826921  0.53059746  1  -0.518494  0  -0.157399  -0.155491  0  3.161175  0
N  N159  1  0.22083832  0.08778248  0.51505259  1  -0.523225  0  -0.157576  -0.156626  0  3.160102  0
N  N160  1  0.94334138  0.70428070  0.83768080  1  -0.576345  0  -0.149964  -0.12174  0  3.19299  0
N  N161  1  0.95568671  0.69317045  0.90951132  1  -0.532597  0  -0.148891  -0.119955  0  3.196  0
N  N162  1  0.98468216  0.72184526  0.90928307  1  -0.520942  0  -0.157874  -0.156539  0  3.163669  0
N  N163  1  0.97172221  0.73357435  0.83745195  1  -0.508812  0  -0.157727  -0.156186  0  3.160305  0
N  N164  1  0.55656566  0.29552491  0.33745404  1  -0.570084  0  -0.149288  -0.122081  0  3.190996  0
N  N165  1  0.54484000  0.30641259  0.40944716  1  -0.539022  0  -0.149325  -0.122275  0  3.194985  0
N  N166  1  0.51582579  0.27775687  0.40932838  1  -0.521024  0  -0.157637  -0.156508  0  3.16418  0
N  N167  1  0.52816545  0.26626138  0.33732453  1  -0.51503  0  -0.15812  -0.157121  0  3.161573  0
N  N168  1  0.05854298  0.20568130  0.66203304  1  -0.494768  0  -0.150484  -0.125152  0  3.190587  0
N  N169  1  0.04370863  0.19165166  0.59116116  1  -0.611147  0  -0.150401  -0.124568  0  3.190727  0
N  N170  1  0.01457166  0.22041308  0.59123613  1  -0.468578  0  -0.157271  -0.155443  0  3.162487  0
N  N171  1  0.03014535  0.23517788  0.66201330  1  -0.58803  0  -0.157582  -0.15534  0  3.159094  0
N  N172  1  0.44101465  0.79398808  0.16173172  1  -0.497464  0  -0.151261  -0.12422  0  3.190549  0
N  N173  1  0.45726283  0.80890296  0.09137041  1  -0.552664  0  -0.150402  -0.12296  0  3.192864  0
N  N174  1  0.48647965  0.78020782  0.09163204  1  -0.499834  0  -0.157835  -0.155905  0  3.161426  0
N  N175  1  0.46946928  0.76453834  0.16186244  1  -0.584998  0  -0.157682  -0.155497  0  3.157323  0
N  N176  1  0.08941812  0.04223615  0.69159683  1  -0.477851  0  -0.150764  -0.124071  0  3.191085  0
N  N177  1  0.16102986  0.05795722  0.70790040  1  -0.563793  0  -0.150236  -0.123359  0  3.191482  0
N  N178  1  0.16079146  0.02978512  0.73688671  1  -0.502871  0  -0.157586  -0.155254  0  3.158395  0
N  N179  1  0.08934578  0.01327644  0.71979527  1  -0.582245  0  -0.1573  -0.154635  0  3.157604  0
N  N180  1  0.66063994  0.44119435  0.29253520  1  -0.503578  0  -0.151091  -0.124932  0  3.193612  0
N  N181  1  0.58876644  0.45712097  0.30801255  1  -0.487217  0  -0.151019  -0.12439  0  3.192187  0
N  N182  1  0.58888330  0.48601970  0.27974359  1  -0.585127  0  -0.156987  -0.154497  0  3.159384  0
N  N183  1  0.66061232  0.46931119  0.26349433  1  -0.559142  0  -0.15718  -0.154469  0  3.160116  0
N  N184  1  0.41027387  0.95792845  0.19116078  1  -0.485448  0  -0.151364  -0.126468  0  3.191143  0
N  N185  1  0.33881208  0.94188547  0.20775856  1  -0.581324  0  -0.150737  -0.125583  0  3.188697  0
N  N186  1  0.33899580  0.97018555  0.23667313  1  -0.495011  0  -0.157616  -0.155575  0  3.159745  0
N  N187  1  0.41027920  0.98701787  0.21928168  1  -0.582586  0  -0.15763  -0.15527  0  3.160639  0
N  N188  1  0.83921342  0.55880819  0.79260856  1  -0.508668  0  -0.151435  -0.125115  0  3.192416  0
N  N189  1  0.91089052  0.54243247  0.80842038  1  -0.48204  0  -0.150866  -0.124499  0  3.191813  0
N  N190  1  0.91070751  0.51345433  0.78018115  1  -0.581699  0  -0.157322  -0.154816  0  3.158705  0
N  N191  1  0.83918950  0.53061606  0.76358731  1  -0.549327  0  -0.157271  -0.154421  0  3.159861  0
