# generated using pymatgen
data_AgH7C9IN
_symmetry_space_group_name_H-M   'P 1'
_cell_length_a   4.38241127
_cell_length_b   12.60576589
_cell_length_c   16.47898494
_cell_angle_alpha   89.99980645
_cell_angle_beta   90.00020769
_cell_angle_gamma   95.67242066
_symmetry_Int_Tables_number   1
_chemical_formula_structural   AgH7C9IN
_chemical_formula_sum   'Ag4 H28 C36 I4 N4'
_cell_volume   905.90149402
_cell_formula_units_Z   4
loop_
 _symmetry_equiv_pos_site_id
 _symmetry_equiv_pos_as_xyz
  1  'x, y, z'
loop_
 _atom_site_type_symbol
 _atom_site_label
 _atom_site_symmetry_multiplicity
 _atom_site_fract_x
 _atom_site_fract_y
 _atom_site_fract_z
 _atom_site_occupancy
 _atom_site_hle17_bader_spin_density
 _atom_site_hle17_ddec_charge
 _atom_site_hle17_ddec_spin_density
 _atom_site_hle17_ddec_sum_bond_order
 _atom_site_hle17_magmom
 _atom_site_hse06_10hf_bader_spin_density
 _atom_site_hse06_10hf_ddec_charge
 _atom_site_hse06_10hf_ddec_spin_density
 _atom_site_hse06_10hf_ddec_sum_bond_order
 _atom_site_hse06_10hf_magmom
 _atom_site_hse06_bader_spin_density
 _atom_site_hse06_ddec_charge
 _atom_site_hse06_ddec_spin_density
 _atom_site_hse06_ddec_sum_bond_order
 _atom_site_hse06_magmom
 _atom_site_pbe_bader_spin_density
 _atom_site_pbe_cm5_charge
 _atom_site_pbe_ddec_charge
 _atom_site_pbe_ddec_spin_density
 _atom_site_pbe_ddec_sum_bond_order
 _atom_site_pbe_magmom
Ag  Ag0  1  0.24356959  0.53075730  0.43966547  1  0  0.306725  0  1.888369  0  0  0.208403  0  2.382051  0  0  0.234879  0  2.334051  0  0  0.235037  0.190447  0  2.415139  0
Ag  Ag1  1  0.25643275  0.96924006  0.93966415  1  0  0.306714  0  1.888354  0  0  0.208388  0  2.382047  0  0  0.234859  0  2.334047  0  0  0.235038  0.190436  0  2.415123  0
Ag  Ag2  1  0.75643555  0.46924291  0.56033524  1  0  0.306677  0  1.888397  0  0  0.208355  0  2.382082  0  0  0.234828  0  2.334081  0  0  0.235022  0.190398  0  2.415171  0
Ag  Ag3  1  0.74356530  0.03075938  0.06033414  1  0  0.306697  0  1.888375  0  0  0.208372  0  2.382065  0  0  0.234842  0  2.334064  0  0  0.235034  0.190424  0  2.415129  0
H  H4  1  0.75244609  0.35337032  0.38247796  1  0  0.059009  0  0.973645  0  0  0.062488  0  1.05458  0  0  0.065286  0  1.050638  0  0  0.092692  0.060322  0  1.057559  0
H  H5  1  0.74754507  0.14663076  0.88247868  1  0  0.059014  0  0.973651  0  0  0.062493  0  1.054592  0  0  0.065288  0  1.05065  0  0  0.092696  0.06033  0  1.057567  0
H  H6  1  0.24755325  0.64663311  0.61752275  1  0  0.058991  0  0.97366  0  0  0.06247  0  1.054615  0  0  0.065268  0  1.050671  0  0  0.09271  0.06031  0  1.05758  0
H  H7  1  0.25245702  0.85336707  0.11752142  1  0  0.059046  0  0.973635  0  0  0.062522  0  1.054586  0  0  0.065319  0  1.050641  0  0  0.092701  0.060357  0  1.057562  0
H  H8  1  0.52402649  0.25920308  0.25985330  1  0  0.102877  0  0.950938  0  0  0.11744  0  1.003247  0  0  0.120013  0  1.003654  0  0  0.104983  0.115618  0  1.003099  0
H  H9  1  0.97597123  0.24079525  0.75985461  1  0  0.102904  0  0.95092  0  0  0.11746  0  1.003233  0  0  0.120033  0  1.003642  0  0  0.104995  0.115635  0  1.003091  0
H  H10  1  0.47596777  0.74079877  0.74014801  1  0  0.102881  0  0.950908  0  0  0.117465  0  1.003186  0  0  0.120039  0  1.003592  0  0  0.104965  0.11564  0  1.003042  0
H  H11  1  0.02403541  0.75920256  0.24014610  1  0  0.102879  0  0.950919  0  0  0.117453  0  1.003209  0  0  0.120026  0  1.003618  0  0  0.104977  0.115626  0  1.003069  0
H  H12  1  0.72761959  0.31230115  0.12259670  1  0  0.091643  0  0.972909  0  0  0.099931  0  1.042952  0  0  0.102997  0  1.040191  0  0  0.08869  0.097508  0  1.045279  0
H  H13  1  0.77238176  0.18770010  0.62259613  1  0  0.091688  0  0.972853  0  0  0.099962  0  1.042908  0  0  0.103029  0  1.040146  0  0  0.088696  0.097531  0  1.045241  0
H  H14  1  0.27237845  0.68769830  0.87740401  1  0  0.091721  0  0.972922  0  0  0.100012  0  1.042941  0  0  0.103078  0  1.040178  0  0  0.088724  0.097587  0  1.045276  0
H  H15  1  0.22762389  0.81230170  0.37740398  1  0  0.091686  0  0.972845  0  0  0.099947  0  1.04293  0  0  0.103014  0  1.040167  0  0  0.08868  0.097528  0  1.045254  0
H  H16  1  0.08276580  0.43521128  0.03994126  1  0  0.0903  0  0.96931  0  0  0.100837  0  1.034603  0  0  0.103343  0  1.033711  0  0  0.096984  0.099034  0  1.03527  0
H  H17  1  0.41722612  0.06478952  0.53994114  1  0  0.090341  0  0.969272  0  0  0.100859  0  1.034588  0  0  0.103367  0  1.033695  0  0  0.097007  0.099055  0  1.035253  0
H  H18  1  0.91723401  0.56478656  0.96005885  1  0  0.090301  0  0.969317  0  0  0.100836  0  1.034613  0  0  0.103341  0  1.033723  0  0  0.096979  0.099035  0  1.035282  0
H  H19  1  0.58276762  0.93521075  0.46005835  1  0  0.090238  0  0.969285  0  0  0.100781  0  1.034583  0  0  0.103288  0  1.033691  0  0  0.09695  0.09898  0  1.035248  0
H  H20  1  0.47608361  0.59264101  0.03276847  1  0  0.085457  0  0.980986  0  0  0.094615  0  1.047257  0  0  0.097136  0  1.046811  0  0  0.090839  0.092757  0  1.0478  0
H  H21  1  0.02391219  0.90736037  0.53276769  1  0  0.085483  0  0.981037  0  0  0.094642  0  1.047301  0  0  0.097164  0  1.046854  0  0  0.090851  0.092784  0  1.047841  0
H  H22  1  0.52391594  0.40735604  0.96723102  1  0  0.085452  0  0.980982  0  0  0.09461  0  1.047255  0  0  0.097131  0  1.046809  0  0  0.090834  0.092752  0  1.047797  0
H  H23  1  0.97608435  0.09264148  0.46723180  1  0  0.085473  0  0.981017  0  0  0.094632  0  1.047279  0  0  0.097154  0  1.046832  0  0  0.090844  0.092774  0  1.047818  0
H  H24  1  0.67952095  0.67924539  0.15849890  1  0  0.085263  0  0.956603  0  0  0.097236  0  1.016378  0  0  0.099654  0  1.015595  0  0  0.096636  0.095486  0  1.016977  0
H  H25  1  0.82047695  0.82075311  0.65849802  1  0  0.085323  0  0.956539  0  0  0.097266  0  1.016344  0  0  0.099683  0  1.015561  0  0  0.096673  0.095516  0  1.016932  0
H  H26  1  0.32047912  0.32075325  0.84150060  1  0  0.085325  0  0.956529  0  0  0.097263  0  1.016337  0  0  0.09968  0  1.015554  0  0  0.09666  0.095511  0  1.016937  0
H  H27  1  0.17951907  0.17924714  0.34150086  1  0  0.085309  0  0.956556  0  0  0.097254  0  1.016356  0  0  0.099672  0  1.015573  0  0  0.09665  0.095503  0  1.016953  0
H  H28  1  0.48744013  0.61326088  0.29426028  1  0  0.095487  0  0.975555  0  0  0.102302  0  1.049677  0  0  0.105673  0  1.047165  0  0  0.088491  0.099829  0  1.051595  0
H  H29  1  0.01255865  0.88673866  0.79426015  1  0  0.095513  0  0.975487  0  0  0.102317  0  1.04962  0  0  0.105687  0  1.047107  0  0  0.088492  0.099833  0  1.051546  0
H  H30  1  0.51256475  0.38673854  0.70573982  1  0  0.095484  0  0.975506  0  0  0.10231  0  1.049632  0  0  0.10568  0  1.04712  0  0  0.088492  0.099836  0  1.051548  0
H  H31  1  0.98743940  0.11326078  0.20574055  1  0  0.095522  0  0.975463  0  0  0.102334  0  1.049594  0  0  0.105702  0  1.047083  0  0  0.088504  0.099857  0  1.051509  0
C  C32  1  0.83494295  0.37677828  0.32185530  1  0  0.1403  0  3.709967  0  0  0.107531  0  3.967402  0  0  0.116834  0  3.983724  0  0  0.045173  0.101543  0  3.95618  0
C  C33  1  0.66504440  0.12322066  0.82185540  1  0  0.140272  0  3.70978  0  0  0.107495  0  3.967225  0  0  0.1168  0  3.983545  0  0  0.045134  0.101508  0  3.956014  0
C  C34  1  0.16504903  0.62322358  0.67814541  1  0  0.140384  0  3.709875  0  0  0.1076  0  3.96733  0  0  0.116901  0  3.983648  0  0  0.045185  0.101609  0  3.956116  0
C  C35  1  0.33495769  0.87677717  0.17814349  1  0  0.140232  0  3.709743  0  0  0.107456  0  3.967176  0  0  0.11676  0  3.983493  0  0  0.045111  0.101467  0  3.955963  0
C  C36  1  0.70696659  0.32343283  0.25272423  1  0  -0.122264  0  3.753386  0  0  -0.132721  0  4.001847  0  0  -0.140493  0  4.024042  0  0  -0.089778  -0.127721  0  3.986816  0
C  C37  1  0.79302980  0.17656873  0.75272492  1  0  -0.122232  0  3.753278  0  0  -0.13268  0  4.001736  0  0  -0.140453  0  4.023931  0  0  -0.089749  -0.127679  0  3.986709  0
C  C38  1  0.29302540  0.67656903  0.74727587  1  0  -0.122303  0  3.753263  0  0  -0.132767  0  4.001719  0  0  -0.140541  0  4.023916  0  0  -0.089764  -0.127763  0  3.98669  0
C  C39  1  0.20697508  0.82343068  0.24727518  1  0  -0.122265  0  3.753239  0  0  -0.132718  0  4.0017  0  0  -0.140492  0  4.023897  0  0  -0.089761  -0.127717  0  3.986677  0
C  C40  1  0.81904635  0.35286069  0.17721170  1  0  -0.041759  0  3.704347  0  0  -0.066247  0  3.951318  0  0  -0.062994  0  3.969395  0  0  -0.06904  -0.068097  0  3.939051  0
C  C41  1  0.68095314  0.14713955  0.67721176  1  0  -0.041875  0  3.704374  0  0  -0.066353  0  3.951333  0  0  -0.063101  0  3.969408  0  0  -0.069075  -0.068198  0  3.939075  0
C  C42  1  0.18094993  0.64714035  0.82278961  1  0  -0.041884  0  3.704391  0  0  -0.066342  0  3.951392  0  0  -0.063088  0  3.969467  0  0  -0.06911  -0.068195  0  3.939129  0
C  C43  1  0.31904744  0.85286068  0.32278774  1  0  -0.041835  0  3.7043  0  0  -0.066313  0  3.95129  0  0  -0.063059  0  3.969364  0  0  -0.069053  -0.068165  0  3.939024  0
C  C44  1  0.17125651  0.47558969  0.09483540  1  0  -0.107084  0  3.749775  0  0  -0.12621  0  3.995072  0  0  -0.127936  0  4.016865  0  0  -0.090491  -0.124781  0  3.98019  0
C  C45  1  0.32874293  0.02441086  0.59483531  1  0  -0.107075  0  3.749719  0  0  -0.12619  0  3.995009  0  0  -0.127918  0  4.016802  0  0  -0.0905  -0.124762  0  3.980128  0
C  C46  1  0.82874128  0.52440896  0.90516470  1  0  -0.107079  0  3.749813  0  0  -0.126177  0  3.995127  0  0  -0.127902  0  4.01692  0  0  -0.090498  -0.124759  0  3.980255  0
C  C47  1  0.67125563  0.97559018  0.40516418  1  0  -0.107047  0  3.74976  0  0  -0.126178  0  3.995069  0  0  -0.127906  0  4.016862  0  0  -0.090493  -0.124756  0  3.980194  0
C  C48  1  0.39003821  0.56187071  0.09106089  1  0  -0.07567  0  3.772254  0  0  -0.088555  0  4.021735  0  0  -0.092098  0  4.044497  0  0  -0.095395  -0.086234  0  4.006303  0
C  C49  1  0.10995806  0.93812963  0.59106012  1  0  -0.075753  0  3.772248  0  0  -0.088634  0  4.021718  0  0  -0.092178  0  4.044479  0  0  -0.095444  -0.086316  0  4.006285  0
C  C50  1  0.60996211  0.43812872  0.90893921  1  0  -0.075678  0  3.772221  0  0  -0.088559  0  4.02168  0  0  -0.092102  0  4.044443  0  0  -0.09541  -0.086239  0  4.006251  0
C  C51  1  0.89003797  0.06187062  0.40893938  1  0  -0.075727  0  3.772299  0  0  -0.088603  0  4.021761  0  0  -0.092147  0  4.044525  0  0  -0.09542  -0.086282  0  4.006328  0
C  C52  1  0.50537311  0.61155239  0.16318001  1  0  -0.045509  0  3.767013  0  0  -0.060511  0  4.015232  0  0  -0.061283  0  4.037678  0  0  -0.087123  -0.059731  0  3.999812  0
C  C53  1  0.99462738  0.88844688  0.66317974  1  0  -0.045599  0  3.767013  0  0  -0.060579  0  4.015238  0  0  -0.061351  0  4.037682  0  0  -0.087189  -0.059795  0  3.999816  0
C  C54  1  0.49462898  0.38844544  0.83681948  1  0  -0.045585  0  3.766916  0  0  -0.060551  0  4.015137  0  0  -0.061323  0  4.037583  0  0  -0.08715  -0.059767  0  3.999714  0
C  C55  1  0.00537294  0.11155255  0.33682036  1  0  -0.045567  0  3.767021  0  0  -0.060547  0  4.015236  0  0  -0.061319  0  4.03768  0  0  -0.087151  -0.059767  0  3.999813  0
C  C56  1  0.39913660  0.57579226  0.23808693  1  0  -0.143385  0  3.720328  0  0  -0.160975  0  3.969167  0  0  -0.166048  0  3.990721  0  0  -0.092085  -0.157554  0  3.9546  0
C  C57  1  0.10086123  0.92420671  0.73808496  1  0  -0.143383  0  3.720326  0  0  -0.160955  0  3.969155  0  0  -0.166027  0  3.99071  0  0  -0.09206  -0.157529  0  3.954595  0
C  C58  1  0.60086626  0.42420796  0.76191439  1  0  -0.14339  0  3.720384  0  0  -0.160997  0  3.9692  0  0  -0.166071  0  3.990755  0  0  -0.092095  -0.157582  0  3.954637  0
C  C59  1  0.89913656  0.07579194  0.26191514  1  0  -0.143388  0  3.720373  0  0  -0.160953  0  3.969195  0  0  -0.166026  0  3.990751  0  0  -0.092074  -0.157533  0  3.954626  0
C  C60  1  0.05293256  0.43805442  0.17062526  1  0  0.01323  0  3.799484  0  0  0.033779  0  4.020994  0  0  0.02971  0  4.04677  0  0  -0.007218  0.036288  0  4.003606  0
C  C61  1  0.44706756  0.06194503  0.67062397  1  0  0.013291  0  3.799584  0  0  0.033855  0  4.021068  0  0  0.029788  0  4.046843  0  0  -0.007184  0.036361  0  4.003678  0
C  C62  1  0.94706574  0.56194582  0.82937545  1  0  0.013255  0  3.799423  0  0  0.033709  0  4.02105  0  0  0.029639  0  4.046826  0  0  -0.007217  0.036225  0  4.003655  0
C  C63  1  0.55293328  0.93805600  0.32937553  1  0  0.013292  0  3.799373  0  0  0.033846  0  4.020904  0  0  0.029778  0  4.046678  0  0  -0.007222  0.036352  0  4.003521  0
C  C64  1  0.16795881  0.48928467  0.24357634  1  0  0.192015  0  3.769387  0  0  0.191353  0  3.998727  0  0  0.196933  0  4.02298  0  0  0.105492  0.187656  0  3.982328  0
C  C65  1  0.33203968  0.01071371  0.74357507  1  0  0.191932  0  3.769462  0  0  0.191249  0  3.998829  0  0  0.196827  0  4.023083  0  0  0.105425  0.187554  0  3.982425  0
C  C66  1  0.83203898  0.51071398  0.75642376  1  0  0.19205  0  3.769398  0  0  0.191432  0  3.998741  0  0  0.197009  0  4.022994  0  0  0.105541  0.187738  0  3.982335  0
C  C67  1  0.66796318  0.98928651  0.25642442  1  0  0.191984  0  3.769435  0  0  0.191274  0  3.998855  0  0  0.196851  0  4.02311  0  0  0.105493  0.187578  0  3.982452  0
I  I68  1  0.76334615  0.67218352  0.47145693  1  0  -0.398227  0  1.489286  0  0  -0.325787  0  1.916761  0  0  -0.346972  0  1.882749  0  0  -0.178552  -0.310816  0  1.940946  0
I  I69  1  0.73665411  0.82781614  0.97145718  1  0  -0.39823  0  1.489304  0  0  -0.325794  0  1.91678  0  0  -0.346975  0  1.882767  0  0  -0.178549  -0.310825  0  1.940964  0
I  I70  1  0.23665671  0.32781670  0.52854317  1  0  -0.398222  0  1.489287  0  0  -0.325785  0  1.916764  0  0  -0.346968  0  1.88275  0  0  -0.178556  -0.310809  0  1.940942  0
I  I71  1  0.26334419  0.17218410  0.02854232  1  0  -0.398236  0  1.489259  0  0  -0.325813  0  1.916765  0  0  -0.346985  0  1.882728  0  0  -0.178564  -0.310847  0  1.940937  0
N  N72  1  0.05827592  0.45593711  0.31820957  1  0  -0.328401  0  3.253347  0  0  -0.254895  0  3.524047  0  0  -0.274624  0  3.542381  0  0  -0.335317  -0.241534  0  3.51125  0
N  N73  1  0.44171717  0.04406259  0.81820953  1  0  -0.328315  0  3.25326  0  0  -0.254792  0  3.523959  0  0  -0.274517  0  3.542289  0  0  -0.335253  -0.241434  0  3.511159  0
N  N74  1  0.94172466  0.54406312  0.68179053  1  0  -0.32839  0  3.253371  0  0  -0.254891  0  3.524081  0  0  -0.274609  0  3.542404  0  0  -0.335322  -0.241533  0  3.511283  0
N  N75  1  0.55828543  0.95593683  0.18178996  1  0  -0.328299  0  3.253287  0  0  -0.25476  0  3.523988  0  0  -0.27448  0  3.542315  0  0  -0.335221  -0.241399  0  3.51118  0
