# generated using pymatgen
data_Zr3H8C24(Cl3O8)2
_symmetry_space_group_name_H-M   'P 1'
_cell_length_a   14.82551153
_cell_length_b   14.82530913
_cell_length_c   14.82556816
_cell_angle_alpha   60.00004227
_cell_angle_beta   59.99904520
_cell_angle_gamma   60.00074193
_symmetry_Int_Tables_number   1
_chemical_formula_structural   Zr3H8C24(Cl3O8)2
_chemical_formula_sum   'Zr6 H16 C48 Cl12 O32'
_cell_volume   2304.14195796
_cell_formula_units_Z   2
loop_
 _symmetry_equiv_pos_site_id
 _symmetry_equiv_pos_as_xyz
  1  'x, y, z'
loop_
 _atom_site_type_symbol
 _atom_site_label
 _atom_site_symmetry_multiplicity
 _atom_site_fract_x
 _atom_site_fract_y
 _atom_site_fract_z
 _atom_site_occupancy
 _atom_site_pbe_bader_charge
 _atom_site_pbe_bader_spin_density
 _atom_site_pbe_cm5_charge
 _atom_site_pbe_ddec_charge
 _atom_site_pbe_ddec_spin_density
 _atom_site_pbe_ddec_sum_bond_order
 _atom_site_pbe_magmom
Zr  Zr0  1  0.88079297  0.88076178  0.61924117  1  2.637183  0  1.627881  2.379052  0  2.752812  0
Zr  Zr1  1  0.11923258  0.11927790  0.38073615  1  2.635605  0  1.628009  2.379409  0  2.751832  0
Zr  Zr2  1  0.11924414  0.88080261  0.61922091  1  2.635027  0  1.627838  2.37909  0  2.752552  0
Zr  Zr3  1  0.88075670  0.11920426  0.38079657  1  2.637233  0  1.627912  2.379134  0  2.752742  0
Zr  Zr4  1  0.11923834  0.88074707  0.38076250  1  2.637437  0  1.627984  2.379384  0  2.751928  0
Zr  Zr5  1  0.88076019  0.11923996  0.61921353  1  2.634829  0  1.627898  2.379149  0  2.752625  0
H  H6  1  0.09376700  0.71871384  0.59376426  1  0.589432  0  0.332064  0.424036  0  0.854612  0
H  H7  1  0.09375693  0.09376428  0.21871183  1  0.619863  0  0.332029  0.42402  0  0.85461  0
H  H8  1  0.09376540  0.09375667  0.59376896  1  0.596559  0  0.332065  0.423988  0  0.854363  0
H  H9  1  0.71871784  0.09376388  0.59375487  1  0.610656  0  0.33205  0.42404  0  0.854768  0
H  H10  1  0.13614086  0.59468254  0.35969247  1  0.11981  0  0.11011  0.129648  0  1.012371  0
H  H11  1  0.85969445  0.40948622  0.63613375  1  0.120113  0  0.110108  0.129567  0  1.012469  0
H  H12  1  0.59468690  0.13613767  0.90948333  1  0.15916  0  0.110102  0.129601  0  1.012412  0
H  H13  1  0.40948825  0.85969183  0.09468586  1  0.158262  0  0.110111  0.129635  0  1.01238  0
H  H14  1  0.85969641  0.13612875  0.09468888  1  0.119439  0  0.110111  0.129574  0  1.012449  0
H  H15  1  0.13613399  0.85969417  0.90948383  1  0.120074  0  0.110061  0.129508  0  1.012525  0
H  H16  1  0.59469149  0.40948318  0.35969183  1  0.158319  0  0.110081  0.129513  0  1.012487  0
H  H17  1  0.40948524  0.59468476  0.63613252  1  0.159149  0  0.110074  0.129533  0  1.012525  0
H  H18  1  0.85970157  0.59467239  0.90948922  1  0.158388  0  0.110083  0.12956  0  1.012627  0
H  H19  1  0.13614002  0.40949338  0.09467322  1  0.159317  0  0.110128  0.129622  0  1.012448  0
H  H20  1  0.59467860  0.85969634  0.63613584  1  0.119885  0  0.110094  0.129573  0  1.012515  0
H  H21  1  0.40949734  0.13613375  0.35969246  1  0.120141  0  0.110119  0.129547  0  1.012581  0
C  C22  1  0.99357826  0.69962715  0.50086480  1  1.60094  0  0.23734  0.652418  0  4.084984  0
C  C23  1  0.30592750  0.00086462  0.19962761  1  1.583896  0  0.237314  0.65238  0  4.08486  0
C  C24  1  0.00086195  0.30593085  0.49358110  1  1.594689  0  0.237271  0.652216  0  4.084854  0
C  C25  1  0.69962848  0.99357889  0.80593042  1  1.586748  0  0.237242  0.652226  0  4.084947  0
C  C26  1  0.00085957  0.69963734  0.80592059  1  1.583969  0  0.237272  0.652425  0  4.085047  0
C  C27  1  0.69963295  0.00085015  0.49359296  1  1.601137  0  0.237244  0.652356  0  4.085268  0
C  C28  1  0.99358714  0.30592470  0.19963164  1  1.586778  0  0.237283  0.652361  0  4.085033  0
C  C29  1  0.30592258  0.99359403  0.50085709  1  1.594906  0  0.237275  0.652317  0  4.084982  0
C  C30  1  0.30592596  0.69963232  0.49357784  1  1.586998  0  0.237253  0.652302  0  4.084615  0
C  C31  1  0.99357625  0.00087036  0.80592409  1  1.594887  0  0.237193  0.652197  0  4.084981  0
C  C32  1  0.69962840  0.30592406  0.50086998  1  1.584879  0  0.237189  0.652201  0  4.084834  0
C  C33  1  0.00086900  0.99357683  0.19962657  1  1.600384  0  0.237147  0.652096  0  4.084898  0
C  C34  1  0.00367495  0.40666249  0.49163478  1  -0.006424  0  -0.012491  -0.074641  0  3.908289  0
C  C35  1  0.99163824  0.59802692  0.50367082  1  0.022407  0  -0.012431  -0.074647  0  3.908162  0
C  C36  1  0.08330929  0.45948110  0.41315986  1  0.046156  0  0.022798  0.137441  0  4.00555  0
C  C37  1  0.91316015  0.54405102  0.58330415  1  0.03892  0  0.022814  0.137491  0  4.005354  0
C  C38  1  0.07538546  0.55341636  0.42045417  1  0.054492  0  -0.083789  -0.149069  0  3.953505  0
C  C39  1  0.92045798  0.45074433  0.57538026  1  0.051841  0  -0.08384  -0.149079  0  3.95361  0
C  C40  1  0.40666665  0.00367354  0.09802723  1  -0.016539  0  -0.012551  -0.074723  0  3.908258  0
C  C41  1  0.59803109  0.99163305  0.90666519  1  -0.031389  0  -0.012551  -0.074662  0  3.90833  0
C  C42  1  0.45948715  0.08330645  0.04404942  1  0.022851  0  0.022859  0.137566  0  4.005427  0
C  C43  1  0.54405417  0.91315728  0.95948326  1  0.037908  0  0.022819  0.137475  0  4.005502  0
C  C44  1  0.55342286  0.07538114  0.95074197  1  0.063736  0  -0.083783  -0.149098  0  3.953473  0
C  C45  1  0.45074754  0.92045439  0.05341851  1  0.063795  0  -0.083792  -0.149088  0  3.953494  0
C  C46  1  0.99163777  0.00367186  0.90666015  1  -0.006782  0  -0.012432  -0.074531  0  3.907986  0
C  C47  1  0.00367621  0.99163463  0.09802660  1  0.0222  0  -0.012464  -0.074712  0  3.908262  0
C  C48  1  0.91316603  0.08330240  0.95948484  1  0.046634  0  0.022811  0.137453  0  4.005382  0
C  C49  1  0.08330874  0.91316085  0.04404507  1  0.038348  0  0.022839  0.13753  0  4.005468  0
C  C50  1  0.92046130  0.07537707  0.05341936  1  0.054534  0  -0.083938  -0.1491  0  3.953624  0
C  C51  1  0.07538229  0.92045905  0.95073851  1  0.052614  0  -0.083801  -0.149055  0  3.953612  0
C  C52  1  0.40666023  0.59802567  0.49163608  1  -0.031569  0  -0.01236  -0.074675  0  3.90812  0
C  C53  1  0.59802891  0.40665739  0.50367625  1  -0.016584  0  -0.012364  -0.074543  0  3.908092  0
C  C54  1  0.45948730  0.54404504  0.41316094  1  0.038469  0  0.022809  0.137466  0  4.005395  0
C  C55  1  0.54404494  0.45948247  0.58330726  1  0.022664  0  0.022786  0.137397  0  4.005371  0
C  C56  1  0.55342139  0.45073666  0.42046054  1  0.063254  0  -0.083897  -0.149067  0  3.953611  0
C  C57  1  0.45073880  0.55341744  0.57538015  1  0.064234  0  -0.083913  -0.149039  0  3.953708  0
C  C58  1  0.99163434  0.40666113  0.09802861  1  -0.031805  0  -0.012496  -0.074743  0  3.908189  0
C  C59  1  0.00367671  0.59803310  0.90665968  1  -0.016721  0  -0.012372  -0.074528  0  3.907916  0
C  C60  1  0.91316476  0.45948204  0.04404894  1  0.038286  0  0.02286  0.137529  0  4.0054  0
C  C61  1  0.08330497  0.54405322  0.95948142  1  0.023015  0  0.0228  0.137429  0  4.005291  0
C  C62  1  0.92046069  0.55341844  0.95074266  1  0.063452  0  -0.083951  -0.149183  0  3.953605  0
C  C63  1  0.07538087  0.45074595  0.05341789  1  0.063964  0  -0.083832  -0.149049  0  3.953392  0
C  C64  1  0.40665997  0.99163328  0.50367831  1  -0.006197  0  -0.012486  -0.074748  0  3.908293  0
C  C65  1  0.59803275  0.00367755  0.49163119  1  0.022233  0  -0.012404  -0.074545  0  3.908042  0
C  C66  1  0.45948596  0.91316323  0.58330295  1  0.046197  0  0.022836  0.137466  0  4.005395  0
C  C67  1  0.54405476  0.08330378  0.41316058  1  0.038914  0  0.02283  0.137465  0  4.00517  0
C  C68  1  0.55341875  0.92046182  0.57538128  1  0.054592  0  -0.083941  -0.14922  0  3.953572  0
C  C69  1  0.45074473  0.07538011  0.42045839  1  0.051759  0  -0.083828  -0.148958  0  3.953469  0
Cl  Cl70  1  0.19329280  0.41590152  0.30602143  1  -0.166367  0  0.002706  -0.059543  0  1.513266  0
Cl  Cl71  1  0.80601046  0.58479590  0.69328106  1  -0.177844  0  0.002694  -0.059558  0  1.513117  0
Cl  Cl72  1  0.41591066  0.19328936  0.08478606  1  -0.177714  0  0.002678  -0.059605  0  1.513194  0
Cl  Cl73  1  0.58480129  0.80601217  0.91590140  1  -0.178295  0  0.002685  -0.059557  0  1.513203  0
Cl  Cl74  1  0.80602157  0.19328046  0.91591170  1  -0.16651  0  0.002714  -0.059539  0  1.513229  0
Cl  Cl75  1  0.19328950  0.80601507  0.08478735  1  -0.17764  0  0.002702  -0.059569  0  1.513158  0
Cl  Cl76  1  0.41591559  0.58478605  0.30601476  1  -0.178537  0  0.002716  -0.059526  0  1.513196  0
Cl  Cl77  1  0.58478476  0.41590550  0.69328935  1  -0.1776  0  0.002702  -0.059534  0  1.513094  0
Cl  Cl78  1  0.80602390  0.41589505  0.08479896  1  -0.178261  0  0.002683  -0.059554  0  1.513123  0
Cl  Cl79  1  0.19328318  0.58480757  0.91589479  1  -0.177811  0  0.002627  -0.059617  0  1.513055  0
Cl  Cl80  1  0.41589931  0.80601785  0.69327961  1  -0.16654  0  0.002691  -0.059529  0  1.513072  0
Cl  Cl81  1  0.58480763  0.19328538  0.30601008  1  -0.178112  0  0.002641  -0.059626  0  1.512986  0
O  O82  1  0.91801942  0.74142345  0.57589399  1  -1.181437  0  -0.361345  -0.622268  0  2.367209  0
O  O83  1  0.26466639  0.07590390  0.24141497  1  -1.17899  0  -0.361418  -0.622303  0  2.367089  0
O  O84  1  0.07589970  0.26466434  0.41801534  1  -1.179384  0  -0.36147  -0.622361  0  2.36707  0
O  O85  1  0.74142319  0.91801424  0.76466355  1  -1.179159  0  -0.361349  -0.622269  0  2.366986  0
O  O86  1  0.07589289  0.74142610  0.76464586  1  -1.178877  0  -0.361281  -0.622346  0  2.367521  0
O  O87  1  0.74142139  0.07589591  0.41803648  1  -1.181419  0  -0.361503  -0.622449  0  2.367263  0
O  O88  1  0.91803421  0.26465239  0.24142585  1  -1.1791  0  -0.361224  -0.622253  0  2.367288  0
O  O89  1  0.26465163  0.91803238  0.57589565  1  -1.179207  0  -0.361486  -0.622331  0  2.367176  0
O  O90  1  0.26466862  0.74141361  0.41801124  1  -1.179368  0  -0.361417  -0.622323  0  2.366892  0
O  O91  1  0.91802155  0.07590316  0.76465686  1  -1.179282  0  -0.361235  -0.62222  0  2.367165  0
O  O92  1  0.74141897  0.26465442  0.57590637  1  -1.179108  0  -0.361442  -0.622369  0  2.367075  0
O  O93  1  0.07590700  0.91801790  0.24141452  1  -1.180938  0  -0.361354  -0.622215  0  2.366976  0
O  O94  1  0.07167068  0.92414415  0.76763467  1  -1.174698  0  -0.344273  -0.605166  0  2.27078  0
O  O95  1  0.73655437  0.26762832  0.42415029  1  -1.166086  0  -0.344199  -0.605077  0  2.270755  0
O  O96  1  0.92414892  0.07166527  0.23655159  1  -1.181343  0  -0.344136  -0.60501  0  2.270769  0
O  O97  1  0.26763659  0.73655520  0.57166326  1  -1.169526  0  -0.344171  -0.605048  0  2.270713  0
O  O98  1  0.92413311  0.73654683  0.76763854  1  -1.165288  0  -0.344269  -0.605198  0  2.270668  0
O  O99  1  0.26763922  0.07168639  0.42414026  1  -1.174897  0  -0.34412  -0.605001  0  2.270871  0
O  O100  1  0.07169243  0.26764066  0.23653724  1  -1.169418  0  -0.344351  -0.605245  0  2.270825  0
O  O101  1  0.73654798  0.92413338  0.57167799  1  -1.181489  0  -0.344007  -0.60497  0  2.270956  0
O  O102  1  0.73654982  0.07167131  0.76763879  1  -1.169448  0  -0.344227  -0.605115  0  2.270834  0
O  O103  1  0.07167904  0.73654230  0.42413847  1  -1.181359  0  -0.344321  -0.605288  0  2.2708  0
O  O104  1  0.26764413  0.92413651  0.23654648  1  -1.165215  0  -0.34422  -0.605168  0  2.270799  0
O  O105  1  0.92414207  0.26763922  0.57167185  1  -1.174615  0  -0.344149  -0.604989  0  2.270815  0
O  O106  1  0.79878231  0.06707110  0.56707284  1  -1.241278  0  -0.695718  -1.069174  0  2.368216  0
O  O107  1  0.06707370  0.06707851  0.56707237  1  -1.226556  0  -0.695698  -1.06917  0  2.367444  0
O  O108  1  0.06707335  0.06706959  0.29878089  1  -1.25036  0  -0.695614  -1.069182  0  2.367519  0
O  O109  1  0.06707212  0.79878055  0.56707267  1  -1.219963  0  -0.695723  -1.069193  0  2.367643  0
O  O110  1  0.14862732  0.95046653  0.45045128  1  -1.193857  0  -0.791056  -1.149861  0  2.129361  0
O  O111  1  0.95045771  0.95045171  0.45046311  1  -1.200567  0  -0.79121  -1.149481  0  2.129549  0
O  O112  1  0.95045759  0.14863034  0.45045807  1  -1.192868  0  -0.791167  -1.149485  0  2.12935  0
O  O113  1  0.95045285  0.95046063  0.64862783  1  -1.193228  0  -0.791179  -1.149398  0  2.129467  0
