# generated using pymatgen
data_BiH9C10(ClO2)2
_symmetry_space_group_name_H-M   'P 1'
_cell_length_a   8.72499055
_cell_length_b   9.96363374
_cell_length_c   14.45200000
_cell_angle_alpha   90.00000000
_cell_angle_beta   90.00000000
_cell_angle_gamma   90.00000000
_symmetry_Int_Tables_number   1
_chemical_formula_structural   BiH9C10(ClO2)2
_chemical_formula_sum   'Bi4 H36 C40 Cl8 O16'
_cell_volume   1256.35008290
_cell_formula_units_Z   4
loop_
 _symmetry_equiv_pos_site_id
 _symmetry_equiv_pos_as_xyz
  1  'x, y, z'
loop_
 _atom_site_type_symbol
 _atom_site_label
 _atom_site_symmetry_multiplicity
 _atom_site_fract_x
 _atom_site_fract_y
 _atom_site_fract_z
 _atom_site_occupancy
 _atom_site_hle17_bader_spin_density
 _atom_site_hle17_ddec_charge
 _atom_site_hle17_ddec_spin_density
 _atom_site_hle17_ddec_sum_bond_order
 _atom_site_hle17_magmom
 _atom_site_hse06_10hf_bader_spin_density
 _atom_site_hse06_10hf_ddec_charge
 _atom_site_hse06_10hf_ddec_spin_density
 _atom_site_hse06_10hf_ddec_sum_bond_order
 _atom_site_hse06_10hf_magmom
 _atom_site_hse06_bader_spin_density
 _atom_site_hse06_ddec_charge
 _atom_site_hse06_ddec_spin_density
 _atom_site_hse06_ddec_sum_bond_order
 _atom_site_hse06_magmom
 _atom_site_pbe_bader_charge
 _atom_site_pbe_bader_spin_density
 _atom_site_pbe_cm5_charge
 _atom_site_pbe_ddec_charge
 _atom_site_pbe_ddec_spin_density
 _atom_site_pbe_ddec_sum_bond_order
 _atom_site_pbe_magmom
Bi  Bi0  1  0.36548349  0.75814509  0.17763493  1  0  1.372213  0  2.117607  0  0  1.17193  0  2.557998  0  0  1.233796  0  2.524281  0  1.642081  0  0.727696  1.128765  0  2.581131  0
Bi  Bi1  1  0.86548403  0.24185253  0.82236507  1  0  1.372227  0  2.117594  0  0  1.171975  0  2.557986  0  0  1.233829  0  2.524275  0  1.642091  0  0.727709  1.128807  0  2.581119  0
Bi  Bi2  1  0.36548464  0.25814578  0.82236715  1  0  1.372229  0  2.117599  0  0  1.171974  0  2.557999  0  0  1.233829  0  2.524287  0  1.642115  0  0.727696  1.128807  0  2.581132  0
Bi  Bi3  1  0.86548289  0.74185385  0.17763493  1  0  1.37223  0  2.117615  0  0  1.171952  0  2.558015  0  0  1.233815  0  2.524294  0  1.642109  0  0.727693  1.128785  0  2.581147  0
H  H4  1  0.99916899  0.11623671  0.14006781  1  0  0.139492  0  0.932271  0  0  0.144062  0  1.00085  0  0  0.147365  0  0.998591  0  0.152969  0  0.107577  0.141818  0  1.002326  0
H  H5  1  0.49916845  0.88376492  0.85993288  1  0  0.139507  0  0.932286  0  0  0.144046  0  1.000893  0  0  0.147349  0  0.998636  0  0.153017  0  0.107576  0.141811  0  1.002343  0
H  H6  1  0.99916784  0.61623602  0.85993288  1  0  0.139488  0  0.932284  0  0  0.144052  0  1.000878  0  0  0.147357  0  0.998619  0  0.153029  0  0.107568  0.14181  0  1.002349  0
H  H7  1  0.49916730  0.38376862  0.14006089  1  0  0.139515  0  0.932412  0  0  0.144076  0  1.000978  0  0  0.14737  0  0.998747  0  0.153148  0  0.107577  0.141839  0  1.002434  0
H  H8  1  0.01231749  0.04534591  0.02689732  1  0  0.138331  0  0.925172  0  0  0.14802  0  0.988432  0  0  0.151136  0  0.986256  0  0.159235  0  0.109097  0.145815  0  0.990102  0
H  H9  1  0.51231803  0.95465372  0.97310407  1  0  0.138332  0  0.925183  0  0  0.148016  0  0.988436  0  0  0.151133  0  0.98626  0  0.159222  0  0.109088  0.145809  0  0.990107  0
H  H10  1  0.01231749  0.54534722  0.97310407  1  0  0.138333  0  0.925165  0  0  0.148028  0  0.988421  0  0  0.151146  0  0.986244  0  0.15923  0  0.109097  0.145822  0  0.99009  0
H  H11  1  0.51231803  0.45465943  0.02689178  1  0  0.138317  0  0.925132  0  0  0.148011  0  0.988411  0  0  0.151129  0  0.986227  0  0.159176  0  0.109075  0.145805  0  0.990081  0
H  H12  1  0.20941914  0.99019196  0.31370675  1  0  0.079443  0  0.988402  0  0  0.090527  0  1.055356  0  0  0.093364  0  1.053457  0  0.095858  0  0.087481  0.088614  0  1.056647  0
H  H13  1  0.70942083  0.00980666  0.68629463  1  0  0.079415  0  0.988448  0  0  0.090496  0  1.055404  0  0  0.093352  0  1.053487  0  0.095838  0  0.087469  0.088582  0  1.056696  0
H  H14  1  0.20941570  0.49019164  0.68629601  1  0  0.079368  0  0.988424  0  0  0.090537  0  1.055278  0  0  0.093393  0  1.053361  0  0.095784  0  0.087497  0.088623  0  1.056569  0
H  H15  1  0.70941853  0.50980698  0.31370675  1  0  0.079391  0  0.988461  0  0  0.090478  0  1.055408  0  0  0.093334  0  1.053488  0  0.095832  0  0.08745  0.088565  0  1.056699  0
H  H16  1  0.23769653  0.06429582  0.47621436  1  0  0.084204  0  0.972344  0  0  0.094101  0  1.035895  0  0  0.096179  0  1.036891  0  0.074516  0  0.093673  0.092708  0  1.035081  0
H  H17  1  0.73769364  0.93570280  0.52378564  1  0  0.084166  0  0.972358  0  0  0.094064  0  1.035914  0  0  0.096143  0  1.036909  0  0.074479  0  0.09365  0.09267  0  1.0351  0
H  H18  1  0.23768851  0.56429413  0.52378702  1  0  0.084152  0  0.972428  0  0  0.094059  0  1.035965  0  0  0.096122  0  1.036977  0  0.074396  0  0.093643  0.092664  0  1.035152  0
H  H19  1  0.73769478  0.43570249  0.47621367  1  0  0.084169  0  0.972352  0  0  0.094072  0  1.035908  0  0  0.096152  0  1.0369  0  0.074479  0  0.093656  0.092677  0  1.035095  0
H  H20  1  0.40502508  0.93653182  0.58477512  1  0  0.089622  0  0.968575  0  0  0.097275  0  1.036432  0  0  0.100707  0  1.034134  0  0.063568  0  0.093759  0.094889  0  1.037919  0
H  H21  1  0.90502104  0.06346681  0.41522419  1  0  0.0896  0  0.968592  0  0  0.09727  0  1.036424  0  0  0.100701  0  1.034127  0  0.063558  0  0.093763  0.094882  0  1.037913  0
H  H22  1  0.40501935  0.43653251  0.41522696  1  0  0.089635  0  0.968606  0  0  0.097294  0  1.036444  0  0  0.100724  0  1.034146  0  0.063615  0  0.093785  0.094906  0  1.037931  0
H  H23  1  0.90502333  0.56346612  0.58477512  1  0  0.089617  0  0.968591  0  0  0.097282  0  1.036429  0  0  0.100714  0  1.03413  0  0.06356  0  0.093762  0.094895  0  1.037916  0
H  H24  1  0.54433411  0.73356771  0.52888043  1  0  0.07903  0  0.974885  0  0  0.086609  0  1.043443  0  0  0.089142  0  1.043091  0  0.068957  0  0.091056  0.084798  0  1.043662  0
H  H25  1  0.04433243  0.26642991  0.47111957  1  0  0.078974  0  0.974923  0  0  0.086578  0  1.043469  0  0  0.089114  0  1.043107  0  0.06896  0  0.091036  0.084769  0  1.043686  0
H  H26  1  0.54433182  0.23357141  0.47112164  1  0  0.07896  0  0.974934  0  0  0.086562  0  1.043467  0  0  0.089091  0  1.043125  0  0.068723  0  0.091029  0.084759  0  1.043678  0
H  H27  1  0.04433243  0.76643022  0.52888043  1  0  0.078971  0  0.974919  0  0  0.086565  0  1.043478  0  0  0.089101  0  1.043114  0  0.068669  0  0.091036  0.084762  0  1.04369  0
H  H28  1  0.51734612  0.65955355  0.36703709  1  0  0.083579  0  0.982952  0  0  0.096356  0  1.046187  0  0  0.098399  0  1.045867  0  0.086035  0  0.094196  0.095001  0  1.046193  0
H  H29  1  0.01734787  0.34044407  0.63296222  1  0  0.08362  0  0.982836  0  0  0.096381  0  1.046089  0  0  0.098423  0  1.045769  0  0.086115  0  0.094211  0.095026  0  1.046094  0
H  H30  1  0.51734727  0.15955625  0.63296499  1  0  0.083601  0  0.982878  0  0  0.096362  0  1.046128  0  0  0.098406  0  1.045807  0  0.085779  0  0.094199  0.095008  0  1.046133  0
H  H31  1  0.01734558  0.84044539  0.36703778  1  0  0.083605  0  0.982877  0  0  0.09639  0  1.0461  0  0  0.098433  0  1.04578  0  0.086099  0  0.094209  0.095034  0  1.046107  0
H  H32  1  0.02050776  0.38067437  0.20168143  1  0  0.135058  0  0.943742  0  0  0.14098  0  1.012918  0  0  0.144071  0  1.011018  0  0.148611  0  0.105026  0.138928  0  1.014179  0
H  H33  1  0.52051059  0.61932525  0.79831650  1  0  0.134961  0  0.943868  0  0  0.140907  0  1.013032  0  0  0.144  0  1.011131  0  0.148662  0  0.104984  0.138854  0  1.014294  0
H  H34  1  0.02050890  0.88067468  0.79831650  1  0  0.134971  0  0.943846  0  0  0.14091  0  1.013011  0  0  0.144002  0  1.011112  0  0.14866  0  0.10499  0.138857  0  1.014272  0
H  H35  1  0.52050715  0.11932695  0.20168212  1  0  0.135057  0  0.943741  0  0  0.14097  0  1.01293  0  0  0.144059  0  1.011033  0  0.148578  0  0.105027  0.138917  0  1.014193  0
H  H36  1  0.02665905  0.43739564  0.31827429  1  0  0.132872  0  0.936511  0  0  0.142784  0  0.995501  0  0  0.144385  0  0.996524  0  0.169899  0  0.110437  0.141742  0  0.994871  0
H  H37  1  0.52666418  0.56260197  0.68172294  1  0  0.132833  0  0.936433  0  0  0.142744  0  0.995446  0  0  0.144348  0  0.996469  0  0.169337  0  0.110429  0.141703  0  0.994815  0
H  H38  1  0.02666479  0.93739897  0.68172225  1  0  0.132855  0  0.936371  0  0  0.142742  0  0.995413  0  0  0.144345  0  0.996438  0  0.169345  0  0.110425  0.141701  0  0.994783  0
H  H39  1  0.52665845  0.06260467  0.31827429  1  0  0.132898  0  0.936487  0  0  0.142808  0  0.995478  0  0  0.14441  0  0.996502  0  0.169917  0  0.110444  0.141767  0  0.994849  0
C  C40  1  0.19810107  0.99424470  0.11687033  1  0  0.678533  0  3.856549  0  0  0.62458  0  4.161959  0  0  0.658643  0  4.156083  0  1.562809  0  0.205154  0.601426  0  4.165274  0
C  C41  1  0.69810276  0.00575292  0.88313175  1  0  0.678572  0  3.856652  0  0  0.624641  0  4.162025  0  0  0.658688  0  4.156152  0  1.563241  0  0.205187  0.601486  0  4.165342  0
C  C42  1  0.19810222  0.49424739  0.88313175  1  0  0.678561  0  3.856635  0  0  0.624634  0  4.162036  0  0  0.658681  0  4.156166  0  1.563242  0  0.205189  0.601477  0  4.165352  0
C  C43  1  0.69809932  0.50575324  0.11686687  1  0  0.678575  0  3.856599  0  0  0.624635  0  4.161992  0  0  0.658696  0  4.15611  0  1.562712  0  0.205158  0.60148  0  4.16531  0
C  C44  1  0.07794278  0.09255459  0.08322516  1  0  -0.198076  0  3.597842  0  0  -0.2395  0  3.866928  0  0  -0.241516  0  3.868808  0  0.006999  0  -0.12543  -0.238266  0  3.865803  0
C  C45  1  0.57794561  0.90744504  0.91677692  1  0  -0.19816  0  3.598013  0  0  -0.239532  0  3.86707  0  0  -0.241555  0  3.868962  0  0.006997  0  -0.125448  -0.238295  0  3.865948  0
C  C46  1  0.07794392  0.59255490  0.91677622  1  0  -0.198084  0  3.597854  0  0  -0.239511  0  3.866942  0  0  -0.241538  0  3.868841  0  0.006971  0  -0.12544  -0.238277  0  3.865817  0
C  C47  1  0.57793988  0.40744974  0.08322378  1  0  -0.198078  0  3.598039  0  0  -0.239483  0  3.867099  0  0  -0.241501  0  3.868969  0  0.006959  0  -0.125413  -0.238244  0  3.865975  0
C  C48  1  0.36248062  0.82007230  0.32854415  1  0  -0.309042  0  3.666036  0  0  -0.248519  0  3.914495  0  0  -0.263107  0  3.94667  0  -0.359585  0  -0.117087  -0.238688  0  3.892889  0
C  C49  1  0.86248002  0.17992532  0.67145585  1  0  -0.309048  0  3.666097  0  0  -0.248528  0  3.914548  0  0  -0.263117  0  3.946728  0  -0.359526  0  -0.117087  -0.238697  0  3.892941  0
C  C50  1  0.36247948  0.32007499  0.67145931  1  0  -0.309126  0  3.666027  0  0  -0.248611  0  3.914519  0  0  -0.2632  0  3.946699  0  -0.359723  0  -0.117134  -0.238779  0  3.892914  0
C  C51  1  0.86248002  0.67992463  0.32854345  1  0  -0.309076  0  3.666032  0  0  -0.248556  0  3.914497  0  0  -0.263144  0  3.946676  0  -0.359519  0  -0.117115  -0.238726  0  3.892893  0
C  C52  1  0.28392237  0.93381995  0.36017714  1  0  -0.072047  0  3.846741  0  0  -0.091107  0  4.087378  0  0  -0.090692  0  4.111097  0  -0.0634  0  -0.107349  -0.091744  0  4.071694  0
C  C53  1  0.78392177  0.06617766  0.63982217  1  0  -0.072064  0  3.846805  0  0  -0.091109  0  4.08743  0  0  -0.090707  0  4.111137  0  -0.063406  0  -0.107348  -0.091749  0  4.071754  0
C  C54  1  0.28392008  0.43382265  0.63982425  1  0  -0.071923  0  3.846632  0  0  -0.091032  0  4.087279  0  0  -0.090636  0  4.110991  0  -0.063483  0  -0.107343  -0.091669  0  4.071596  0
C  C55  1  0.78392177  0.56617597  0.36017783  1  0  -0.072025  0  3.846752  0  0  -0.091071  0  4.087381  0  0  -0.09067  0  4.111088  0  -0.063426  0  -0.107304  -0.091708  0  4.071698  0
C  C56  1  0.29909603  0.97556577  0.45221215  1  0  -0.072004  0  3.748468  0  0  -0.079534  0  3.98851  0  0  -0.082755  0  4.010372  0  -0.088809  0  -0.096204  -0.077299  0  3.973357  0
C  C57  1  0.79909427  0.02443285  0.54778716  1  0  -0.071926  0  3.748586  0  0  -0.079464  0  3.988621  0  0  -0.082686  0  4.010489  0  -0.088833  0  -0.096176  -0.077229  0  3.973467  0
C  C58  1  0.29908915  0.47556545  0.54778854  1  0  -0.072016  0  3.748616  0  0  -0.07956  0  3.98868  0  0  -0.08277  0  4.010551  0  -0.088636  0  -0.096234  -0.077324  0  3.973526  0
C  C59  1  0.79909427  0.52443216  0.45221215  1  0  -0.071933  0  3.748571  0  0  -0.079483  0  3.988609  0  0  -0.082706  0  4.010477  0  -0.088833  0  -0.096209  -0.077248  0  3.973456  0
C  C60  1  0.39310644  0.90406876  0.51306532  1  0  -0.07256  0  3.765447  0  0  -0.086016  0  4.010034  0  0  -0.086937  0  4.030321  0  -0.00798  0  -0.093906  -0.085003  0  3.995742  0
C  C61  1  0.89310355  0.09592986  0.48693399  1  0  -0.072534  0  3.76537  0  0  -0.085999  0  4.009966  0  0  -0.086918  0  4.030249  0  -0.007983  0  -0.093886  -0.084986  0  3.99568  0
C  C62  1  0.39310186  0.40406945  0.48693606  1  0  -0.072573  0  3.765438  0  0  -0.086037  0  4.010041  0  0  -0.086954  0  4.030317  0  -0.007967  0  -0.093894  -0.085024  0  3.995752  0
C  C63  1  0.89310469  0.59593118  0.51306601  1  0  -0.072571  0  3.7654  0  0  -0.086035  0  4.009993  0  0  -0.086956  0  4.030278  0  -0.007974  0  -0.093883  -0.085023  0  3.995705  0
C  C64  1  0.47075696  0.79008826  0.48189247  1  0  -0.069339  0  3.761947  0  0  -0.077053  0  4.005911  0  0  -0.079867  0  4.027229  0  -0.050711  0  -0.094532  -0.075176  0  3.991094  0
C  C65  1  0.97075750  0.20991037  0.51810684  1  0  -0.069275  0  3.761839  0  0  -0.077018  0  4.005807  0  0  -0.07983  0  4.027123  0  -0.050715  0  -0.094539  -0.075144  0  3.99099  0
C  C66  1  0.47075466  0.29008995  0.51810891  1  0  -0.069161  0  3.761793  0  0  -0.076877  0  4.005743  0  0  -0.07969  0  4.027057  0  -0.050394  0  -0.094466  -0.075008  0  3.990923  0
C  C67  1  0.97075635  0.70991068  0.48189316  1  0  -0.069256  0  3.761891  0  0  -0.076986  0  4.005862  0  0  -0.079797  0  4.027179  0  -0.050427  0  -0.094524  -0.075116  0  3.991043  0
C  C68  1  0.45544347  0.74832739  0.39007404  1  0  -0.050094  0  3.808118  0  0  -0.072109  0  4.047103  0  0  -0.071698  0  4.072506  0  -0.085571  0  -0.101151  -0.07201  0  4.029438  0
C  C69  1  0.95544401  0.25167023  0.60992458  1  0  -0.050147  0  3.808052  0  0  -0.072147  0  4.047062  0  0  -0.071736  0  4.072461  0  -0.0856  0  -0.101165  -0.072044  0  4.029387  0
C  C70  1  0.45544462  0.24833008  0.60992735  1  0  -0.050165  0  3.808067  0  0  -0.072164  0  4.047065  0  0  -0.071752  0  4.072462  0  -0.085226  0  -0.101149  -0.072065  0  4.0294  0
C  C71  1  0.95544401  0.75167054  0.39007473  1  0  -0.050116  0  3.80806  0  0  -0.072137  0  4.047057  0  0  -0.071726  0  4.072457  0  -0.085587  0  -0.101149  -0.072039  0  4.029393  0
C  C72  1  0.20011025  0.52020981  0.23180667  1  0  0.692369  0  3.815292  0  0  0.639393  0  4.112084  0  0  0.674273  0  4.105954  0  1.577504  0  0.217565  0.615624  0  4.115763  0
C  C73  1  0.70011423  0.47979082  0.76819471  1  0  0.692312  0  3.815356  0  0  0.639357  0  4.112142  0  0  0.674239  0  4.106014  0  1.57747  0  0.217551  0.615588  0  4.115819  0
C  C74  1  0.20011368  0.02020749  0.76819402  1  0  0.692217  0  3.815412  0  0  0.639216  0  4.112269  0  0  0.6741  0  4.106144  0  1.577481  0  0.217488  0.615447  0  4.115945  0
C  C75  1  0.70010849  0.97978913  0.23180667  1  0  0.692482  0  3.815218  0  0  0.63955  0  4.111954  0  0  0.674432  0  4.105824  0  1.577583  0  0.217612  0.615784  0  4.115636  0
C  C76  1  0.09729523  0.40501489  0.25938348  1  0  -0.205921  0  3.61768  0  0  -0.246913  0  3.884357  0  0  -0.249193  0  3.886613  0  -0.001688  0  -0.12539  -0.245654  0  3.883077  0
C  C77  1  0.59730151  0.59498674  0.74061652  1  0  -0.205835  0  3.617784  0  0  -0.246805  0  3.884338  0  0  -0.249074  0  3.886562  0  -0.001342  0  -0.125406  -0.245549  0  3.883065  0
C  C78  1  0.09730211  0.90501319  0.74061652  1  0  -0.205832  0  3.617759  0  0  -0.246759  0  3.884321  0  0  -0.249028  0  3.886543  0  -0.001362  0  -0.125385  -0.245503  0  3.883046  0
C  C79  1  0.59729348  0.09498543  0.25938278  1  0  -0.205986  0  3.617638  0  0  -0.246986  0  3.884334  0  0  -0.249257  0  3.886563  0  -0.001678  0  -0.125414  -0.245735  0  3.883069  0
Cl  Cl80  1  0.15648728  0.24511339  0.04033421  1  0  -0.119466  0  1.353877  0  0  -0.097602  0  1.612307  0  0  -0.103029  0  1.604469  0  -0.260915  0  -0.027558  -0.093767  0  1.61749  0
Cl  Cl81  1  0.65648667  0.75488423  0.95966579  1  0  -0.119449  0  1.353946  0  0  -0.097608  0  1.612377  0  0  -0.103036  0  1.604542  0  -0.260945  0  -0.02756  -0.093774  0  1.617558  0
Cl  Cl82  1  0.15648613  0.74511671  0.95966579  1  0  -0.119476  0  1.353859  0  0  -0.09762  0  1.612316  0  0  -0.103047  0  1.604479  0  -0.260939  0  -0.027561  -0.093784  0  1.617498  0
Cl  Cl83  1  0.65648323  0.25488793  0.04033075  1  0  -0.119501  0  1.353896  0  0  -0.097637  0  1.612304  0  0  -0.103061  0  1.604469  0  -0.260954  0  -0.027565  -0.093803  0  1.617483  0
Cl  Cl84  1  0.19865809  0.25811567  0.29242458  1  0  -0.075858  0  1.321531  0  0  -0.051677  0  1.571302  0  0  -0.055496  0  1.563281  0  -0.245783  0  -0.010342  -0.048983  0  1.576611  0
Cl  Cl85  1  0.69866093  0.74188596  0.70757404  1  0  -0.075851  0  1.321546  0  0  -0.051687  0  1.571318  0  0  -0.05551  0  1.563298  0  -0.245577  0  -0.010324  -0.048992  0  1.576628  0
Cl  Cl86  1  0.19865924  0.75811398  0.70757404  1  0  -0.075844  0  1.321555  0  0  -0.051691  0  1.571314  0  0  -0.055514  0  1.563292  0  -0.245561  0  -0.010318  -0.048995  0  1.576625  0
Cl  Cl87  1  0.69865749  0.24188565  0.29242527  1  0  -0.075851  0  1.321492  0  0  -0.051665  0  1.571262  0  0  -0.055486  0  1.563241  0  -0.245784  0  -0.010341  -0.048971  0  1.576574  0
O  O88  1  0.14333884  0.89206812  0.16167728  1  0  -0.63846  0  2.069235  0  0  -0.558019  0  2.313259  0  0  -0.590959  0  2.309454  0  -1.157141  0  -0.285713  -0.535157  0  2.315043  0
O  O89  1  0.64334052  0.10793050  0.83832480  1  0  -0.638411  0  2.069313  0  0  -0.557993  0  2.313295  0  0  -0.590908  0  2.309525  0  -1.157552  0  -0.285675  -0.535125  0  2.315075  0
O  O90  1  0.14334113  0.39206780  0.83832618  1  0  -0.638401  0  2.069311  0  0  -0.558006  0  2.31334  0  0  -0.590898  0  2.309524  0  -1.157541  0  -0.285687  -0.535131  0  2.315113  0
O  O91  1  0.64333938  0.60793182  0.16167589  1  0  -0.638434  0  2.069236  0  0  -0.557999  0  2.313227  0  0  -0.590941  0  2.309452  0  -1.157064  0  -0.285688  -0.535137  0  2.315013  0
O  O92  1  0.33871326  0.00622865  0.10122682  1  0  -0.599189  0  1.949518  0  0  -0.547214  0  2.182666  0  0  -0.573367  0  2.176109  0  -1.155619  0  -0.297089  -0.529127  0  2.18642  0
O  O93  1  0.83871495  0.99376796  0.89877526  1  0  -0.599248  0  1.94957  0  0  -0.547287  0  2.182716  0  0  -0.573441  0  2.17617  0  -1.155643  0  -0.297126  -0.529201  0  2.186473  0
O  O94  1  0.33871441  0.50623298  0.89877526  1  0  -0.599262  0  1.949586  0  0  -0.547308  0  2.182751  0  0  -0.573463  0  2.176202  0  -1.155629  0  -0.297124  -0.529223  0  2.186509  0
O  O95  1  0.83871380  0.49377066  0.10122405  1  0  -0.599256  0  1.949539  0  0  -0.547286  0  2.182683  0  0  -0.573439  0  2.176126  0  -1.155635  0  -0.297102  -0.529201  0  2.18644  0
O  O96  1  0.34283819  0.51927240  0.24346803  1  0  -0.573914  0  1.967984  0  0  -0.517344  0  2.199292  0  0  -0.544765  0  2.193207  0  -1.164571  0  -0.277443  -0.498623  0  2.202853  0
O  O97  1  0.84284447  0.48073024  0.75653266  1  0  -0.573877  0  1.967963  0  0  -0.517317  0  2.199262  0  0  -0.544742  0  2.193179  0  -1.16464  0  -0.277392  -0.498601  0  2.202838  0
O  O98  1  0.34284392  0.01927008  0.75653266  1  0  -0.573788  0  1.967999  0  0  -0.517203  0  2.1993  0  0  -0.544629  0  2.193219  0  -1.164654  0  -0.277332  -0.49849  0  2.202878  0
O  O99  1  0.84283644  0.98072854  0.24346942  1  0  -0.573977  0  1.967921  0  0  -0.517428  0  2.199233  0  0  -0.544855  0  2.193147  0  -1.164526  0  -0.27746  -0.498693  0  2.202769  0
O  O100  1  0.13332278  0.62396914  0.19581511  1  0  -0.64876  0  2.072188  0  0  -0.563996  0  2.312148  0  0  -0.598066  0  2.308082  0  -1.167304  0  -0.283516  -0.540616  0  2.314256  0
O  O101  1  0.63332676  0.37603149  0.80418489  1  0  -0.648701  0  2.072195  0  0  -0.563985  0  2.312181  0  0  -0.598071  0  2.308154  0  -1.167232  0  -0.283516  -0.540604  0  2.314287  0
O  O102  1  0.13332622  0.12396782  0.80418558  1  0  -0.64871  0  2.072099  0  0  -0.563987  0  2.31213  0  0  -0.598066  0  2.308078  0  -1.167219  0  -0.283542  -0.540606  0  2.314236  0
O  O103  1  0.63332332  0.87603280  0.19581511  1  0  -0.648784  0  2.072253  0  0  -0.564057  0  2.312231  0  0  -0.598118  0  2.308141  0  -1.167411  0  -0.28354  -0.540679  0  2.314338  0
