# generated using pymatgen
data_ZnH8C13NO4F
_symmetry_space_group_name_H-M   'P 1'
_cell_length_a   8.40144492
_cell_length_b   10.96087049
_cell_length_c   35.15122926
_cell_angle_alpha   90.08212430
_cell_angle_beta   89.88985561
_cell_angle_gamma   89.89351263
_symmetry_Int_Tables_number   1
_chemical_formula_structural   ZnH8C13NO4F
_chemical_formula_sum   'Zn4 H32 C52 N4 O16 F4'
_cell_volume   3236.96159848
_cell_formula_units_Z   4
loop_
 _symmetry_equiv_pos_site_id
 _symmetry_equiv_pos_as_xyz
  1  'x, y, z'
loop_
 _atom_site_type_symbol
 _atom_site_label
 _atom_site_symmetry_multiplicity
 _atom_site_fract_x
 _atom_site_fract_y
 _atom_site_fract_z
 _atom_site_occupancy
 _atom_site_pbe_bader_charge
 _atom_site_pbe_bader_spin_density
 _atom_site_pbe_cm5_charge
 _atom_site_pbe_ddec_charge
 _atom_site_pbe_ddec_spin_density
 _atom_site_pbe_ddec_sum_bond_order
 _atom_site_pbe_magmom
Zn  Zn0  1  0.66487659  0.00156908  0.49991424  1  1.300433  0  0.716135  0.934741  0  2.261215  0
Zn  Zn1  1  0.34943520  0.00227517  0.50005042  1  1.296358  0  0.710409  0.934392  0  2.122287  0
Zn  Zn2  1  0.24434710  0.99651967  0.99997259  1  1.306804  0  0.715862  0.934363  0  2.26168  0
Zn  Zn3  1  0.55965720  0.99619405  0.99982354  1  1.296523  0  0.710625  0.934976  0  2.122237  0
H  H4  1  0.71334858  0.99195020  0.87560992  1  0.106459  0  0.108918  0.113565  0  0.987718  0
H  H5  1  0.68822266  0.99065073  0.80565873  1  0.10478  0  0.099676  0.106566  0  1.030744  0
H  H6  1  0.17579446  0.00608881  0.81693710  1  0.098336  0  0.102352  0.106421  0  1.009676  0
H  H7  1  0.20476165  0.00679566  0.88698622  1  0.099777  0  0.108952  0.116807  0  0.992037  0
H  H8  1  0.73322001  0.00406424  0.68307713  1  0.091612  0  0.102411  0.10685  0  1.009739  0
H  H9  1  0.22066389  0.99199048  0.69412189  1  0.098219  0  0.099882  0.106554  0  1.030032  0
H  H10  1  0.19594763  0.99490939  0.62418090  1  0.088523  0  0.108904  0.113449  0  0.987491  0
H  H11  1  0.70466826  0.00677717  0.61299431  1  0.106567  0  0.10894  0.116909  0  0.992358  0
H  H12  1  0.71266225  0.99607375  0.12371445  1  0.077994  0  0.10875  0.113092  0  0.987541  0
H  H13  1  0.68897207  0.99546476  0.19374403  1  0.107936  0  0.099592  0.106185  0  1.029816  0
H  H14  1  0.17595500  0.99316629  0.18339236  1  0.097494  0  0.10235  0.106574  0  1.009863  0
H  H15  1  0.20365883  0.99391859  0.11330914  1  0.10237  0  0.109134  0.116982  0  0.992401  0
H  H16  1  0.73341918  0.99070761  0.31679791  1  0.090422  0  0.102131  0.106364  0  1.009237  0
H  H17  1  0.22076882  0.99886448  0.30597661  1  0.10003  0  0.099583  0.106674  0  1.031296  0
H  H18  1  0.19566999  0.00077420  0.37590536  1  0.089825  0  0.108772  0.112947  0  0.987966  0
H  H19  1  0.70445161  0.99296162  0.38688892  1  0.109808  0  0.109073  0.116856  0  0.992442  0
H  H20  1  0.21167687  0.61960225  0.47536835  1  0.034368  0  0.090375  0.09718  0  0.988343  0
H  H21  1  0.20651305  0.61608007  0.52616036  1  0.064253  0  0.090342  0.101243  0  0.993455  0
H  H22  1  0.21026640  0.38574900  0.52484514  1  0.030152  0  0.090345  0.096915  0  0.990099  0
H  H23  1  0.20730666  0.38926207  0.47404373  1  0.068261  0  0.090198  0.101155  0  0.993426  0
H  H24  1  0.69823400  0.61247761  0.02461080  1  0.050938  0  0.090181  0.096817  0  0.989303  0
H  H25  1  0.70370970  0.60813210  0.97380809  1  0.048569  0  0.090145  0.100789  0  0.993406  0
H  H26  1  0.69864679  0.37774460  0.97531770  1  0.028776  0  0.090116  0.096948  0  0.989932  0
H  H27  1  0.70157427  0.38224760  0.02611291  1  0.058032  0  0.090348  0.101402  0  0.992319  0
H  H28  1  0.86963849  0.28794309  0.50243439  1  0.463588  0  0.295809  0.307099  0  0.990344  0
H  H29  1  0.96003646  0.42336632  0.51467116  1  0.44003  0  0.297186  0.280322  0  0.995145  0
H  H30  1  0.86988094  0.71432808  0.49827856  1  0.496199  0  0.295574  0.307266  0  0.990062  0
H  H31  1  0.96049328  0.57848710  0.48627059  1  0.435072  0  0.297681  0.280835  0  0.994158  0
H  H32  1  0.03904279  0.28390252  0.99748440  1  0.476653  0  0.29585  0.306917  0  0.989896  0
H  H33  1  0.94916812  0.41965486  0.98519512  1  0.427673  0  0.297701  0.280737  0  0.994519  0
H  H34  1  0.04027711  0.71032929  0.00142123  1  0.476347  0  0.295617  0.307565  0  0.990275  0
H  H35  1  0.94909828  0.57512367  0.01347258  1  0.426371  0  0.297116  0.27986  0  0.995711  0
C  C36  1  0.57419013  0.76867899  0.50074934  1  1.483359  0  0.215914  0.616523  0  4.11632  0
C  C37  1  0.44133241  0.00224457  0.57180069  1  1.536766  0  0.219742  0.600412  0  4.136087  0
C  C38  1  0.57351168  0.23489609  0.49952863  1  1.422315  0  0.21562  0.617428  0  4.115067  0
C  C39  1  0.44090126  0.99927167  0.42822959  1  1.531097  0  0.219961  0.601202  0  4.134239  0
C  C40  1  0.33595843  0.76327070  0.99906883  1  1.47114  0  0.216467  0.616506  0  4.116274  0
C  C41  1  0.46827694  0.99804446  0.92808917  1  1.530309  0  0.219884  0.602448  0  4.136627  0
C  C42  1  0.33491541  0.22947469  0.00048753  1  1.455285  0  0.215492  0.615621  0  4.117458  0
C  C43  1  0.46687807  0.99540828  0.07170423  1  1.5228  0  0.2197  0.601717  0  4.136375  0
C  C44  1  0.46043257  0.99909221  0.88578235  1  -0.041796  0  -0.015691  -0.032454  0  3.962434  0
C  C45  1  0.59595193  0.99505388  0.86248254  1  -0.025381  0  -0.078596  -0.083576  0  3.975569  0
C  C46  1  0.58143051  0.99445915  0.82305279  1  -0.091776  0  -0.088153  -0.120845  0  3.956416  0
C  C47  1  0.42942164  0.99812482  0.80575375  1  0.0801  0  -0.012184  0.041246  0  4.04905  0
C  C48  1  0.29382040  0.00288336  0.82956224  1  -0.047194  0  -0.090028  -0.123216  0  3.977998  0
C  C49  1  0.30952607  0.00327561  0.86875250  1  0.005227  0  -0.079389  -0.077409  0  3.973614  0
C  C50  1  0.40253899  0.99730320  0.76488273  1  0.432353  0  0.088435  0.104744  0  4.02523  0
C  C51  1  0.50610481  0.99714006  0.73500500  1  0.549984  0  0.088274  0.106016  0  4.023388  0
C  C52  1  0.61527950  0.00219474  0.67038814  1  -0.028518  0  -0.090084  -0.123733  0  3.978898  0
C  C53  1  0.47947615  0.99812917  0.69412719  1  0.001308  0  -0.011749  0.042616  0  4.046194  0
C  C54  1  0.32756224  0.99555034  0.67677427  1  -0.061751  0  -0.088631  -0.122185  0  3.954687  0
C  C55  1  0.31330745  0.99718787  0.63734303  1  -0.050554  0  -0.078446  -0.083203  0  3.974497  0
C  C56  1  0.44897314  0.00131374  0.61410411  1  0.024458  0  -0.015817  -0.03152  0  3.962204  0
C  C57  1  0.59980020  0.00380764  0.63120072  1  -0.025097  0  -0.07939  -0.077951  0  3.975208  0
C  C58  1  0.45948521  0.99483347  0.11402517  1  -0.034773  0  -0.015925  -0.033573  0  3.961903  0
C  C59  1  0.59545867  0.99530234  0.13708817  1  -0.000603  0  -0.078129  -0.082163  0  3.97125  0
C  C60  1  0.58170722  0.99492725  0.17656376  1  -0.02243  0  -0.088492  -0.121312  0  3.953202  0
C  C61  1  0.42990918  0.99402786  0.19416032  1  -0.032112  0  -0.011103  0.042753  0  4.046456  0
C  C62  1  0.29385195  0.99361910  0.17056989  1  -0.047619  0  -0.090492  -0.124135  0  3.977866  0
C  C63  1  0.30879981  0.99403886  0.13134804  1  0.002041  0  -0.079189  -0.07716  0  3.974453  0
C  C64  1  0.40341145  0.99376281  0.23508190  1  0.478488  0  0.088379  0.105292  0  4.024377  0
C  C65  1  0.50686605  0.99429371  0.26489314  1  0.544402  0  0.087159  0.104066  0  4.02399  0
C  C66  1  0.61532459  0.99288452  0.32952161  1  -0.031587  0  -0.090057  -0.123181  0  3.977099  0
C  C67  1  0.47968325  0.99469512  0.30580305  1  0.005435  0  -0.011178  0.042594  0  4.045206  0
C  C68  1  0.32764987  0.99734202  0.32325367  1  -0.062147  0  -0.08776  -0.121944  0  3.95535  0
C  C69  1  0.31314468  0.99843712  0.36270317  1  -0.038561  0  -0.078449  -0.082257  0  3.97351  0
C  C70  1  0.44866969  0.99704435  0.38590388  1  0.009432  0  -0.015834  -0.032208  0  3.960401  0
C  C71  1  0.59964779  0.99409555  0.36872585  1  -0.022928  0  -0.07992  -0.07822  0  3.974048  0
C  C72  1  0.58144629  0.63456838  0.50119300  1  -0.025849  0  -0.032358  -0.194092  0  3.986183  0
C  C73  1  0.58103752  0.36894535  0.49941707  1  0.065111  0  -0.032298  -0.19617  0  3.987961  0
C  C74  1  0.44086010  0.56494024  0.50094796  1  0.027251  0  -0.025801  0.041232  0  3.965453  0
C  C75  1  0.72572611  0.43553336  0.50033157  1  0.383468  0  0.102628  0.198757  0  4.00424  0
C  C76  1  0.44066040  0.43923279  0.49964168  1  -0.075231  0  -0.025965  0.042256  0  3.966113  0
C  C77  1  0.72591654  0.56728675  0.50048925  1  0.494056  0  0.102723  0.196879  0  4.007491  0
C  C78  1  0.26119515  0.57484563  0.50077470  1  -0.015288  0  -0.159575  -0.201098  0  3.908312  0
C  C79  1  0.26100357  0.43024771  0.49952109  1  -0.032738  0  -0.159413  -0.202055  0  3.910882  0
C  C80  1  0.32858338  0.62916744  0.99866971  1  0.013691  0  -0.032267  -0.194566  0  3.984327  0
C  C81  1  0.32785828  0.36355734  0.00061365  1  0.069999  0  -0.032443  -0.19448  0  3.988148  0
C  C82  1  0.46890251  0.55876468  0.99901640  1  0.041183  0  -0.025528  0.042036  0  3.963263  0
C  C83  1  0.18344673  0.43087094  0.99960918  1  0.45436  0  0.102836  0.196995  0  4.007569  0
C  C84  1  0.46850929  0.43307103  0.00043254  1  -0.073214  0  -0.026229  0.041805  0  3.967156  0
C  C85  1  0.18381013  0.56259844  0.99936001  1  0.438875  0  0.101992  0.19706  0  4.006799  0
C  C86  1  0.64861508  0.56766360  0.99921494  1  -0.028818  0  -0.159113  -0.201185  0  3.90706  0
C  C87  1  0.64808518  0.42301963  0.00059163  1  -0.070846  0  -0.159261  -0.201668  0  3.908982  0
N  N88  1  0.87317046  0.38043448  0.49974572  1  -1.196179  0  -0.601117  -0.607788  0  3.362294  0
N  N89  1  0.87339945  0.62185793  0.50114615  1  -1.254575  0  -0.601321  -0.607997  0  3.361363  0
N  N90  1  0.03584974  0.37646387  0.00014156  1  -1.22119  0  -0.600952  -0.606809  0  3.363316  0
N  N91  1  0.03646238  0.61782891  0.99860246  1  -1.214034  0  -0.601056  -0.607636  0  3.36194  0
O  O92  1  0.70845464  0.82912397  0.50048564  1  -1.145268  0  -0.32252  -0.543441  0  2.298853  0
O  O93  1  0.43853996  0.82046760  0.50044729  1  -1.169589  0  -0.309277  -0.557969  0  2.286346  0
O  O94  1  0.30475626  0.00236971  0.55496906  1  -1.127332  0  -0.320613  -0.532535  0  2.214355  0
O  O95  1  0.57413798  0.00279667  0.55442875  1  -1.18809  0  -0.313476  -0.574091  0  2.377192  0
O  O96  1  0.43773780  0.18356541  0.49975933  1  -1.164016  0  -0.309181  -0.557657  0  2.285778  0
O  O97  1  0.70774571  0.17407849  0.49947974  1  -1.127467  0  -0.322397  -0.543179  0  2.297401  0
O  O98  1  0.57363259  0.00051165  0.44551830  1  -1.18236  0  -0.31373  -0.574325  0  2.376855  0
O  O99  1  0.30431205  0.99995580  0.44518935  1  -1.127988  0  -0.32041  -0.532541  0  2.212624  0
O  O100  1  0.20173120  0.82409171  0.99920989  1  -1.143015  0  -0.322697  -0.54285  0  2.300978  0
O  O101  1  0.47165368  0.81467628  0.99946912  1  -1.167292  0  -0.309663  -0.557737  0  2.285955  0
O  O102  1  0.60489390  0.99764461  0.94491091  1  -1.127587  0  -0.320418  -0.533316  0  2.214342  0
O  O103  1  0.33552012  0.99744599  0.94548814  1  -1.177414  0  -0.313784  -0.575281  0  2.378002  0
O  O104  1  0.47058213  0.17760162  0.00021636  1  -1.166305  0  -0.309083  -0.557563  0  2.287706  0
O  O105  1  0.20058271  0.16917019  0.00048948  1  -1.15248  0  -0.322433  -0.542766  0  2.297206  0
O  O106  1  0.33401211  0.99572008  0.05447536  1  -1.182794  0  -0.313478  -0.574047  0  2.374893  0
O  O107  1  0.60344748  0.99547128  0.05473320  1  -1.12653  0  -0.320341  -0.53284  0  2.216637  0
F  F108  1  0.24449193  0.99757975  0.75512635  1  -0.631685  0  -0.08469  -0.117795  0  1.395903  0
F  F109  1  0.66418214  0.99743470  0.74477546  1  -0.632949  0  -0.085143  -0.118941  0  1.39642  0
F  F110  1  0.24538642  0.99283551  0.24500541  1  -0.6256  0  -0.084584  -0.117713  0  1.397319  0
F  F111  1  0.66496751  0.99479348  0.25502661  1  -0.631292  0  -0.084944  -0.118143  0  1.395878  0
