# generated using pymatgen
data_CuH19C14N5O3
_symmetry_space_group_name_H-M   'P 1'
_cell_length_a   9.23589492
_cell_length_b   9.72776933
_cell_length_c   18.41320532
_cell_angle_alpha   102.23270933
_cell_angle_beta   90.00785365
_cell_angle_gamma   89.99562175
_symmetry_Int_Tables_number   1
_chemical_formula_structural   CuH19C14N5O3
_chemical_formula_sum   'Cu4 H76 C56 N20 O12'
_cell_volume   1616.76670341
_cell_formula_units_Z   4
loop_
 _symmetry_equiv_pos_site_id
 _symmetry_equiv_pos_as_xyz
  1  'x, y, z'
loop_
 _atom_site_type_symbol
 _atom_site_label
 _atom_site_symmetry_multiplicity
 _atom_site_fract_x
 _atom_site_fract_y
 _atom_site_fract_z
 _atom_site_occupancy
 _atom_site_pbe_bader_charge
 _atom_site_pbe_bader_spin_density
 _atom_site_pbe_cm5_charge
 _atom_site_pbe_ddec_charge
 _atom_site_pbe_ddec_spin_density
 _atom_site_pbe_ddec_sum_bond_order
 _atom_site_pbe_magmom
Cu  Cu0  1  0.86240210  0.32969770  0.18892303  1  0.979623  -0.487403  0.743885  0.659146  -0.662659  2.37924  -0.487
Cu  Cu1  1  0.36241195  0.17030626  0.31108481  1  0.979388  -0.487394  0.743978  0.659338  -0.662646  2.378962  -0.487
Cu  Cu2  1  0.13761334  0.67029170  0.81108134  1  0.979723  -0.487388  0.743932  0.65934  -0.662626  2.379147  -0.487
Cu  Cu3  1  0.63758076  0.82969801  0.68891814  1  0.979312  -0.487396  0.743981  0.659464  -0.662653  2.37884  -0.487
H  H4  1  0.64567456  0.93236908  0.07170884  1  0.026861  0.000135  0.101095  0.11552  0.000143  1.011373  0.0
H  H5  1  0.14568790  0.56761147  0.42830339  1  0.027071  0.000134  0.101008  0.115416  0.000143  1.01152  0.0
H  H6  1  0.35433439  0.06762766  0.92829699  1  0.026729  0.000134  0.101145  0.115582  0.000143  1.011386  0.0
H  H7  1  0.85431022  0.43240448  0.57169885  1  0.027074  0.000135  0.101028  0.115425  0.000143  1.01152  0.0
H  H8  1  0.76246972  0.70263732  0.01782397  1  0.036301  -0.000791  0.10644  0.113895  -0.000426  0.998473  0.0
H  H9  1  0.26246837  0.79735020  0.48217876  1  0.036414  -0.000791  0.10643  0.113952  -0.000426  0.998591  0.0
H  H10  1  0.23754572  0.29736257  0.98218225  1  0.036255  -0.000791  0.106458  0.113853  -0.000426  0.998426  0.0
H  H11  1  0.73753299  0.20266134  0.51782728  1  0.036374  -0.000791  0.106436  0.113925  -0.000426  0.99865  0.0
H  H12  1  0.18136267  0.89424795  0.06377329  1  0.042492  -0.000735  0.103364  0.11378  -0.000443  1.026436  0.0
H  H13  1  0.68137673  0.60575220  0.43621614  1  0.042512  -0.000735  0.103374  0.11376  -0.000443  1.026374  0.0
H  H14  1  0.81863003  0.10575042  0.93622024  1  0.042504  -0.000735  0.103315  0.113768  -0.000443  1.026222  0.0
H  H15  1  0.31861922  0.39424454  0.56378968  1  0.042562  -0.000735  0.103318  0.113707  -0.000443  1.026393  0.0
H  H16  1  0.23257735  0.70484313  0.97011048  1  0.094995  0.000289  0.095374  0.098453  0.000423  1.032441  0.0
H  H17  1  0.73259509  0.79515277  0.52989419  1  0.095268  0.000289  0.095382  0.098467  0.000423  1.032491  0.0
H  H18  1  0.76740344  0.29515858  0.02987966  1  0.095057  0.000289  0.095391  0.09856  0.000423  1.032374  0.0
H  H19  1  0.26738462  0.20485103  0.47011903  1  0.094905  0.000289  0.095331  0.098468  0.000423  1.032442  0.0
H  H20  1  0.20303094  0.52449384  0.97419411  1  0.084592  -9e-05  0.103475  0.10861  -3.8e-05  1.012224  0.0
H  H21  1  0.70301783  0.97549412  0.52580427  1  0.084394  -9e-05  0.103489  0.108656  -3.8e-05  1.012286  0.0
H  H22  1  0.79697042  0.47548245  0.02579668  1  0.084411  -9e-05  0.103511  0.108541  -3.8e-05  1.012309  0.0
H  H23  1  0.29697920  0.02451511  0.47420583  1  0.084432  -9e-05  0.103463  0.108557  -3.8e-05  1.012324  0.0
H  H24  1  0.23524959  0.65160440  0.05850626  1  0.056375  -1e-06  0.094073  0.093814  -5e-06  1.018602  0.0
H  H25  1  0.73520974  0.84837725  0.44148896  1  0.056502  -0.0  0.094014  0.093774  -5e-06  1.018501  0.0
H  H26  1  0.76478208  0.34839558  0.94147552  1  0.056197  -0.0  0.0941  0.093845  -5e-06  1.018678  0.0
H  H27  1  0.26481003  0.15162436  0.55852562  1  0.056309  -0.0  0.09406  0.093766  -5e-06  1.018663  0.0
H  H28  1  0.20910312  0.13263666  0.10626246  1  0.079307  -0.012263  0.117437  0.083881  -0.006594  0.984378  -0.007
H  H29  1  0.70914831  0.36734394  0.39373238  1  0.078961  -0.012267  0.117438  0.083865  -0.006597  0.984068  -0.007
H  H30  1  0.79092314  0.86737293  0.89371725  1  0.079657  -0.012263  0.117453  0.083933  -0.006595  0.984366  -0.007
H  H31  1  0.29083898  0.63265562  0.60628086  1  0.078826  -0.012271  0.117409  0.083821  -0.006599  0.984089  -0.007
H  H32  1  0.13383869  0.44889229  0.10921500  1  0.049099  -0.000389  0.105054  0.085127  -0.000167  1.003993  0.0
H  H33  1  0.63391947  0.05107442  0.39078539  1  0.049065  -0.000389  0.105068  0.085316  -0.000167  1.003943  0.0
H  H34  1  0.86614426  0.55111742  0.89078483  1  0.049273  -0.000389  0.105075  0.085229  -0.000167  1.003773  0.0
H  H35  1  0.36606890  0.94894007  0.60922536  1  0.049291  -0.000389  0.105101  0.085396  -0.000167  1.003934  0.0
H  H36  1  0.26512643  0.35957365  0.15393436  1  0.111372  -0.004345  0.105922  0.098206  -0.002572  1.024337  -0.003
H  H37  1  0.76515855  0.14039204  0.34607827  1  0.11117  -0.004346  0.105904  0.098164  -0.002573  1.024338  -0.003
H  H38  1  0.73486519  0.64043021  0.84605496  1  0.111646  -0.004344  0.105907  0.098156  -0.002572  1.024179  -0.003
H  H39  1  0.23482982  0.85961229  0.65392361  1  0.111048  -0.004347  0.105872  0.098119  -0.002574  1.024407  -0.003
H  H40  1  0.15155885  0.44168786  0.27483370  1  0.078131  -0.000123  0.111347  0.106014  5e-06  1.009748  0.0
H  H41  1  0.65153211  0.05829887  0.22517475  1  0.078351  -0.000123  0.111395  0.105984  5e-06  1.00976  0.0
H  H42  1  0.84845225  0.55831177  0.72515564  1  0.078042  -0.000123  0.111358  0.10606  5e-06  1.009599  0.0
H  H43  1  0.34846383  0.94169061  0.77482800  1  0.078155  -0.000123  0.111405  0.106018  5e-06  1.009808  0.0
H  H44  1  0.18548232  0.58969440  0.23423968  1  0.054235  -0.005136  0.102435  0.085472  -0.002743  1.025998  -0.004
H  H45  1  0.68549776  0.91027507  0.26576850  1  0.053747  -0.005136  0.102396  0.085431  -0.002742  1.025947  -0.004
H  H46  1  0.81452446  0.41031013  0.76575788  1  0.05434  -0.005138  0.102397  0.085428  -0.002744  1.02605  -0.004
H  H47  1  0.31449061  0.08973000  0.73423999  1  0.053619  -0.005136  0.102362  0.085409  -0.002742  1.026041  -0.004
H  H48  1  0.96179334  0.49697403  0.34717030  1  0.069151  -0.001176  0.108772  0.097583  -0.000768  1.008097  0.0
H  H49  1  0.46175510  0.00303174  0.15281913  1  0.068756  -0.001175  0.108713  0.097416  -0.000768  1.008018  0.0
H  H50  1  0.03821344  0.50301875  0.65282960  1  0.069233  -0.001176  0.10871  0.097503  -0.000768  1.008206  0.0
H  H51  1  0.53823977  0.99697434  0.84719057  1  0.068636  -0.001175  0.108718  0.097419  -0.000767  1.008133  0.0
H  H52  1  0.80042353  0.56910539  0.31731383  1  0.094273  -0.001604  0.104877  0.092176  -0.000614  1.026158  -0.001
H  H53  1  0.30040108  0.93090163  0.18266624  1  0.094002  -0.001605  0.104865  0.092065  -0.000614  1.025896  -0.001
H  H54  1  0.19958108  0.43088422  0.68268621  1  0.094129  -0.001604  0.104849  0.092128  -0.000614  1.026239  -0.001
H  H55  1  0.69959054  0.06910140  0.81734091  1  0.094142  -0.001605  0.104893  0.092156  -0.000614  1.025936  -0.001
H  H56  1  0.93400787  0.75672118  0.40529741  1  0.04527  -0.001255  0.104553  0.078763  -0.000648  0.980145  -0.001
H  H57  1  0.43398739  0.74327855  0.09469103  1  0.04249  -0.001255  0.104549  0.078804  -0.000648  0.9801  -0.001
H  H58  1  0.06599025  0.24327779  0.59470598  1  0.045224  -0.001255  0.104496  0.078724  -0.000648  0.980399  -0.001
H  H59  1  0.56600640  0.25672868  0.90531664  1  0.045519  -0.001255  0.104628  0.078921  -0.000648  0.980141  -0.001
H  H60  1  0.09027452  0.72886580  0.34745435  1  0.00824  4.4e-05  0.094472  0.057877  9.8e-05  1.017165  0.0
H  H61  1  0.59025731  0.77111488  0.15256165  1  0.008021  4.4e-05  0.094522  0.057926  9.8e-05  1.017212  0.0
H  H62  1  0.90973009  0.27112922  0.65254311  1  0.00825  4.4e-05  0.094497  0.057936  9.8e-05  1.017195  0.0
H  H63  1  0.40974080  0.22889145  0.84744265  1  0.008428  4.4e-05  0.094546  0.058011  9.8e-05  1.017139  0.0
H  H64  1  0.07876473  0.79286263  0.22901642  1  0.056302  5.9e-05  0.093213  0.059029  9.6e-05  1.012526  0.0
H  H65  1  0.57878936  0.70711158  0.27099037  1  0.056109  5.9e-05  0.093207  0.059051  9.6e-05  1.012435  0.0
H  H66  1  0.92123555  0.20712723  0.77097822  1  0.05628  5.9e-05  0.093171  0.059058  9.6e-05  1.012572  0.0
H  H67  1  0.42120876  0.29289372  0.72901326  1  0.056095  5.9e-05  0.093196  0.059044  9.6e-05  1.012413  0.0
H  H68  1  0.91126465  0.85454990  0.20107573  1  0.067296  -0.00103  0.104213  0.083649  -0.000558  1.00785  -0.001
H  H69  1  0.41127643  0.64545789  0.29891974  1  0.067383  -0.001029  0.104132  0.08358  -0.000558  1.007761  -0.001
H  H70  1  0.08872697  0.14544427  0.79891728  1  0.06737  -0.00103  0.104207  0.083674  -0.000559  1.007959  -0.001
H  H71  1  0.58872818  0.35453800  0.70108163  1  0.067483  -0.001028  0.104111  0.083546  -0.000558  1.00782  -0.001
H  H72  1  0.79553514  0.62312617  0.19162500  1  0.035281  -0.001324  0.103845  0.086829  -0.000451  1.018195  -0.001
H  H73  1  0.29555787  0.87690844  0.30835763  1  0.035353  -0.001324  0.103904  0.086876  -0.000451  1.018009  -0.001
H  H74  1  0.20445864  0.37685510  0.80837238  1  0.034936  -0.001325  0.103815  0.086823  -0.000451  1.018276  -0.001
H  H75  1  0.70443375  0.12308204  0.69164633  1  0.035492  -0.001324  0.103908  0.086852  -0.000451  1.017955  -0.001
H  H76  1  0.95705175  0.60067816  0.13770478  1  0.054401  -0.000454  0.109143  0.099621  -5e-05  1.010296  0.0
H  H77  1  0.45709280  0.89932562  0.36228848  1  0.054601  -0.000454  0.109191  0.099506  -5e-05  1.010319  0.0
H  H78  1  0.04294420  0.39930837  0.86229325  1  0.054416  -0.000454  0.109203  0.099684  -5e-05  1.010325  0.0
H  H79  1  0.54289666  0.10066897  0.63771816  1  0.054666  -0.000453  0.109175  0.099522  -5e-05  1.010165  0.0
C  C80  1  0.99928957  0.03061972  0.09904323  1  0.013455  -0.006222  -0.036282  -0.06598  -0.00407  4.038158  -0.006
C  C81  1  0.49930953  0.46936178  0.40095502  1  0.013624  -0.006225  -0.036378  -0.066144  -0.004072  4.038036  -0.006
C  C82  1  0.00072695  0.96937747  0.90095287  1  0.013846  -0.006223  -0.036234  -0.065967  -0.004072  4.038083  -0.006
C  C83  1  0.50068642  0.53064455  0.59904928  1  0.01354  -0.006227  -0.036372  -0.06629  -0.004073  4.038144  -0.006
C  C84  1  0.84479894  0.04337497  0.10341482  1  0.656896  -0.000149  0.081598  0.297136  -0.000514  4.110374  0.002
C  C85  1  0.34481548  0.45660635  0.39659605  1  0.655838  -0.000152  0.081607  0.297162  -0.000512  4.110159  0.002
C  C86  1  0.15521542  0.95662069  0.89659141  1  0.656901  -0.00015  0.081423  0.297085  -0.000516  4.110478  0.002
C  C87  1  0.65517830  0.54340451  0.60340175  1  0.656525  -0.000153  0.08152  0.297053  -0.000513  4.110305  0.002
C  C88  1  0.76298474  0.92137479  0.07202913  1  -0.049112  -0.011123  -0.113775  -0.207571  -0.008261  4.009198  -0.009
C  C89  1  0.26299602  0.57861235  0.42798119  1  -0.049374  -0.011122  -0.113585  -0.20731  -0.008262  4.009222  -0.009
C  C90  1  0.23701987  0.07861692  0.92797118  1  -0.049022  -0.011124  -0.11379  -0.207673  -0.008262  4.009162  -0.009
C  C91  1  0.73700318  0.42139496  0.57202486  1  -0.049459  -0.011123  -0.113658  -0.207379  -0.008263  4.009181  -0.009
C  C92  1  0.82796377  0.79430630  0.04194668  1  0.05582  0.000538  -0.099514  -0.168267  0.001123  4.041685  0.0
C  C93  1  0.32796758  0.70568610  0.45804870  1  0.056076  0.000538  -0.099622  -0.168615  0.001122  4.041978  0.0
C  C94  1  0.17203543  0.20569280  0.95805400  1  0.055771  0.00054  -0.099543  -0.168283  0.001125  4.041395  0.0
C  C95  1  0.67203054  0.29432241  0.54195424  1  0.056346  0.000537  -0.099575  -0.168466  0.001122  4.041824  0.0
C  C96  1  0.97992984  0.78150684  0.04028030  1  0.363771  0.000536  0.059494  0.210838  0.000667  4.094608  0.0
C  C97  1  0.47993415  0.71848642  0.45971270  1  0.363992  0.000535  0.059682  0.211168  0.000667  4.094468  0.0
C  C98  1  0.02006719  0.21849117  0.95972079  1  0.364012  0.000534  0.05952  0.210971  0.000666  4.095048  0.0
C  C99  1  0.52006071  0.28151683  0.54028959  1  0.363965  0.000535  0.059638  0.211131  0.000667  4.094402  0.0
C  C100  1  0.06378264  0.89915715  0.06779132  1  0.043467  0.001606  -0.10566  -0.236294  0.001766  3.99483  0.001
C  C101  1  0.56379492  0.60083184  0.43220757  1  0.043138  0.001605  -0.105702  -0.23627  0.001765  3.994574  0.001
C  C102  1  0.93622521  0.10084415  0.93220746  1  0.043604  0.001606  -0.105573  -0.236402  0.001766  3.994632  0.001
C  C103  1  0.43620211  0.39917024  0.56779728  1  0.042988  0.001604  -0.10559  -0.236144  0.001763  3.994498  0.001
C  C104  1  0.18506351  0.63368930  0.00295423  1  0.324205  0.000142  -0.144472  -0.186851  0.000297  3.923924  0.0
C  C105  1  0.68506120  0.86630071  0.49704506  1  0.324023  0.000143  -0.144488  -0.186942  0.000298  3.924258  0.0
C  C106  1  0.81493027  0.36629645  0.99703773  1  0.324626  0.000142  -0.144518  -0.186854  0.000297  3.923723  0.0
C  C107  1  0.31493799  0.13370345  0.50296060  1  0.32467  0.000142  -0.144462  -0.186823  0.000298  3.924283  0.0
C  C108  1  0.09329503  0.15059416  0.11846027  1  0.62745  0.006155  0.07449  0.109597  0.007372  3.950992  0.005
C  C109  1  0.59333185  0.34938495  0.38153938  1  0.628114  0.006154  0.074521  0.109635  0.00737  3.951053  0.005
C  C110  1  0.90672798  0.84940234  0.88152814  1  0.626986  0.006153  0.074543  0.109656  0.007373  3.951062  0.005
C  C111  1  0.40666085  0.65062248  0.61846397  1  0.628191  0.006151  0.074597  0.109879  0.007369  3.951112  0.005
C  C112  1  0.15182270  0.39513771  0.15547141  1  0.2941  -0.005486  -0.072045  -0.066436  -0.004383  3.942706  -0.004
C  C113  1  0.65186810  0.10483322  0.34453510  1  0.294132  -0.005485  -0.072028  -0.06633  -0.004381  3.942426  -0.004
C  C114  1  0.84819598  0.60487138  0.84451911  1  0.29394  -0.005489  -0.072112  -0.066548  -0.004384  3.942405  -0.004
C  C115  1  0.34812135  0.89517521  0.65546946  1  0.293937  -0.005485  -0.071924  -0.066199  -0.00438  3.942353  -0.004
C  C116  1  0.12085296  0.49339322  0.22956386  1  0.253454  -3.8e-05  -0.078013  -0.103698  0.000107  3.854781  0.001
C  C117  1  0.62086658  0.00658862  0.27044185  1  0.253727  -3.6e-05  -0.078014  -0.10366  0.000108  3.854561  0.001
C  C118  1  0.87916031  0.50660525  0.77042751  1  0.253321  -3.5e-05  -0.077997  -0.103683  0.00011  3.854728  0.001
C  C119  1  0.37912395  0.99341335  0.72956517  1  0.253826  -3.5e-05  -0.077982  -0.103801  0.000108  3.854892  0.001
C  C120  1  0.91936131  0.57252181  0.31583442  1  0.21421  -0.000805  -0.082709  -0.138725  -0.000797  3.911061  0.001
C  C121  1  0.41935254  0.92747426  0.18415527  1  0.214909  -0.000806  -0.082478  -0.138081  -0.000797  3.910471  0.001
C  C122  1  0.08065304  0.42748066  0.68416179  1  0.214439  -0.000806  -0.082428  -0.138227  -0.000796  3.910677  0.001
C  C123  1  0.58064017  0.07252989  0.81585039  1  0.214966  -0.000806  -0.082533  -0.138313  -0.000798  3.911024  0.001
C  C124  1  0.97082836  0.72195964  0.34757291  1  0.466862  -0.00635  -0.076169  0.003943  -0.004604  3.930125  -0.005
C  C125  1  0.47080351  0.77803793  0.15242706  1  0.469952  -0.006347  -0.076335  0.003523  -0.004602  3.930706  -0.005
C  C126  1  0.02916975  0.27803537  0.65242455  1  0.466664  -0.006354  -0.076218  0.003753  -0.004608  3.930357  -0.005
C  C127  1  0.52919352  0.22196610  0.84758130  1  0.46622  -0.006347  -0.076434  0.0033  -0.004602  3.930803  -0.005
C  C128  1  0.96012568  0.77951538  0.23070958  1  0.41425  -0.005428  -0.078727  0.001666  -0.004025  3.899825  -0.004
C  C129  1  0.46014497  0.72047335  0.26928583  1  0.414153  -0.005428  -0.078671  0.001648  -0.004025  3.899159  -0.004
C  C130  1  0.03987243  0.22047130  0.76928522  1  0.414172  -0.005431  -0.078712  0.001593  -0.004027  3.90005  -0.004
C  C131  1  0.53985423  0.27952449  0.73071904  1  0.414296  -0.005424  -0.078644  0.001693  -0.004022  3.899258  -0.004
C  C132  1  0.91434346  0.62981635  0.19452059  1  0.271574  -0.000365  -0.081131  -0.132785  -1.6e-05  3.886851  0.001
C  C133  1  0.41437135  0.87018742  0.30546754  1  0.271086  -0.000362  -0.081377  -0.132885  -1.4e-05  3.88643  0.001
C  C134  1  0.08565898  0.37016787  0.80548151  1  0.272017  -0.000366  -0.081173  -0.132805  -1.8e-05  3.88684  0.001
C  C135  1  0.58561918  0.12981042  0.69453734  1  0.270835  -0.000361  -0.081475  -0.132988  -1.3e-05  3.886358  0.001
N  N136  1  0.05076394  0.27781509  0.14606896  1  -1.187591  -0.092937  -0.388047  -0.246527  -0.06436  3.621531  -0.079
N  N137  1  0.55081109  0.22217296  0.35393755  1  -1.187605  -0.092928  -0.388127  -0.24676  -0.064354  3.622077  -0.079
N  N138  1  0.94926773  0.72219098  0.85391846  1  -1.188065  -0.09293  -0.388083  -0.246551  -0.064357  3.621527  -0.079
N  N139  1  0.44917403  0.77782939  0.64606137  1  -1.18738  -0.092928  -0.388207  -0.246968  -0.064355  3.6223  -0.079
N  N140  1  0.96297689  0.52415094  0.23713731  1  -0.969447  -0.105472  -0.343425  -0.080339  -0.072944  3.479943  -0.091
N  N141  1  0.46298352  0.97585048  0.26285553  1  -0.969142  -0.105455  -0.343353  -0.080263  -0.072931  3.479695  -0.091
N  N142  1  0.03703206  0.47582614  0.76285901  1  -0.969619  -0.105512  -0.343447  -0.08067  -0.07297  3.480513  -0.091
N  N143  1  0.53700810  0.02414829  0.73715218  1  -0.969073  -0.105435  -0.343284  -0.07994  -0.072918  3.479585  -0.091
N  N144  1  0.67169113  0.40746177  0.22272443  1  -0.255678  -0.037505  -0.318664  -0.513365  -0.027279  3.040381  -0.034
N  N145  1  0.17169696  0.09253380  0.27727945  1  -0.256302  -0.037524  -0.318655  -0.513425  -0.027288  3.040342  -0.034
N  N146  1  0.32832431  0.59255112  0.77727525  1  -0.255681  -0.037482  -0.318742  -0.513459  -0.027263  3.040191  -0.034
N  N147  1  0.82829466  0.90748007  0.72272198  1  -0.256565  -0.037543  -0.318621  -0.513424  -0.027302  3.040353  -0.034
N  N148  1  0.56411746  0.33744215  0.21061856  1  -0.346358  -0.00356  0.08194  0.440752  0.0027  4.474088  0.005
N  N149  1  0.06412526  0.16256500  0.28939668  1  -0.345549  -0.003552  0.082063  0.440907  0.002702  4.473978  0.005
N  N150  1  0.43589689  0.66256912  0.78937060  1  -0.345871  -0.00356  0.082007  0.440828  0.002696  4.473486  0.005
N  N151  1  0.93585769  0.83743483  0.71058834  1  -0.345812  -0.003557  0.081978  0.440764  0.002702  4.474416  0.005
N  N152  1  0.45672482  0.27143706  0.20127622  1  -0.060941  -0.088351  -0.208784  -0.422408  -0.059059  2.726836  -0.065
N  N153  1  0.95672606  0.22857264  0.29874703  1  -0.060986  -0.088382  -0.208926  -0.422601  -0.059081  2.726902  -0.065
N  N154  1  0.54329495  0.72856323  0.79869908  1  -0.061518  -0.088315  -0.208784  -0.422404  -0.059034  2.726625  -0.065
N  N155  1  0.04325148  0.77142662  0.70122759  1  -0.060419  -0.088386  -0.208848  -0.422527  -0.059085  2.727034  -0.065
O  O156  1  0.77343211  0.15859247  0.13238501  1  -1.1101  -0.123996  -0.346314  -0.507519  -0.083464  2.401042  -0.113
O  O157  1  0.27343599  0.34139607  0.36762886  1  -1.109696  -0.123986  -0.346344  -0.507594  -0.08346  2.401  -0.113
O  O158  1  0.22656600  0.84139566  0.86762409  1  -1.110243  -0.124008  -0.34631  -0.50755  -0.083474  2.400919  -0.113
O  O159  1  0.72655454  0.65861490  0.63236678  1  -1.109922  -0.123979  -0.346316  -0.507575  -0.083455  2.401042  -0.113
O  O160  1  0.03185057  0.64999038  0.00885062  1  -1.089312  -0.000154  -0.195172  -0.174303  -0.000134  2.627537  0.0
O  O161  1  0.53184905  0.85000443  0.49114407  1  -1.089258  -0.000154  -0.195157  -0.17435  -0.000134  2.628149  0.0
O  O162  1  0.96816379  0.34999219  0.99114149  1  -1.089423  -0.000154  -0.195139  -0.174259  -0.000134  2.627684  0.0
O  O163  1  0.46815556  0.15000097  0.50885740  1  -1.08941  -0.000154  -0.195136  -0.17438  -0.000134  2.628098  0.0
O  O164  1  0.91112567  0.81764947  0.30630376  1  -1.054624  -0.003446  -0.241667  -0.230327  -0.002159  2.424283  -0.003
O  O165  1  0.41111441  0.68234596  0.19368473  1  -1.054522  -0.003444  -0.241593  -0.230205  -0.002158  2.424084  -0.003
O  O166  1  0.08886919  0.18234660  0.69369383  1  -1.05451  -0.003448  -0.241655  -0.230283  -0.00216  2.424508  -0.003
O  O167  1  0.58888479  0.31765406  0.80631879  1  -1.054482  -0.003442  -0.241579  -0.230185  -0.002157  2.424071  -0.003
