# generated using pymatgen
data_CdPH30C26N11O8
_symmetry_space_group_name_H-M   'P 1'
_cell_length_a   9.23804441
_cell_length_b   14.62473544
_cell_length_c   15.02323656
_cell_angle_alpha   115.90365928
_cell_angle_beta   101.56864606
_cell_angle_gamma   92.28902347
_symmetry_Int_Tables_number   1
_chemical_formula_structural   CdPH30C26N11O8
_chemical_formula_sum   'Cd2 P2 H60 C52 N22 O16'
_cell_volume   1769.85012490
_cell_formula_units_Z   2
loop_
 _symmetry_equiv_pos_site_id
 _symmetry_equiv_pos_as_xyz
  1  'x, y, z'
loop_
 _atom_site_type_symbol
 _atom_site_label
 _atom_site_symmetry_multiplicity
 _atom_site_fract_x
 _atom_site_fract_y
 _atom_site_fract_z
 _atom_site_occupancy
 _atom_site_pbe_bader_charge
 _atom_site_pbe_bader_spin_density
 _atom_site_pbe_cm5_charge
 _atom_site_pbe_ddec_charge
 _atom_site_pbe_ddec_spin_density
 _atom_site_pbe_ddec_sum_bond_order
 _atom_site_pbe_magmom
Cd  Cd0  1  0.71904443  0.23546686  0.49127994  1  1.247793  0  0.77687  0.745281  0  2.260898  0
Cd  Cd1  1  0.28095471  0.76453358  0.50872457  1  1.247718  0  0.776886  0.745264  0  2.260927  0
P  P2  1  0.77046644  0.30731817  0.03228230  1  3.463132  0  0.522044  1.235196  0  5.288741  0
P  P3  1  0.22953834  0.69267845  0.96771780  1  3.462794  0  0.522057  1.235241  0  5.288851  0
H  H4  1  0.13707481  0.18130519  0.93869089  1  0.04678  0  0.103492  0.117574  0  0.986358  0
H  H5  1  0.86292774  0.81869842  0.06130404  1  0.046861  0  0.103499  0.117657  0  0.986251  0
H  H6  1  0.17553518  0.27772573  0.90093594  1  0.033708  0  0.09177  0.097956  0  1.027928  0
H  H7  1  0.82447893  0.72227559  0.09905720  1  0.033823  0  0.091759  0.098008  0  1.027964  0
H  H8  1  0.23217919  0.30580248  0.03155460  1  0.077854  0  0.106028  0.125169  0  1.001968  0
H  H9  1  0.76782414  0.69419960  0.96843975  1  0.077774  0  0.10602  0.125147  0  1.001982  0
H  H10  1  0.40054230  0.09586400  0.80179227  1  0.07324  0  0.097247  0.112403  0  0.998283  0
H  H11  1  0.59945866  0.90413571  0.19820745  1  0.073065  0  0.097244  0.112395  0  0.998202  0
H  H12  1  0.24711336  0.06253130  0.84241871  1  0.044906  0  0.102096  0.106104  0  1.01959  0
H  H13  1  0.75288860  0.93746763  0.15758211  1  0.044986  0  0.102098  0.106098  0  1.019592  0
H  H14  1  0.43548491  0.06561215  0.90571230  1  0.057213  0  0.100924  0.115088  0  0.990157  0
H  H15  1  0.56452208  0.93438527  0.09428506  1  0.057144  0  0.10094  0.115118  0  0.990041  0
H  H16  1  0.42235357  0.62558594  0.13199746  1  0.031611  0  0.09064  0.096698  0  1.034985  0
H  H17  1  0.57764866  0.37441454  0.86800273  1  0.031609  0  0.090648  0.096694  0  1.034956  0
H  H18  1  0.43247217  0.60646170  0.24236510  1  0.031858  0  0.093813  0.104044  0  1.020635  0
H  H19  1  0.56753729  0.39353646  0.75763483  1  0.031796  0  0.093778  0.103992  0  1.020656  0
H  H20  1  0.35601575  0.50199957  0.11783319  1  0.12965  0  0.106759  0.125393  0  1.028222  0
H  H21  1  0.64399053  0.49799937  0.88216609  1  0.129591  0  0.106768  0.125432  0  1.028205  0
H  H22  1  0.81473460  0.59556352  0.19889005  1  0.076269  0  0.102694  0.119075  0  1.05099  0
H  H23  1  0.18526649  0.40444017  0.80109744  1  0.076205  0  0.10268  0.119055  0  1.051007  0
H  H24  1  0.72135109  0.64826737  0.29959372  1  0.047432  0  0.100349  0.115059  0  0.997684  0
H  H25  1  0.27866095  0.35173473  0.70039888  1  0.047278  0  0.100338  0.115037  0  0.997688  0
H  H26  1  0.69134992  0.68775451  0.20145207  1  0.039667  0  0.098867  0.107584  0  1.009985  0
H  H27  1  0.30864928  0.31224453  0.79853719  1  0.039316  0  0.098784  0.107468  0  1.010227  0
H  H28  1  0.74085502  0.10078394  0.09690639  1  0.100214  0  0.119357  0.142977  0  0.977135  0
H  H29  1  0.25913919  0.89921959  0.90309763  1  0.100349  0  0.119404  0.143038  0  0.977058  0
H  H30  1  0.67710119  0.10017050  0.25270268  1  0.120051  0  0.116125  0.084949  0  1.028323  0
H  H31  1  0.32288797  0.89983994  0.74730581  1  0.120091  0  0.116098  0.084894  0  1.028506  0
H  H32  1  0.85992029  0.40606668  0.43146869  1  0.155417  0  0.119519  0.09264  0  1.036173  0
H  H33  1  0.14008364  0.59394147  0.56853636  1  0.155556  0  0.119481  0.092605  0  1.036264  0
H  H34  1  0.92112830  0.42133474  0.28451530  1  0.130624  0  0.11706  0.143663  0  1.008831  0
H  H35  1  0.07887992  0.57867263  0.71549052  1  0.13127  0  0.117105  0.143665  0  1.008958  0
H  H36  1  0.64735789  0.12265501  0.62599325  1  0.152655  0  0.118184  0.090835  0  1.017781  0
H  H37  1  0.35263961  0.87733855  0.37400476  1  0.151768  0  0.118165  0.090782  0  1.017811  0
H  H38  1  0.70538114  0.13926860  0.80238643  1  0.147999  0  0.118814  0.152222  0  0.996696  0
H  H39  1  0.29462049  0.86072421  0.19760902  1  0.148141  0  0.118745  0.152114  0  0.996529  0
H  H40  1  0.98189123  0.42796527  0.89997388  1  0.084053  0  0.118297  0.143932  0  0.982672  0
H  H41  1  0.01810049  0.57202594  0.10002716  1  0.083952  0  0.118291  0.143974  0  0.982637  0
H  H42  1  0.91736718  0.39649631  0.71768446  1  0.110912  0  0.117588  0.086844  0  1.015392  0
H  H43  1  0.08262722  0.60350260  0.28231889  1  0.110706  0  0.117613  0.086901  0  1.015402  0
H  H44  1  0.42990792  0.33654395  0.53222583  1  0.14568  0  0.111882  0.08426  0  1.039407  0
H  H45  1  0.57009191  0.66346036  0.46777778  1  0.146127  0  0.111946  0.084311  0  1.039385  0
H  H46  1  0.34164603  0.50295707  0.61889373  1  0.125271  0  0.103333  0.109916  0  1.052619  0
H  H47  1  0.65835845  0.49705119  0.38110011  1  0.125305  0  0.103322  0.109862  0  1.052644  0
H  H48  1  0.52674486  0.66699330  0.69936698  1  0.10694  0  0.110803  0.113812  0  0.979158  0
H  H49  1  0.47326030  0.33301264  0.30062724  1  0.107054  0  0.110772  0.113707  0  0.979152  0
H  H50  1  0.79244413  0.65201503  0.68552315  1  0.094501  0  0.109605  0.118559  0  0.994151  0
H  H51  1  0.20756010  0.34798148  0.31448817  1  0.093968  0  0.109637  0.118586  0  0.994119  0
H  H52  1  0.86406477  0.47698369  0.59790212  1  0.113574  0  0.110479  0.074477  0  1.056946  0
H  H53  1  0.13594295  0.52301737  0.40211755  1  0.113595  0  0.11049  0.074514  0  1.056956  0
H  H54  1  0.62089397  0.00266577  0.45634698  1  0.12046  0  0.109476  0.075574  0  1.04432  0
H  H55  1  0.37909596  0.99732638  0.54363697  1  0.120621  0  0.109545  0.075702  0  1.044516  0
H  H56  1  0.71335064  0.83505199  0.40641804  1  0.111087  0  0.106931  0.115801  0  1.02211  0
H  H57  1  0.28663865  0.16494168  0.59356916  1  0.111216  0  0.106868  0.115728  0  1.022033  0
H  H58  1  0.94733661  0.81039265  0.34112537  1  0.102524  0  0.104363  0.105104  0  1.019978  0
H  H59  1  0.05266378  0.18959859  0.65887326  1  0.102605  0  0.104357  0.105084  0  1.020241  0
H  H60  1  0.08053891  0.96148904  0.33448720  1  0.125389  0  0.105545  0.120035  0  1.039611  0
H  H61  1  0.91947146  0.03850676  0.66551779  1  0.125389  0  0.105559  0.120102  0  1.039654  0
H  H62  1  0.97993803  0.12651457  0.39595325  1  0.146175  0  0.11148  0.083227  0  1.037931  0
H  H63  1  0.02006522  0.87348134  0.60404106  1  0.14588  0  0.111507  0.083276  0  1.037913  0
C  C64  1  0.49194174  0.27427600  0.98785397  1  1.575291  0  0.342303  0.515754  0  4.164755  0
C  C65  1  0.50806580  0.72571833  0.01214409  1  1.574878  0  0.342244  0.515598  0  4.164825  0
C  C66  1  0.60736655  0.44189075  0.09894061  1  1.559447  0  0.349725  0.532685  0  4.132409  0
C  C67  1  0.39264385  0.55810745  0.90105611  1  1.559391  0  0.349807  0.532701  0  4.132387  0
C  C68  1  0.21895852  0.24569543  0.95342208  1  0.308421  0  -0.13663  -0.25856  0  3.935624  0
C  C69  1  0.78104562  0.75430510  0.04657234  1  0.308329  0  -0.136569  -0.258631  0  3.935604  0
C  C70  1  0.36161178  0.10260500  0.86870258  1  0.27531  0  -0.136215  -0.254631  0  3.934997  0
C  C71  1  0.63839200  0.89739240  0.13129643  1  0.275356  0  -0.136231  -0.254663  0  3.934971  0
C  C72  1  0.44065937  0.56978820  0.16249305  1  0.258169  0  -0.143077  -0.268097  0  3.935726  0
C  C73  1  0.55934847  0.43021305  0.83750674  1  0.258447  0  -0.143059  -0.268047  0  3.935572  0
C  C74  1  0.71108711  0.62216665  0.21756597  1  0.301296  0  -0.137165  -0.259874  0  3.907029  0
C  C75  1  0.28891807  0.37783470  0.78242425  1  0.301928  0  -0.137024  -0.259636  0  3.907235  0
C  C76  1  0.83917014  0.26071510  0.18132435  1  0.411658  0  0.109523  0.330352  0  4.028232  0
C  C77  1  0.16082708  0.73928769  0.81867699  1  0.411517  0  0.10948  0.330348  0  4.028205  0
C  C78  1  0.76885614  0.16900178  0.17051339  1  0.020001  0  -0.088392  -0.236211  0  3.939836  0
C  C79  1  0.23114001  0.83100938  0.82950015  1  0.019996  0  -0.088521  -0.236336  0  3.939332  0
C  C80  1  0.73506814  0.16851342  0.25644811  1  0.483022  0  0.04756  0.110217  0  3.963315  0
C  C81  1  0.26492920  0.83149554  0.74355393  1  0.482961  0  0.047627  0.110275  0  3.963142  0
C  C82  1  0.83471773  0.33956333  0.35681340  1  0.465403  0  0.051197  0.11841  0  3.928864  0
C  C83  1  0.16528620  0.66044561  0.64318867  1  0.464612  0  0.051306  0.118395  0  3.928508  0
C  C84  1  0.87115187  0.34812479  0.27501556  1  0.02612  0  -0.086445  -0.227173  0  3.915715  0
C  C85  1  0.12884498  0.65188026  0.72499139  1  0.026125  0  -0.086467  -0.227108  0  3.915592  0
C  C86  1  0.72059912  0.18944121  0.68850433  1  0.465309  0  0.052487  0.121663  0  3.931211  0
C  C87  1  0.27939136  0.81055163  0.31148797  1  0.46707  0  0.05254  0.121876  0  3.931576  0
C  C88  1  0.75197342  0.19864428  0.78682413  1  0.000532  0  -0.087033  -0.241646  0  3.930742  0
C  C89  1  0.24801764  0.80134386  0.21317550  1  -8.9e-05  0  -0.087084  -0.2417  0  3.931033  0
C  C90  1  0.84573551  0.28618125  0.86392992  1  0.382667  0  0.113395  0.331014  0  4.034046  0
C  C91  1  0.15426400  0.71381074  0.13607028  1  0.382672  0  0.113527  0.33126  0  4.034023  0
C  C92  1  0.90691894  0.35970358  0.84102285  1  0.069357  0  -0.087889  -0.242034  0  3.944465  0
C  C93  1  0.09307749  0.64028997  0.15897570  1  0.069289  0  -0.087967  -0.242302  0  3.944679  0
C  C94  1  0.87016649  0.34263297  0.74008528  1  0.459912  0  0.048363  0.10959  0  3.963278  0
C  C95  1  0.12982522  0.65735905  0.25991277  1  0.45984  0  0.048428  0.109714  0  3.962871  0
C  C96  1  0.50788669  0.40791964  0.56892391  1  0.429016  0  0.040732  0.082618  0  3.945695  0
C  C97  1  0.49211713  0.59208235  0.43108043  1  0.428147  0  0.040584  0.082379  0  3.945952  0
C  C98  1  0.45928372  0.50213651  0.61824364  1  -0.024  0  -0.083901  -0.11826  0  3.946465  0
C  C99  1  0.54070627  0.49786939  0.38175497  1  -0.023866  0  -0.08388  -0.118114  0  3.946881  0
C  C100  1  0.56175584  0.59183515  0.66215372  1  -0.080063  0  -0.061951  -0.018083  0  3.932779  0
C  C101  1  0.43824351  0.40817384  0.33784456  1  -0.079972  0  -0.061946  -0.017982  0  3.932969  0
C  C102  1  0.70962023  0.58399939  0.65521601  1  0.020482  0  -0.079951  -0.118425  0  3.961509  0
C  C103  1  0.29038697  0.41600257  0.34479001  1  0.020903  0  -0.079997  -0.118532  0  3.961685  0
C  C104  1  0.74981381  0.48690582  0.60545063  1  0.437531  0  0.038717  0.07482  0  3.956008  0
C  C105  1  0.25018556  0.51309377  0.39456152  1  0.437735  0  0.038661  0.074737  0  3.955936  0
C  C106  1  0.72152173  0.99003036  0.42785939  1  0.413659  0  0.037283  0.078712  0  3.956888  0
C  C107  1  0.27847581  0.00996559  0.57213035  1  0.41307  0  0.037199  0.078509  0  3.957155  0
C  C108  1  0.77295372  0.89546839  0.39807855  1  0.059762  0  -0.083605  -0.127059  0  3.967023  0
C  C109  1  0.22704270  0.10452138  0.60191236  1  0.059771  0  -0.083535  -0.126923  0  3.967106  0
C  C110  1  0.90276044  0.88287524  0.36252297  1  -0.075032  0  -0.066146  -0.020337  0  3.939367  0
C  C111  1  0.09724078  0.11712602  0.63747613  1  -0.074812  0  -0.066187  -0.020438  0  3.939569  0
C  C112  1  0.97693701  0.96578283  0.35911514  1  -0.104069  0  -0.087549  -0.133394  0  3.953963  0
C  C113  1  0.02306432  0.03420844  0.64088027  1  -0.104169  0  -0.08755  -0.133415  0  3.953992  0
C  C114  1  0.92026864  0.05876424  0.39260784  1  0.47249  0  0.041641  0.088286  0  3.937806  0
C  C115  1  0.07972720  0.94122782  0.60738468  1  0.472664  0  0.041572  0.088232  0  3.937868  0
N  N116  1  0.75133677  0.42353562  0.09908854  1  -1.640457  0  -0.402556  -0.758841  0  3.245407  0
N  N117  1  0.24866162  0.57646337  0.90090660  1  -1.640024  0  -0.402625  -0.758958  0  3.245251  0
N  N118  1  0.61826755  0.23080116  0.97037817  1  -1.647485  0  -0.400284  -0.76194  0  3.266015  0
N  N119  1  0.38173103  0.76919618  0.02962693  1  -1.647352  0  -0.400299  -0.76196  0  3.265735  0
N  N120  1  0.48189336  0.37308034  0.04681630  1  -1.262251  0  -0.368066  -0.577772  0  3.330082  0
N  N121  1  0.51810636  0.62691860  0.95318362  1  -1.262034  0  -0.368055  -0.577627  0  3.330393  0
N  N122  1  0.58759306  0.53989947  0.15732268  1  -1.192604  0  -0.27653  -0.01218  0  3.626728  0
N  N123  1  0.41240670  0.46010107  0.84267195  1  -1.192835  0  -0.276523  -0.012238  0  3.626835  0
N  N124  1  0.36102398  0.20912791  0.93963642  1  -1.196107  0  -0.279354  -0.026411  0  3.613963  0
N  N125  1  0.63897945  0.79087255  0.06036589  1  -1.195988  0  -0.279386  -0.02641  0  3.614194  0
N  N126  1  0.76876655  0.25159936  0.34830652  1  -1.242635  0  -0.331547  -0.248803  0  3.492784  0
N  N127  1  0.23123119  0.74841032  0.65170054  1  -1.242567  0  -0.331524  -0.24866  0  3.492941  0
N  N128  1  0.77819100  0.25942690  0.66487402  1  -1.208006  0  -0.329141  -0.246942  0  3.478198  0
N  N129  1  0.22180531  0.74057127  0.33512654  1  -1.208096  0  -0.329215  -0.247165  0  3.477848  0
N  N130  1  0.65079873  0.40014636  0.56299986  1  -1.246294  0  -0.334758  -0.246736  0  3.527045  0
N  N131  1  0.34920308  0.59985479  0.43701124  1  -1.246352  0  -0.334606  -0.24648  0  3.526797  0
N  N132  1  0.79373117  0.07075258  0.42569981  1  -1.247184  0  -0.33336  -0.247525  0  3.509895  0
N  N133  1  0.20626487  0.92924105  0.57429075  1  -1.246901  0  -0.333285  -0.247441  0  3.509752  0
N  N134  1  0.41862589  0.11370190  0.39544065  1  0.836494  0  0.093344  0.720211  0  4.414609  0
N  N135  1  0.58137212  0.88629854  0.60456308  1  0.836049  0  0.093406  0.720424  0  4.414288  0
N  N136  1  0.08606958  0.33575395  0.52883223  1  0.808939  0  0.089303  0.695031  0  4.472378  0
N  N137  1  0.91392170  0.66425570  0.47117748  1  0.809219  0  0.08944  0.695413  0  4.471805  0
O  O138  1  0.88024141  0.26387131  0.09870762  1  -1.303378  0  -0.174999  -0.382233  0  2.474215  0
O  O139  1  0.11976335  0.73612991  0.90129648  1  -1.303421  0  -0.175065  -0.382342  0  2.474153  0
O  O140  1  0.88686230  0.29991237  0.96296417  1  -1.308618  0  -0.164943  -0.372027  0  2.531666  0
O  O141  1  0.11314138  0.70007428  0.03703013  1  -1.308486  0  -0.164931  -0.372027  0  2.531641  0
O  O142  1  0.99409365  0.29458381  0.55954563  1  -0.60244  0  -0.224772  -0.503472  0  2.097638  0
O  O143  1  0.00589802  0.70542736  0.44046612  1  -0.602188  0  -0.224922  -0.503727  0  2.097599  0
O  O144  1  0.16315978  0.28089219  0.47173266  1  -0.517104  0  -0.188822  -0.426537  0  1.91433  0
O  O145  1  0.83681049  0.71910993  0.52825957  1  -0.517508  0  -0.188725  -0.4265  0  1.913929  0
O  O146  1  0.09710416  0.43167299  0.55803504  1  -0.563971  0  -0.195933  -0.462034  0  2.012162  0
O  O147  1  0.90290852  0.56833655  0.44198552  1  -0.564119  0  -0.196015  -0.462263  0  2.012196  0
O  O148  1  0.47369749  0.15319682  0.34686096  1  -0.558365  0  -0.212352  -0.468863  0  1.960602  0
O  O149  1  0.52629532  0.84680517  0.65314290  1  -0.557885  0  -0.212453  -0.469032  0  1.960448  0
O  O150  1  0.30808991  0.04527347  0.35351419  1  -0.514091  0  -0.179176  -0.423913  0  1.95918  0
O  O151  1  0.69190910  0.95472620  0.64649063  1  -0.514062  0  -0.179149  -0.423917  0  1.959057  0
O  O152  1  0.48322865  0.14585449  0.49082388  1  -0.600755  0  -0.215444  -0.48073  0  2.000348  0
O  O153  1  0.51677157  0.85414595  0.50918008  1  -0.600818  0  -0.215442  -0.480808  0  2.000334  0
