# generated using pymatgen
data_AgBH10C16(NF2)2
_symmetry_space_group_name_H-M   'P 1'
_cell_length_a   5.49102491
_cell_length_b   13.51429012
_cell_length_c   18.83641589
_cell_angle_alpha   89.99900303
_cell_angle_beta   89.99915223
_cell_angle_gamma   90.00055080
_symmetry_Int_Tables_number   1
_chemical_formula_structural   AgBH10C16(NF2)2
_chemical_formula_sum   'Ag4 B4 H40 C64 N8 F16'
_cell_volume   1397.79963500
_cell_formula_units_Z   4
loop_
 _symmetry_equiv_pos_site_id
 _symmetry_equiv_pos_as_xyz
  1  'x, y, z'
loop_
 _atom_site_type_symbol
 _atom_site_label
 _atom_site_symmetry_multiplicity
 _atom_site_fract_x
 _atom_site_fract_y
 _atom_site_fract_z
 _atom_site_occupancy
 _atom_site_hle17_bader_spin_density
 _atom_site_hle17_ddec_charge
 _atom_site_hle17_ddec_spin_density
 _atom_site_hle17_ddec_sum_bond_order
 _atom_site_hle17_magmom
 _atom_site_hse06_10hf_bader_spin_density
 _atom_site_hse06_10hf_ddec_charge
 _atom_site_hse06_10hf_ddec_spin_density
 _atom_site_hse06_10hf_ddec_sum_bond_order
 _atom_site_hse06_10hf_magmom
 _atom_site_hse06_bader_spin_density
 _atom_site_hse06_ddec_charge
 _atom_site_hse06_ddec_spin_density
 _atom_site_hse06_ddec_sum_bond_order
 _atom_site_hse06_magmom
 _atom_site_pbe_bader_spin_density
 _atom_site_pbe_cm5_charge
 _atom_site_pbe_ddec_charge
 _atom_site_pbe_ddec_spin_density
 _atom_site_pbe_ddec_sum_bond_order
 _atom_site_pbe_magmom
Ag  Ag0  1  0.06135880  0.19417265  0.70516413  1  0  0.587517  0  1.333349  0  0  0.45249  0  1.739614  0  0  0.481801  0  1.693791  0  0  0.525189  0.432492  0  1.771268  0
Ag  Ag1  1  0.43863704  0.69417371  0.70515704  1  0  0.587543  0  1.333307  0  0  0.452478  0  1.739684  0  0  0.48172  0  1.693898  0  0  0.52518  0.432486  0  1.771316  0
Ag  Ag2  1  0.56137455  0.30583036  0.20515803  1  0  0.5875  0  1.333308  0  0  0.452458  0  1.739602  0  0  0.481772  0  1.69378  0  0  0.525186  0.432419  0  1.771334  0
Ag  Ag3  1  0.93862730  0.80583069  0.20515678  1  0  0.587508  0  1.333303  0  0  0.452536  0  1.739561  0  0  0.481846  0  1.693741  0  0  0.52521  0.432485  0  1.771302  0
B  B4  1  0.58275515  0.13905317  0.60592740  1  0  1.223609  0  2.869114  0  0  1.048905  0  3.268909  0  0  1.088653  0  3.219786  0  0  0.020521  1.020949  0  3.30303  0
B  B5  1  0.91727635  0.63903788  0.60592200  1  0  1.224212  0  2.868231  0  0  1.049584  0  3.267453  0  0  1.089252  0  3.218447  0  0  0.020618  1.021415  0  3.302084  0
B  B6  1  0.08274586  0.36095530  0.10592325  1  0  1.223933  0  2.868534  0  0  1.04931  0  3.268064  0  0  1.089076  0  3.218894  0  0  0.020648  1.021208  0  3.302543  0
B  B7  1  0.41725613  0.86095850  0.10592209  1  0  1.224238  0  2.86795  0  0  1.049483  0  3.26771  0  0  1.089215  0  3.218602  0  0  0.020642  1.02137  0  3.302213  0
H  H8  1  0.96537203  0.00164658  0.61871173  1  0  0.10177  0  0.948882  0  0  0.109149  0  1.012857  0  0  0.112322  0  1.009578  0  0  0.12443  0.106789  0  1.0154  0
H  H9  1  0.53463718  0.50164319  0.61870794  1  0  0.101765  0  0.94897  0  0  0.109114  0  1.012974  0  0  0.112277  0  1.009708  0  0  0.124425  0.106692  0  1.015604  0
H  H10  1  0.46537344  0.49835782  0.11870534  1  0  0.101728  0  0.948915  0  0  0.109172  0  1.012828  0  0  0.112352  0  1.009537  0  0  0.124415  0.10675  0  1.015459  0
H  H11  1  0.03461128  0.99835590  0.11870579  1  0  0.101689  0  0.948922  0  0  0.109133  0  1.012842  0  0  0.112301  0  1.009572  0  0  0.12444  0.106707  0  1.015477  0
H  H12  1  0.15624391  0.83111231  0.61434439  1  0  0.099422  0  0.961524  0  0  0.108788  0  1.022315  0  0  0.111778  0  1.019504  0  0  0.121115  0.106529  0  1.024547  0
H  H13  1  0.34377826  0.33110489  0.61433914  1  0  0.099371  0  0.961652  0  0  0.108736  0  1.022412  0  0  0.111731  0  1.019588  0  0  0.121096  0.106484  0  1.024659  0
H  H14  1  0.65624351  0.66889326  0.11433627  1  0  0.099427  0  0.961626  0  0  0.108782  0  1.022396  0  0  0.111776  0  1.019576  0  0  0.121104  0.106528  0  1.024629  0
H  H15  1  0.84376147  0.16889324  0.11433474  1  0  0.099442  0  0.96162  0  0  0.108803  0  1.02237  0  0  0.111799  0  1.019545  0  0  0.121109  0.10655  0  1.024608  0
H  H16  1  0.91195579  0.13103891  0.82022921  1  0  0.078834  0  0.996924  0  0  0.087155  0  1.068674  0  0  0.090071  0  1.066167  0  0  0.091193  0.085041  0  1.070564  0
H  H17  1  0.58804799  0.63103498  0.82022784  1  0  0.078869  0  0.997096  0  0  0.087192  0  1.068814  0  0  0.090108  0  1.066311  0  0  0.091212  0.085077  0  1.070701  0
H  H18  1  0.41194669  0.36896334  0.32022549  1  0  0.078881  0  0.997034  0  0  0.087192  0  1.068782  0  0  0.090111  0  1.066277  0  0  0.091219  0.08508  0  1.070668  0
H  H19  1  0.08803161  0.86895719  0.32022359  1  0  0.078882  0  0.996929  0  0  0.0872  0  1.068658  0  0  0.090118  0  1.066152  0  0  0.09119  0.085083  0  1.07055  0
H  H20  1  0.90408641  0.21442847  0.93683847  1  0  0.098464  0  0.964234  0  0  0.107621  0  1.02667  0  0  0.109698  0  1.027597  0  0  0.100385  0.106081  0  1.026142  0
H  H21  1  0.59593888  0.71441790  0.93683972  1  0  0.098488  0  0.964312  0  0  0.107632  0  1.02675  0  0  0.109722  0  1.027665  0  0  0.100405  0.106081  0  1.026232  0
H  H22  1  0.40404610  0.28557980  0.43683844  1  0  0.098443  0  0.964497  0  0  0.107618  0  1.026896  0  0  0.109701  0  1.027818  0  0  0.100378  0.106067  0  1.026381  0
H  H23  1  0.09591496  0.78557071  0.43683757  1  0  0.098436  0  0.9643  0  0  0.10759  0  1.02676  0  0  0.109667  0  1.027688  0  0  0.100373  0.106075  0  1.026209  0
H  H24  1  0.22950699  0.17860069  0.02558183  1  0  0.099053  0  0.955913  0  0  0.107766  0  1.017057  0  0  0.111051  0  1.014682  0  0  0.102986  0.105361  0  1.018856  0
H  H25  1  0.27049828  0.67858855  0.02558235  1  0  0.099068  0  0.955962  0  0  0.107852  0  1.017035  0  0  0.111087  0  1.014714  0  0  0.102989  0.105442  0  1.018844  0
H  H26  1  0.72946983  0.32139696  0.52558159  1  0  0.099053  0  0.955914  0  0  0.107782  0  1.017042  0  0  0.111052  0  1.01468  0  0  0.102961  0.105373  0  1.01885  0
H  H27  1  0.77049390  0.82140036  0.52558370  1  0  0.099038  0  0.95589  0  0  0.107744  0  1.01705  0  0  0.11103  0  1.014671  0  0  0.102982  0.105341  0  1.018846  0
H  H28  1  0.54385908  0.05525067  0.00005372  1  0  0.099818  0  0.9745  0  0  0.110042  0  1.0349  0  0  0.113119  0  1.032872  0  0  0.101843  0.107774  0  1.036499  0
H  H29  1  0.95613261  0.55523996  0.00005399  1  0  0.099666  0  0.974548  0  0  0.10995  0  1.03489  0  0  0.113038  0  1.032846  0  0  0.101822  0.107678  0  1.036493  0
H  H30  1  0.04384229  0.44474174  0.50005299  1  0  0.0998  0  0.974542  0  0  0.110043  0  1.034922  0  0  0.113116  0  1.0329  0  0  0.101846  0.107775  0  1.03652  0
H  H31  1  0.45614131  0.94475322  0.50005592  1  0  0.099758  0  0.974518  0  0  0.110023  0  1.034872  0  0  0.113106  0  1.032833  0  0  0.101825  0.107822  0  1.036371  0
H  H32  1  0.79229035  0.95967444  0.97870881  1  0  0.099031  0  0.955494  0  0  0.110654  0  1.0145  0  0  0.113359  0  1.012974  0  0  0.106666  0.108659  0  1.015772  0
H  H33  1  0.70768607  0.45967096  0.97870360  1  0  0.099024  0  0.955405  0  0  0.110588  0  1.014472  0  0  0.113292  0  1.012939  0  0  0.106633  0.108596  0  1.01574  0
H  H34  1  0.29228763  0.54032720  0.47870334  1  0  0.099116  0  0.955317  0  0  0.110658  0  1.014429  0  0  0.113353  0  1.012925  0  0  0.106671  0.108678  0  1.015658  0
H  H35  1  0.20771067  0.04032372  0.47870662  1  0  0.099027  0  0.955514  0  0  0.110644  0  1.014518  0  0  0.11335  0  1.012991  0  0  0.106648  0.108665  0  1.015755  0
H  H36  1  0.09562898  0.83317848  0.95264347  1  0  0.102405  0  0.955085  0  0  0.112067  0  1.016031  0  0  0.114792  0  1.014924  0  0  0.103323  0.110063  0  1.016936  0
H  H37  1  0.40434835  0.33317721  0.95263478  1  0  0.102359  0  0.955163  0  0  0.112009  0  1.016113  0  0  0.114772  0  1.014966  0  0  0.103341  0.110008  0  1.017014  0
H  H38  1  0.59561395  0.66682603  0.45263007  1  0  0.10232  0  0.954854  0  0  0.111871  0  1.015957  0  0  0.114558  0  1.014893  0  0  0.103233  0.109887  0  1.016832  0
H  H39  1  0.90439161  0.16682550  0.45264102  1  0  0.102348  0  0.955033  0  0  0.111959  0  1.01606  0  0  0.114644  0  1.014999  0  0  0.103284  0.109964  0  1.016956  0
H  H40  1  0.09603528  0.74780659  0.83440388  1  0  0.079925  0  0.988394  0  0  0.086507  0  1.061373  0  0  0.088584  0  1.061652  0  0  0.091842  0.08496  0  1.061345  0
H  H41  1  0.40394789  0.24781493  0.83439148  1  0  0.079969  0  0.988325  0  0  0.086484  0  1.061394  0  0  0.088561  0  1.061671  0  0  0.091828  0.084939  0  1.061364  0
H  H42  1  0.59602421  0.75218304  0.33438465  1  0  0.079879  0  0.988458  0  0  0.086427  0  1.061476  0  0  0.088503  0  1.061754  0  0  0.091836  0.084883  0  1.061443  0
H  H43  1  0.90396959  0.25218695  0.33439613  1  0  0.079905  0  0.988413  0  0  0.086459  0  1.061437  0  0  0.088535  0  1.061715  0  0  0.091846  0.084916  0  1.061404  0
H  H44  1  0.78135093  0.78744771  0.74635731  1  0  0.080906  0  1.026839  0  0  0.088526  0  1.101615  0  0  0.091791  0  1.097948  0  0  0.084431  0.086105  0  1.104313  0
H  H45  1  0.71865148  0.28745536  0.74634834  1  0  0.080951  0  1.02672  0  0  0.088543  0  1.10155  0  0  0.09183  0  1.097856  0  0  0.084403  0.086125  0  1.104245  0
H  H46  1  0.28133065  0.71254031  0.24634492  1  0  0.080936  0  1.02665  0  0  0.088523  0  1.101502  0  0  0.091808  0  1.097813  0  0  0.08443  0.086111  0  1.104171  0
H  H47  1  0.21865670  0.21254427  0.24635135  1  0  0.08094  0  1.026753  0  0  0.08856  0  1.101528  0  0  0.091848  0  1.097834  0  0  0.084431  0.08614  0  1.104223  0
C  C48  1  0.07976512  0.97440066  0.66165946  1  0  0.102712  0  3.656416  0  0  0.068692  0  3.913917  0  0  0.07404  0  3.927994  0  0  0.061129  0.064863  0  3.904732  0
C  C49  1  0.42024542  0.47440166  0.66165601  1  0  0.103002  0  3.656262  0  0  0.068924  0  3.913878  0  0  0.074262  0  3.927984  0  0  0.061184  0.065013  0  3.904891  0
C  C50  1  0.57975933  0.52560126  0.16165578  1  0  0.102777  0  3.656364  0  0  0.068684  0  3.91387  0  0  0.074034  0  3.927942  0  0  0.06114  0.064775  0  3.904878  0
C  C51  1  0.92022870  0.02560448  0.16165498  1  0  0.103053  0  3.656253  0  0  0.068902  0  3.913875  0  0  0.074241  0  3.927975  0  0  0.061208  0.064993  0  3.904887  0
C  C52  1  0.19349512  0.88218445  0.65771530  1  0  0.093236  0  3.653663  0  0  0.062494  0  3.905254  0  0  0.066823  0  3.920611  0  0  0.05607  0.059375  0  3.89516  0
C  C53  1  0.30653518  0.38217616  0.65771552  1  0  0.093062  0  3.653744  0  0  0.06231  0  3.905366  0  0  0.066644  0  3.920713  0  0  0.056028  0.05913  0  3.895396  0
C  C54  1  0.69348798  0.61782168  0.15771048  1  0  0.093091  0  3.653895  0  0  0.062386  0  3.90541  0  0  0.066722  0  3.920754  0  0  0.056038  0.05921  0  3.895431  0
C  C55  1  0.80651347  0.11782152  0.15771069  1  0  0.092942  0  3.653958  0  0  0.062206  0  3.905549  0  0  0.066532  0  3.920912  0  0  0.055935  0.059033  0  3.895566  0
C  C56  1  0.24937023  0.99954929  0.77272572  1  0  0.152591  0  3.708857  0  0  0.145245  0  3.947819  0  0  0.150384  0  3.967726  0  0  0.131753  0.141492  0  3.934642  0
C  C57  1  0.25065156  0.49954745  0.77272086  1  0  0.152485  0  3.70902  0  0  0.145256  0  3.947772  0  0  0.150387  0  3.9677  0  0  0.131711  0.141494  0  3.934599  0
C  C58  1  0.74936199  0.50045055  0.27272341  1  0  0.15242  0  3.709085  0  0  0.145174  0  3.947871  0  0  0.150312  0  3.967783  0  0  0.13166  0.141414  0  3.934697  0
C  C59  1  0.75064149  0.00045092  0.27272121  1  0  0.152449  0  3.709121  0  0  0.145122  0  3.947941  0  0  0.150249  0  3.967873  0  0  0.131679  0.141363  0  3.934761  0
C  C60  1  0.39793367  0.91433618  0.76298788  1  0  0.149993  0  3.706438  0  0  0.141719  0  3.946634  0  0  0.146581  0  3.966622  0  0  0.130503  0.138146  0  3.933382  0
C  C61  1  0.10209014  0.41433009  0.76298472  1  0  0.149851  0  3.706659  0  0  0.141669  0  3.946624  0  0  0.14653  0  3.966618  0  0  0.130567  0.138095  0  3.93339  0
C  C62  1  0.89790934  0.58566962  0.26298611  1  0  0.149975  0  3.706539  0  0  0.141772  0  3.946517  0  0  0.146639  0  3.966504  0  0  0.130574  0.138202  0  3.933284  0
C  C63  1  0.60208402  0.08567093  0.26298772  1  0  0.149914  0  3.706556  0  0  0.141826  0  3.946428  0  0  0.146694  0  3.966419  0  0  0.130613  0.138249  0  3.933193  0
C  C64  1  0.24496400  0.04947857  0.84091499  1  0  -0.030976  0  3.781167  0  0  -0.020415  0  4.011262  0  0  -0.02372  0  4.036479  0  0  -0.011423  -0.018089  0  3.994188  0
C  C65  1  0.25504849  0.54947156  0.84091133  1  0  -0.030607  0  3.780856  0  0  -0.02014  0  4.010892  0  0  -0.023444  0  4.036108  0  0  -0.011367  -0.017828  0  3.993837  0
C  C66  1  0.74494694  0.45051960  0.34091293  1  0  -0.030586  0  3.780913  0  0  -0.020142  0  4.010928  0  0  -0.023447  0  4.036147  0  0  -0.011326  -0.017826  0  3.993869  0
C  C67  1  0.75503690  0.95052220  0.34091245  1  0  -0.030541  0  3.781114  0  0  -0.020056  0  4.01114  0  0  -0.023355  0  4.036357  0  0  -0.011303  -0.017738  0  3.994077  0
C  C68  1  0.05815410  0.11716859  0.85814595  1  0  -0.11707  0  3.786947  0  0  -0.135393  0  4.038521  0  0  -0.138097  0  4.060162  0  0  -0.094218  -0.133513  0  4.023835  0
C  C69  1  0.44185008  0.61716374  0.85814309  1  0  -0.117244  0  3.786895  0  0  -0.135569  0  4.038488  0  0  -0.138276  0  4.060132  0  0  -0.094282  -0.133684  0  4.023798  0
C  C70  1  0.55813899  0.38283069  0.35814632  1  0  -0.117247  0  3.786954  0  0  -0.135565  0  4.038558  0  0  -0.138272  0  4.060205  0  0  -0.094259  -0.133676  0  4.023861  0
C  C71  1  0.94182769  0.88282881  0.35813922  1  0  -0.117227  0  3.787018  0  0  -0.135545  0  4.038601  0  0  -0.138254  0  4.060245  0  0  -0.094255  -0.133658  0  4.023918  0
C  C72  1  0.05003061  0.16276469  0.92402923  1  0  -0.057902  0  3.738648  0  0  -0.07221  0  3.98793  0  0  -0.074436  0  4.010748  0  0  -0.085634  -0.070587  0  3.972352  0
C  C73  1  0.44998585  0.66275692  0.92402953  1  0  -0.057742  0  3.738514  0  0  -0.072036  0  3.987805  0  0  -0.074269  0  4.010605  0  0  -0.085535  -0.070404  0  3.972229  0
C  C74  1  0.54999980  0.33723370  0.42403177  1  0  -0.057848  0  3.738768  0  0  -0.072169  0  3.988019  0  0  -0.074399  0  4.01083  0  0  -0.08563  -0.070538  0  3.972445  0
C  C75  1  0.94997325  0.83723332  0.42402622  1  0  -0.05786  0  3.738581  0  0  -0.072187  0  3.987893  0  0  -0.074412  0  4.010712  0  0  -0.085617  -0.070585  0  3.972309  0
C  C76  1  0.23077671  0.14125607  0.97436022  1  0  -0.046147  0  3.730309  0  0  -0.059194  0  3.980591  0  0  -0.06125  0  4.001797  0  0  -0.079467  -0.057693  0  3.96616  0
C  C77  1  0.26923842  0.64124541  0.97436074  1  0  -0.046379  0  3.730579  0  0  -0.059505  0  3.98089  0  0  -0.061519  0  4.00211  0  0  -0.079571  -0.058005  0  3.966457  0
C  C78  1  0.73075554  0.35874546  0.47436089  1  0  -0.046121  0  3.730269  0  0  -0.059188  0  3.980562  0  0  -0.061231  0  4.001768  0  0  -0.079442  -0.057687  0  3.966132  0
C  C79  1  0.76923182  0.85874442  0.47436035  1  0  -0.046081  0  3.730242  0  0  -0.059129  0  3.980543  0  0  -0.061184  0  4.00174  0  0  -0.079455  -0.057621  0  3.966097  0
C  C80  1  0.41112691  0.07264033  0.95919921  1  0  -0.090729  0  3.705536  0  0  -0.113408  0  3.954833  0  0  -0.115993  0  3.975887  0  0  -0.08077  -0.111646  0  3.940657  0
C  C81  1  0.08887637  0.57263196  0.95919943  1  0  -0.090421  0  3.705662  0  0  -0.113108  0  3.954822  0  0  -0.115686  0  3.97585  0  0  -0.08071  -0.111343  0  3.940648  0
C  C82  1  0.91111656  0.42735854  0.45919690  1  0  -0.090714  0  3.705736  0  0  -0.11345  0  3.954937  0  0  -0.116041  0  3.976005  0  0  -0.0808  -0.111685  0  3.940761  0
C  C83  1  0.58887512  0.92736053  0.45920031  1  0  -0.090735  0  3.705567  0  0  -0.113425  0  3.954718  0  0  -0.116002  0  3.975757  0  0  -0.080793  -0.111618  0  3.940409  0
C  C84  1  0.41983859  0.02332298  0.89330373  1  0  0.032402  0  3.742799  0  0  0.043165  0  3.971477  0  0  0.042877  0  3.996271  0  0  0.00272  0.043352  0  3.954645  0
C  C85  1  0.08016506  0.52332198  0.89329975  1  0  0.031994  0  3.74302  0  0  0.042865  0  3.971587  0  0  0.042575  0  3.996383  0  0  0.002615  0.043056  0  3.95475  0
C  C86  1  0.91983311  0.47667456  0.39329816  1  0  0.032076  0  3.743241  0  0  0.043039  0  3.971636  0  0  0.04275  0  3.996432  0  0  0.002595  0.04323  0  3.954802  0
C  C87  1  0.58016140  0.97667800  0.39329895  1  0  0.032012  0  3.743053  0  0  0.042946  0  3.971531  0  0  0.042654  0  3.996327  0  0  0.002638  0.043138  0  3.954696  0
C  C88  1  0.60039055  0.94661358  0.87849915  1  0  0.029994  0  3.731854  0  0  0.041661  0  3.960206  0  0  0.041365  0  3.984396  0  0  0.002501  0.041852  0  3.943778  0
C  C89  1  0.89960714  0.44661080  0.87850003  1  0  0.030092  0  3.731902  0  0  0.041714  0  3.960245  0  0  0.041419  0  3.984432  0  0  0.002505  0.041907  0  3.943814  0
C  C90  1  0.10037177  0.55339350  0.37849882  1  0  0.029989  0  3.73217  0  0  0.041623  0  3.960435  0  0  0.041333  0  3.984623  0  0  0.002515  0.041814  0  3.944014  0
C  C91  1  0.39961386  0.05339220  0.37849971  1  0  0.030168  0  3.73202  0  0  0.041747  0  3.960395  0  0  0.041457  0  3.984585  0  0  0.002558  0.04194  0  3.943971  0
C  C92  1  0.78435280  0.92219694  0.92773652  1  0  -0.080896  0  3.704201  0  0  -0.104806  0  3.95693  0  0  -0.10673  0  3.976795  0  0  -0.07703  -0.103482  0  3.943488  0
C  C93  1  0.71563262  0.42219349  0.92773234  1  0  -0.080928  0  3.704317  0  0  -0.104775  0  3.957035  0  0  -0.106703  0  3.976922  0  0  -0.077059  -0.103449  0  3.943584  0
C  C94  1  0.28434191  0.57780591  0.42773164  1  0  -0.080982  0  3.704396  0  0  -0.104866  0  3.957115  0  0  -0.106791  0  3.976961  0  0  -0.077093  -0.103543  0  3.943692  0
C  C95  1  0.21565998  0.07780246  0.42773489  1  0  -0.081097  0  3.70442  0  0  -0.104979  0  3.95715  0  0  -0.106907  0  3.977009  0  0  -0.077122  -0.103646  0  3.94369  0
C  C96  1  0.95777711  0.85056734  0.91298379  1  0  -0.046319  0  3.726073  0  0  -0.062787  0  3.979677  0  0  -0.064223  0  4.000426  0  0  -0.07983  -0.061703  0  3.965539  0
C  C97  1  0.54221093  0.35056620  0.91297822  1  0  -0.046263  0  3.725931  0  0  -0.062742  0  3.979547  0  0  -0.064209  0  4.000278  0  0  -0.079825  -0.061658  0  3.96541  0
C  C98  1  0.45775890  0.64943430  0.41297431  1  0  -0.046199  0  3.725639  0  0  -0.062578  0  3.979241  0  0  -0.063979  0  3.999996  0  0  -0.079746  -0.061508  0  3.965091  0
C  C99  1  0.04224008  0.14943464  0.41298413  1  0  -0.046058  0  3.725804  0  0  -0.062507  0  3.97941  0  0  -0.063909  0  4.000169  0  0  -0.07973  -0.061429  0  3.965276  0
C  C100  1  0.95589150  0.80210980  0.84712868  1  0  -0.060024  0  3.755056  0  0  -0.073189  0  4.004802  0  0  -0.075701  0  4.028813  0  0  -0.091972  -0.071383  0  3.988438  0
C  C101  1  0.54410422  0.30211163  0.84711885  1  0  -0.060122  0  3.754938  0  0  -0.073227  0  4.00465  0  0  -0.075739  0  4.028668  0  0  -0.091985  -0.07142  0  3.988286  0
C  C102  1  0.45587268  0.69789343  0.34712072  1  0  -0.059995  0  3.755116  0  0  -0.073161  0  4.004873  0  0  -0.075668  0  4.028872  0  0  -0.091963  -0.071355  0  3.988507  0
C  C103  1  0.04410725  0.19788638  0.34712682  1  0  -0.06012  0  3.75505  0  0  -0.073265  0  4.004787  0  0  -0.075772  0  4.028784  0  0  -0.092  -0.071457  0  3.988419  0
C  C104  1  0.77528013  0.82358215  0.79807501  1  0  -0.116425  0  3.765844  0  0  -0.136385  0  4.015684  0  0  -0.140531  0  4.039589  0  0  -0.099556  -0.133468  0  3.999447  0
C  C105  1  0.72472231  0.32358243  0.79807079  1  0  -0.1163  0  3.765782  0  0  -0.136223  0  4.015559  0  0  -0.140362  0  4.039439  0  0  -0.099492  -0.133305  0  3.999322  0
C  C106  1  0.27527170  0.67642087  0.29806784  1  0  -0.11627  0  3.76578  0  0  -0.136219  0  4.015599  0  0  -0.140358  0  4.039484  0  0  -0.099554  -0.133295  0  3.999362  0
C  C107  1  0.22471935  0.17642411  0.29807318  1  0  -0.11644  0  3.76565  0  0  -0.136391  0  4.015477  0  0  -0.140531  0  4.039358  0  0  -0.099594  -0.133471  0  3.999239  0
C  C108  1  0.59154259  0.89325750  0.81338414  1  0  -0.022151  0  3.762675  0  0  -0.01265  0  3.995403  0  0  -0.015833  0  4.021509  0  0  -0.011157  -0.010391  0  3.977677  0
C  C109  1  0.90846262  0.39325476  0.81338339  1  0  -0.022241  0  3.762773  0  0  -0.012793  0  3.995489  0  0  -0.01598  0  4.021599  0  0  -0.011157  -0.010537  0  3.977764  0
C  C110  1  0.09152514  0.60674891  0.31338049  1  0  -0.022259  0  3.76272  0  0  -0.012799  0  3.995413  0  0  -0.015987  0  4.021522  0  0  -0.011082  -0.01056  0  3.977713  0
C  C111  1  0.40846338  0.10675135  0.31338293  1  0  -0.022075  0  3.762412  0  0  -0.012643  0  3.995128  0  0  -0.015827  0  4.021233  0  0  -0.011088  -0.010387  0  3.977399  0
N  N112  1  0.10671044  0.03217812  0.71863682  1  0  -0.294235  0  3.266033  0  0  -0.218999  0  3.53892  0  0  -0.234176  0  3.553149  0  0  -0.320664  -0.20853  0  3.529236  0
N  N113  1  0.39331162  0.53217532  0.71863204  1  0  -0.294203  0  3.266173  0  0  -0.219053  0  3.539096  0  0  -0.234245  0  3.553366  0  0  -0.320609  -0.208598  0  3.529467  0
N  N114  1  0.60670474  0.46782400  0.21863454  1  0  -0.294028  0  3.266088  0  0  -0.218863  0  3.538961  0  0  -0.234042  0  3.553198  0  0  -0.320529  -0.208407  0  3.529327  0
N  N115  1  0.89328588  0.96782267  0.21863083  1  0  -0.294112  0  3.266115  0  0  -0.218968  0  3.53911  0  0  -0.234145  0  3.553352  0  0  -0.320579  -0.208515  0  3.529482  0
N  N116  1  0.35524654  0.85361588  0.70676003  1  0  -0.294083  0  3.270551  0  0  -0.216635  0  3.543867  0  0  -0.231867  0  3.5581  0  0  -0.320319  -0.206109  0  3.534104  0
N  N117  1  0.14478051  0.35361142  0.70675881  1  0  -0.293876  0  3.270707  0  0  -0.216449  0  3.543929  0  0  -0.231679  0  3.558159  0  0  -0.320326  -0.205949  0  3.53424  0
N  N118  1  0.85522372  0.64638744  0.20675644  1  0  -0.294012  0  3.270625  0  0  -0.216552  0  3.543754  0  0  -0.231781  0  3.557974  0  0  -0.320364  -0.206049  0  3.534055  0
N  N119  1  0.64477772  0.14638816  0.20675893  1  0  -0.293949  0  3.27067  0  0  -0.216514  0  3.543815  0  0  -0.231745  0  3.558043  0  0  -0.320356  -0.20601  0  3.534115  0
F  F120  1  0.82232700  0.16243582  0.58236707  1  0  -0.511278  0  1.04275  0  0  -0.4464  0  1.231653  0  0  -0.46133  0  1.207663  0  0  -0.150724  -0.435682  0  1.248412  0
F  F121  1  0.67769539  0.66241372  0.58236639  1  0  -0.511433  0  1.042526  0  0  -0.446597  0  1.231456  0  0  -0.46157  0  1.207512  0  0  -0.150827  -0.435936  0  1.248286  0
F  F122  1  0.32231712  0.33757189  0.08236162  1  0  -0.511299  0  1.042614  0  0  -0.446486  0  1.23154  0  0  -0.461426  0  1.207563  0  0  -0.150775  -0.435837  0  1.24837  0
F  F123  1  0.17768551  0.83757421  0.08236412  1  0  -0.511333  0  1.042503  0  0  -0.446545  0  1.231533  0  0  -0.461491  0  1.207556  0  0  -0.150758  -0.435899  0  1.248361  0
F  F124  1  0.40957425  0.19159550  0.56564218  1  0  -0.503178  0  1.034307  0  0  -0.441565  0  1.212571  0  0  -0.456396  0  1.191907  0  0  -0.143709  -0.43092  0  1.2269  0
F  F125  1  0.09045244  0.69158344  0.56563390  1  0  -0.503366  0  1.033996  0  0  -0.441687  0  1.212184  0  0  -0.456558  0  1.191572  0  0  -0.143694  -0.431066  0  1.226567  0
F  F126  1  0.90955911  0.30841590  0.06563817  1  0  -0.503314  0  1.034098  0  0  -0.441694  0  1.212324  0  0  -0.456522  0  1.191649  0  0  -0.143737  -0.43112  0  1.226732  0
F  F127  1  0.59044095  0.80842233  0.06563679  1  0  -0.503338  0  1.033987  0  0  -0.441722  0  1.212296  0  0  -0.456562  0  1.191638  0  0  -0.143749  -0.431069  0  1.226625  0
F  F128  1  0.56252424  0.16816735  0.67900752  1  0  -0.531071  0  1.073177  0  0  -0.469844  0  1.280069  0  0  -0.484531  0  1.255064  0  0  -0.162963  -0.459275  0  1.29745  0
F  F129  1  0.93751511  0.66815361  0.67899990  1  0  -0.531098  0  1.073076  0  0  -0.469938  0  1.28001  0  0  -0.484373  0  1.254804  0  0  -0.162871  -0.459445  0  1.297474  0
F  F130  1  0.06251423  0.33183779  0.17900320  1  0  -0.531149  0  1.073104  0  0  -0.469971  0  1.280018  0  0  -0.484658  0  1.255003  0  0  -0.162972  -0.459472  0  1.297467  0
F  F131  1  0.43749053  0.83184402  0.17900142  1  0  -0.531177  0  1.072969  0  0  -0.469981  0  1.279939  0  0  -0.484665  0  1.254929  0  0  -0.162945  -0.459498  0  1.297395  0
F  F132  1  0.54393794  0.03643512  0.60093301  1  0  -0.509245  0  1.047958  0  0  -0.44882  0  1.227096  0  0  -0.464383  0  1.208186  0  0  -0.149162  -0.437634  0  1.240216  0
F  F133  1  0.95610766  0.53642071  0.60092957  1  0  -0.509538  0  1.047897  0  0  -0.448981  0  1.226947  0  0  -0.464438  0  1.207943  0  0  -0.149259  -0.437016  0  1.239137  0
F  F134  1  0.04392210  0.46357259  0.10092918  1  0  -0.509341  0  1.047857  0  0  -0.448883  0  1.226954  0  0  -0.464479  0  1.208062  0  0  -0.1492  -0.436923  0  1.23913  0
F  F135  1  0.45606632  0.96357742  0.10092573  1  0  -0.509546  0  1.047798  0  0  -0.448977  0  1.226914  0  0  -0.464456  0  1.207921  0  0  -0.149237  -0.437009  0  1.239075  0
