# generated using pymatgen
data_Cd3H16C20(NO6)2
_symmetry_space_group_name_H-M   'P 1'
_cell_length_a   7.13991438
_cell_length_b   9.47525482
_cell_length_c   9.51440417
_cell_angle_alpha   108.02692651
_cell_angle_beta   111.33578907
_cell_angle_gamma   93.09438784
_symmetry_Int_Tables_number   1
_chemical_formula_structural   Cd3H16C20(NO6)2
_chemical_formula_sum   'Cd3 H16 C20 N2 O12'
_cell_volume   559.95426897
_cell_formula_units_Z   1
loop_
 _symmetry_equiv_pos_site_id
 _symmetry_equiv_pos_as_xyz
  1  'x, y, z'
loop_
 _atom_site_type_symbol
 _atom_site_label
 _atom_site_symmetry_multiplicity
 _atom_site_fract_x
 _atom_site_fract_y
 _atom_site_fract_z
 _atom_site_occupancy
 _atom_site_pbe_bader_spin_density
 _atom_site_pbe_cm5_charge
 _atom_site_pbe_ddec_charge
 _atom_site_pbe_ddec_spin_density
 _atom_site_pbe_ddec_sum_bond_order
 _atom_site_pbe_magmom
Cd  Cd0  1  0.22990799  0.51341692  0.44648555  1  0  0.77716  0.976848  0  2.140307  0
Cd  Cd1  1  0.77009195  0.48658329  0.55351475  1  0  0.777153  0.976849  0  2.140286  0
Cd  Cd2  1  0.99999822  0.50000023  0.99999957  1  0  0.822378  1.152664  0  2.206792  0
H  H3  1  0.12440674  0.90282353  0.13813835  1  0  0.111808  0.126106  0  1.018378  0
H  H4  1  0.87559470  0.09717668  0.86186237  1  0  0.111815  0.12609  0  1.018403  0
H  H5  1  0.28996361  0.04238680  0.64905157  1  0  0.111629  0.121937  0  1.02821  0
H  H6  1  0.71003632  0.95761341  0.35094768  1  0  0.111628  0.121921  0  1.028207  0
H  H7  1  0.28479723  0.31047431  0.65724619  1  0  0.118011  0.096027  0  1.002404  0
H  H8  1  0.71520450  0.68952703  0.34275495  1  0  0.118014  0.096034  0  1.002429  0
H  H9  1  0.12981486  0.17747029  0.16574884  1  0  0.114624  0.088289  0  1.012304  0
H  H10  1  0.87018536  0.82253105  0.83425188  1  0  0.11462  0.088267  0  1.012324  0
H  H11  1  0.58289444  0.21554444  0.21725086  1  0  0.113584  0.130215  0  0.982874  0
H  H12  1  0.41710549  0.78445577  0.78274945  1  0  0.11358  0.130197  0  0.98288  0
H  H13  1  0.46936988  0.23926813  0.88137753  1  0  0.090329  0.125725  0  1.015681  0
H  H14  1  0.53063128  0.76073095  0.11862171  1  0  0.090338  0.125723  0  1.015685  0
H  H15  1  0.32190930  0.11582398  0.92612846  1  0  0.084323  0.113396  0  1.014373  0
H  H16  1  0.67809185  0.88417510  0.07387078  1  0  0.084333  0.113388  0  1.014386  0
H  H17  1  0.57304530  0.09017942  0.93948665  1  0  0.08658  0.118633  0  1.021382  0
H  H18  1  0.42695435  0.90981966  0.06051323  1  0  0.086573  0.11862  0  1.021404  0
C  C19  1  0.20370720  0.79274300  0.38532246  1  0  0.208366  0.584641  0  4.210106  0
C  C20  1  0.79629273  0.20725721  0.61467784  1  0  0.208393  0.584699  0  4.210033  0
C  C21  1  0.20710262  0.95382452  0.39303809  1  0  0.006421  0.021205  0  3.940544  0
C  C22  1  0.79289882  0.04617569  0.60696262  1  0  0.006442  0.021187  0  3.940592  0
C  C23  1  0.16098804  0.99122727  0.25463039  1  0  -0.074141  -0.13702  0  3.915729  0
C  C24  1  0.83901339  0.00877294  0.74537033  1  0  -0.074154  -0.137001  0  3.915727  0
C  C25  1  0.25404927  0.06947196  0.54039912  1  0  -0.076747  -0.142135  0  3.939913  0
C  C26  1  0.74595216  0.93052825  0.45960265  1  0  -0.076749  -0.142101  0  3.939961  0
C  C27  1  0.25210466  0.21731353  0.54501936  1  0  0.048451  0.102835  0  3.922188  0
C  C28  1  0.74789678  0.78268668  0.45498031  1  0  0.048439  0.102825  0  3.922187  0
C  C29  1  0.16525638  0.14251353  0.27003679  1  0  0.0453  0.094311  0  3.934898  0
C  C30  1  0.83474506  0.85748669  0.72996393  1  0  0.045312  0.094367  0  3.934885  0
C  C31  1  0.42782195  0.39138618  0.17180441  1  0  0.221112  0.638867  0  4.108575  0
C  C32  1  0.57217591  0.60861176  0.82819357  1  0  0.221082  0.638785  0  4.108676  0
C  C33  1  0.78510966  0.36295421  0.18850589  1  0  0.221954  0.639517  0  4.090997  0
C  C34  1  0.21488877  0.63704600  0.81149505  1  0  0.221948  0.639506  0  4.090985  0
C  C35  1  0.56700864  0.27934100  0.13548276  1  0  -0.095769  -0.228317  0  3.880501  0
C  C36  1  0.43299129  0.72065921  0.86451754  1  0  -0.095784  -0.228279  0  3.880448  0
C  C37  1  0.47738609  0.17440321  0.95998704  1  0  -0.251507  -0.357184  0  3.979624  0
C  C38  1  0.52261356  0.82559587  0.04001178  1  0  -0.251512  -0.357159  0  3.979667  0
N  N39  1  0.20897946  0.25375243  0.41224816  1  0  -0.321872  -0.236548  0  3.48213  0
N  N40  1  0.79102198  0.74624778  0.58775255  1  0  -0.32189  -0.236625  0  3.482178  0
O  O41  1  0.27844560  0.77075545  0.51910439  1  0  -0.321337  -0.54288  0  2.232262  0
O  O42  1  0.72155434  0.22924476  0.48089591  1  0  -0.321328  -0.542883  0  2.232246  0
O  O43  1  0.12615283  0.68810397  0.24911137  1  0  -0.330409  -0.596554  0  2.364374  0
O  O44  1  0.87384710  0.31189624  0.75088998  1  0  -0.330431  -0.596578  0  2.36433  0
O  O45  1  0.45639412  0.45645362  0.31999237  1  0  -0.334046  -0.608658  0  2.417782  0
O  O46  1  0.54360402  0.54354546  0.68000710  1  0  -0.334043  -0.60861  0  2.417792  0
O  O47  1  0.29319268  0.40907484  0.05219457  1  0  -0.316625  -0.543403  0  2.279713  0
O  O48  1  0.70680338  0.59092198  0.94780468  1  0  -0.316592  -0.543363  0  2.279753  0
O  O49  1  0.87010712  0.33158780  0.09008491  1  0  -0.320427  -0.577712  0  2.29854  0
O  O50  1  0.12989281  0.66841242  0.90991644  1  0  -0.320413  -0.57772  0  2.298537  0
O  O51  1  0.87297939  0.45801470  0.33328990  1  0  -0.327964  -0.584474  0  2.411245  0
O  O52  1  0.12702055  0.54198551  0.66671040  1  0  -0.32796  -0.58447  0  2.411282  0
