# generated using pymatgen
data_ZnH4(CN5)2
_symmetry_space_group_name_H-M   'P 1'
_cell_length_a   10.28972527
_cell_length_b   10.33668253
_cell_length_c   20.07016773
_cell_angle_alpha   89.99996526
_cell_angle_beta   90.00003235
_cell_angle_gamma   119.72256633
_symmetry_Int_Tables_number   1
_chemical_formula_structural   ZnH4(CN5)2
_chemical_formula_sum   'Zn8 H32 C16 N80'
_cell_volume   1853.84718457
_cell_formula_units_Z   8
loop_
 _symmetry_equiv_pos_site_id
 _symmetry_equiv_pos_as_xyz
  1  'x, y, z'
loop_
 _atom_site_type_symbol
 _atom_site_label
 _atom_site_symmetry_multiplicity
 _atom_site_fract_x
 _atom_site_fract_y
 _atom_site_fract_z
 _atom_site_occupancy
 _atom_site_hle17_bader_spin_density
 _atom_site_hle17_ddec_charge
 _atom_site_hle17_ddec_spin_density
 _atom_site_hle17_ddec_sum_bond_order
 _atom_site_hle17_magmom
 _atom_site_hse06_10hf_bader_spin_density
 _atom_site_hse06_10hf_ddec_charge
 _atom_site_hse06_10hf_ddec_spin_density
 _atom_site_hse06_10hf_ddec_sum_bond_order
 _atom_site_hse06_10hf_magmom
 _atom_site_hse06_bader_spin_density
 _atom_site_hse06_ddec_charge
 _atom_site_hse06_ddec_spin_density
 _atom_site_hse06_ddec_sum_bond_order
 _atom_site_hse06_magmom
 _atom_site_pbe_bader_spin_density
 _atom_site_pbe_cm5_charge
 _atom_site_pbe_ddec_charge
 _atom_site_pbe_ddec_spin_density
 _atom_site_pbe_ddec_sum_bond_order
 _atom_site_pbe_magmom
Zn  Zn0  1  0.37078926  0.54587497  0.59731087  1  0  0.903726  0  1.998822  0  0  0.698301  0  2.486616  0  0  0.735569  0  2.443946  0  0  0.757179  0.670978  0  2.516748  0
Zn  Zn1  1  0.62921120  0.45412448  0.09731062  1  0  0.903775  0  1.998739  0  0  0.698372  0  2.486519  0  0  0.735639  0  2.443856  0  0  0.757204  0.671051  0  2.51666  0
Zn  Zn2  1  0.62921186  0.45412547  0.40268973  1  0  0.903696  0  1.998849  0  0  0.698286  0  2.486633  0  0  0.735556  0  2.443968  0  0  0.757183  0.670961  0  2.516766  0
Zn  Zn3  1  0.37078839  0.54587484  0.90268899  1  0  0.903715  0  1.998783  0  0  0.698295  0  2.486585  0  0  0.735561  0  2.443926  0  0  0.75717  0.670971  0  2.516722  0
Zn  Zn4  1  0.04609968  0.87875024  0.59624900  1  0  0.908788  0  1.987276  0  0  0.702331  0  2.475014  0  0  0.739856  0  2.432205  0  0  0.759412  0.674927  0  2.505025  0
Zn  Zn5  1  0.95390176  0.12124921  0.09624794  1  0  0.908777  0  1.987264  0  0  0.702294  0  2.475056  0  0  0.739814  0  2.432253  0  0  0.759391  0.674888  0  2.505065  0
Zn  Zn6  1  0.95390131  0.12124797  0.40375160  1  0  0.908782  0  1.987267  0  0  0.702304  0  2.47503  0  0  0.739821  0  2.432229  0  0  0.759404  0.674895  0  2.505038  0
Zn  Zn7  1  0.04609687  0.87875011  0.90375166  1  0  0.908839  0  1.987217  0  0  0.702363  0  2.474998  0  0  0.739885  0  2.432192  0  0  0.759421  0.674953  0  2.505006  0
H  H8  1  0.93528089  0.53815382  0.58490249  1  0  0.312846  0  0.957972  0  0  0.284033  0  1.044466  0  0  0.292151  0  1.037246  0  0  0.290516  0.278356  0  1.049303  0
H  H9  1  0.06471956  0.46184564  0.08490207  1  0  0.312837  0  0.957967  0  0  0.28403  0  1.044454  0  0  0.292146  0  1.037237  0  0  0.290531  0.278351  0  1.049292  0
H  H10  1  0.06471871  0.46184550  0.41509761  1  0  0.312851  0  0.95797  0  0  0.284035  0  1.044468  0  0  0.292152  0  1.037251  0  0  0.290523  0.27836  0  1.049305  0
H  H11  1  0.93528003  0.53815368  0.91509754  1  0  0.312834  0  0.957968  0  0  0.284023  0  1.044461  0  0  0.29214  0  1.037244  0  0  0.290514  0.278347  0  1.049299  0
H  H12  1  0.03460826  0.44059118  0.58780917  1  0  0.318955  0  0.943546  0  0  0.291601  0  1.027495  0  0  0.299633  0  1.020199  0  0  0.291712  0.285899  0  1.032566  0
H  H13  1  0.96539219  0.55940828  0.08780948  1  0  0.318948  0  0.943552  0  0  0.291595  0  1.027494  0  0  0.299628  0  1.020198  0  0  0.291723  0.285895  0  1.032567  0
H  H14  1  0.96539133  0.55940814  0.41219043  1  0  0.318957  0  0.943559  0  0  0.291605  0  1.027497  0  0  0.299637  0  1.020202  0  0  0.291718  0.285904  0  1.032569  0
H  H15  1  0.03460740  0.44059104  0.91219062  1  0  0.318966  0  0.943528  0  0  0.29162  0  1.027462  0  0  0.299652  0  1.020168  0  0  0.291721  0.285921  0  1.032533  0
H  H16  1  0.47983856  0.30617256  0.57526975  1  0  0.320447  0  0.945323  0  0  0.291192  0  1.032009  0  0  0.299336  0  1.024627  0  0  0.293327  0.285398  0  1.037031  0
H  H17  1  0.52016286  0.69382691  0.07527039  1  0  0.320432  0  0.945313  0  0  0.291174  0  1.032005  0  0  0.299318  0  1.024624  0  0  0.293336  0.285383  0  1.037028  0
H  H18  1  0.52016353  0.69382788  0.42472985  1  0  0.320458  0  0.945305  0  0  0.291196  0  1.032003  0  0  0.299342  0  1.024619  0  0  0.293344  0.285405  0  1.037027  0
H  H19  1  0.47983729  0.30617353  0.92472971  1  0  0.320462  0  0.945284  0  0  0.291204  0  1.031978  0  0  0.299347  0  1.024596  0  0  0.293341  0.285412  0  1.037001  0
H  H20  1  0.38127810  0.11045186  0.56538146  1  0  0.325562  0  0.935273  0  0  0.296322  0  1.02248  0  0  0.304379  0  1.015103  0  0  0.29687  0.290523  0  1.02754  0
H  H21  1  0.61872332  0.88954762  0.06538207  1  0  0.32551  0  0.935331  0  0  0.296296  0  1.022515  0  0  0.304353  0  1.015141  0  0  0.296857  0.290496  0  1.027574  0
H  H22  1  0.61872247  0.88954746  0.43461764  1  0  0.325534  0  0.935315  0  0  0.296324  0  1.022495  0  0  0.30438  0  1.015123  0  0  0.296879  0.290524  0  1.027555  0
H  H23  1  0.38127781  0.11045282  0.93461804  1  0  0.325547  0  0.935293  0  0  0.296335  0  1.022473  0  0  0.304392  0  1.015098  0  0  0.296877  0.290536  0  1.027533  0
H  H24  1  0.80337400  0.98048988  0.57864535  1  0  0.322393  0  0.940685  0  0  0.293476  0  1.027106  0  0  0.301561  0  1.019758  0  0  0.294301  0.287653  0  1.032264  0
H  H25  1  0.19662700  0.01951069  0.07864461  1  0  0.322357  0  0.940704  0  0  0.293453  0  1.027117  0  0  0.301537  0  1.01977  0  0  0.294309  0.28763  0  1.032274  0
H  H26  1  0.19662712  0.01951055  0.42135475  1  0  0.322367  0  0.940667  0  0  0.293466  0  1.027087  0  0  0.30155  0  1.019739  0  0  0.294304  0.287642  0  1.032244  0
H  H27  1  0.80337204  0.98048751  0.92135549  1  0  0.322371  0  0.940684  0  0  0.293476  0  1.027089  0  0  0.301559  0  1.019742  0  0  0.29431  0.287652  0  1.032246  0
H  H28  1  0.60701139  0.88144646  0.57039827  1  0  0.324577  0  0.933665  0  0  0.295836  0  1.020136  0  0  0.303695  0  1.013045  0  0  0.297379  0.29015  0  1.025056  0
H  H29  1  0.39298920  0.11855524  0.07039855  1  0  0.324574  0  0.933639  0  0  0.29583  0  1.020113  0  0  0.303689  0  1.013022  0  0  0.297398  0.290146  0  1.025033  0
H  H30  1  0.39298876  0.11855397  0.42960133  1  0  0.324573  0  0.933639  0  0  0.295831  0  1.020123  0  0  0.303689  0  1.013033  0  0  0.297392  0.290144  0  1.025044  0
H  H31  1  0.60700957  0.88144631  0.92960155  1  0  0.324587  0  0.933654  0  0  0.295852  0  1.020117  0  0  0.303709  0  1.013026  0  0  0.297406  0.290166  0  1.025035  0
H  H32  1  0.34420516  0.31482419  0.79148915  1  0  0.324597  0  0.900133  0  0  0.306862  0  0.971463  0  0  0.312734  0  0.9666  0  0  0.303029  0.302649  0  0.974995  0
H  H33  1  0.65579613  0.68517843  0.29148883  1  0  0.324585  0  0.900127  0  0  0.306885  0  0.971437  0  0  0.312761  0  0.966566  0  0  0.303024  0.302674  0  0.974969  0
H  H34  1  0.65579610  0.68517847  0.20851095  1  0  0.324608  0  0.900094  0  0  0.306911  0  0.971401  0  0  0.312787  0  0.966529  0  0  0.303034  0.302698  0  0.974933  0
H  H35  1  0.34420458  0.31482311  0.70851127  1  0  0.324584  0  0.900149  0  0  0.306849  0  0.971476  0  0  0.312721  0  0.966614  0  0  0.303018  0.302636  0  0.975007  0
H  H36  1  0.00685154  0.62808898  0.70770400  1  0  0.326848  0  0.893535  0  0  0.312853  0  0.957457  0  0  0.318889  0  0.952587  0  0  0.304179  0.30844  0  0.961103  0
H  H37  1  0.99314803  0.37191038  0.20770438  1  0  0.326854  0  0.893495  0  0  0.312863  0  0.957412  0  0  0.318898  0  0.952543  0  0  0.304186  0.308449  0  0.961058  0
H  H38  1  0.99314862  0.37191146  0.29229560  1  0  0.326865  0  0.893464  0  0  0.312874  0  0.957383  0  0  0.318908  0  0.952514  0  0  0.30419  0.308461  0  0.961029  0
H  H39  1  0.00685101  0.62808783  0.79229622  1  0  0.326828  0  0.893544  0  0  0.312834  0  0.957467  0  0  0.318869  0  0.952598  0  0  0.304161  0.30842  0  0.961113  0
C  C40  1  0.16031233  0.66327785  0.57220490  1  0  0.572336  0  3.851741  0  0  0.5204  0  4.131229  0  0  0.543054  0  4.142059  0  0  0.331339  0.504776  0  4.122948  0
C  C41  1  0.83968756  0.33672051  0.07220525  1  0  0.572351  0  3.851745  0  0  0.520497  0  4.131161  0  0  0.543158  0  4.141987  0  0  0.331454  0.504871  0  4.122881  0
C  C42  1  0.83968823  0.33672147  0.42779470  1  0  0.572373  0  3.851653  0  0  0.520445  0  4.131162  0  0  0.543107  0  4.141989  0  0  0.331434  0.504819  0  4.122879  0
C  C43  1  0.16031204  0.66327882  0.92779486  1  0  0.572361  0  3.85175  0  0  0.520495  0  4.131179  0  0  0.543155  0  4.142008  0  0  0.331431  0.504869  0  4.122899  0
C  C44  1  0.25229830  0.20827582  0.57497726  1  0  0.572486  0  3.872527  0  0  0.51818  0  4.156955  0  0  0.54148  0  4.16745  0  0  0.33185  0.502275  0  4.149086  0
C  C45  1  0.74770215  0.79172365  0.07497743  1  0  0.572438  0  3.872604  0  0  0.518121  0  4.157037  0  0  0.541421  0  4.167534  0  0  0.331832  0.502216  0  4.14917  0
C  C46  1  0.74770185  0.79172462  0.42502284  1  0  0.572425  0  3.872658  0  0  0.518108  0  4.157075  0  0  0.541408  0  4.167573  0  0  0.331797  0.502204  0  4.149205  0
C  C47  1  0.25229745  0.20827567  0.92502267  1  0  0.572486  0  3.872608  0  0  0.518145  0  4.157063  0  0  0.541452  0  4.167548  0  0  0.331843  0.50224  0  4.149195  0
C  C48  1  0.70590773  0.75433798  0.58085711  1  0  0.581582  0  3.847175  0  0  0.531209  0  4.120518  0  0  0.554342  0  4.131574  0  0  0.334117  0.515284  0  4.112294  0
C  C49  1  0.29409176  0.24566148  0.08085683  1  0  0.581576  0  3.84716  0  0  0.531225  0  4.120487  0  0  0.554351  0  4.131548  0  0  0.334114  0.515313  0  4.112246  0
C  C50  1  0.29409187  0.24566134  0.41914299  1  0  0.581591  0  3.847161  0  0  0.53122  0  4.120511  0  0  0.554347  0  4.131575  0  0  0.334103  0.515312  0  4.112265  0
C  C51  1  0.70590590  0.75433784  0.91914377  1  0  0.58167  0  3.84694  0  0  0.531297  0  4.120289  0  0  0.554422  0  4.131353  0  0  0.334159  0.515381  0  4.112054  0
C  C52  1  0.36322087  0.50185721  0.74999969  1  0  0.572688  0  3.855139  0  0  0.527973  0  4.122127  0  0  0.550112  0  4.133123  0  0  0.325552  0.512916  0  4.114394  0
C  C53  1  0.63677928  0.49814323  0.24999992  1  0  0.572716  0  3.855187  0  0  0.527988  0  4.122181  0  0  0.550126  0  4.133181  0  0  0.325585  0.512931  0  4.114451  0
C  C54  1  0.05099583  0.82358589  0.75000009  1  0  0.582582  0  3.835962  0  0  0.531605  0  4.114574  0  0  0.553998  0  4.125097  0  0  0.33188  0.516313  0  4.107135  0
C  C55  1  0.94900724  0.17641454  0.25000051  1  0  0.582522  0  3.836055  0  0  0.531588  0  4.114609  0  0  0.55398  0  4.125129  0  0  0.331871  0.516294  0  4.10717  0
N  N56  1  0.29485718  0.67442757  0.56071623  1  0  -0.414172  0  3.166614  0  0  -0.342202  0  3.481772  0  0  -0.362537  0  3.488334  0  0  -0.271424  -0.327744  0  3.476364  0
N  N57  1  0.70514229  0.32557191  0.06071653  1  0  -0.414137  0  3.166554  0  0  -0.342281  0  3.481803  0  0  -0.36263  0  3.488381  0  0  -0.271465  -0.327818  0  3.476393  0
N  N58  1  0.70514298  0.32557286  0.43928387  1  0  -0.41414  0  3.16654  0  0  -0.34224  0  3.481778  0  0  -0.362589  0  3.488355  0  0  -0.271462  -0.327774  0  3.47636  0
N  N59  1  0.29485689  0.67442853  0.93928407  1  0  -0.414163  0  3.166627  0  0  -0.342276  0  3.481847  0  0  -0.362627  0  3.488429  0  0  -0.271442  -0.327812  0  3.476434  0
N  N60  1  0.39164145  0.82029063  0.54613089  1  0  -0.065168  0  3.013268  0  0  -0.054025  0  3.302859  0  0  -0.051877  0  3.312073  0  0  -0.082072  -0.055104  0  3.296308  0
N  N61  1  0.60835953  0.17970998  0.04613121  1  0  -0.065208  0  3.013299  0  0  -0.054032  0  3.302905  0  0  -0.051881  0  3.312123  0  0  -0.08207  -0.055118  0  3.296358  0
N  N62  1  0.60835967  0.17970980  0.45386921  1  0  -0.065164  0  3.013251  0  0  -0.054  0  3.302853  0  0  -0.051849  0  3.312071  0  0  -0.082049  -0.055084  0  3.296301  0
N  N63  1  0.39164007  0.82028935  0.95386889  1  0  -0.065153  0  3.013289  0  0  -0.05399  0  3.302891  0  0  -0.051839  0  3.312108  0  0  -0.082064  -0.055076  0  3.296342  0
N  N64  1  0.32037534  0.89382946  0.54752199  1  0  -0.06268  0  3.010654  0  0  -0.050013  0  3.298213  0  0  -0.047906  0  3.30758  0  0  -0.082168  -0.051208  0  3.291683  0
N  N65  1  0.67962468  0.10617114  0.04752236  1  0  -0.062664  0  3.010702  0  0  -0.049987  0  3.298257  0  0  -0.047878  0  3.307623  0  0  -0.082169  -0.051184  0  3.291731  0
N  N66  1  0.67962579  0.10617097  0.45247811  1  0  -0.062693  0  3.010739  0  0  -0.050023  0  3.298294  0  0  -0.047915  0  3.307661  0  0  -0.082185  -0.051221  0  3.291766  0
N  N67  1  0.32037395  0.89382818  0.95247775  1  0  -0.062716  0  3.010664  0  0  -0.050042  0  3.298226  0  0  -0.047933  0  3.30759  0  0  -0.082183  -0.051239  0  3.291699  0
N  N68  1  0.17421891  0.79907745  0.56335643  1  0  -0.419049  0  3.178471  0  0  -0.346299  0  3.494137  0  0  -0.366955  0  3.500962  0  0  -0.271899  -0.331618  0  3.488452  0
N  N69  1  0.82578097  0.20092091  0.06335681  1  0  -0.41902  0  3.178493  0  0  -0.346301  0  3.494145  0  0  -0.366955  0  3.500967  0  0  -0.271917  -0.33162  0  3.488457  0
N  N70  1  0.82578013  0.20092075  0.43664318  1  0  -0.419038  0  3.178492  0  0  -0.346286  0  3.494153  0  0  -0.366935  0  3.500965  0  0  -0.271921  -0.331606  0  3.488469  0
N  N71  1  0.17421807  0.79907730  0.93664329  1  0  -0.419004  0  3.178402  0  0  -0.346283  0  3.494056  0  0  -0.366932  0  3.500863  0  0  -0.271913  -0.331602  0  3.488364  0
N  N72  1  0.03519202  0.53996793  0.59284698  1  0  -0.702612  0  3.096815  0  0  -0.660357  0  3.340909  0  0  -0.680221  0  3.334056  0  0  -0.583129  -0.645855  0  3.344788  0
N  N73  1  0.96480692  0.46003040  0.09284732  1  0  -0.702642  0  3.096774  0  0  -0.660415  0  3.340859  0  0  -0.680276  0  3.334002  0  0  -0.583251  -0.645916  0  3.344742  0
N  N74  1  0.96480661  0.46003139  0.40715212  1  0  -0.702655  0  3.096766  0  0  -0.660398  0  3.340867  0  0  -0.680259  0  3.33401  0  0  -0.583194  -0.645898  0  3.344748  0
N  N75  1  0.03519268  0.53996892  0.90715278  1  0  -0.70266  0  3.09678  0  0  -0.660433  0  3.340869  0  0  -0.680293  0  3.334009  0  0  -0.583209  -0.645935  0  3.344751  0
N  N76  1  0.23623614  0.33048032  0.57891144  1  0  -0.423737  0  3.167076  0  0  -0.349765  0  3.484137  0  0  -0.370552  0  3.491354  0  0  -0.272743  -0.335365  0  3.479181  0
N  N77  1  0.76376486  0.66952026  0.07891165  1  0  -0.423813  0  3.167167  0  0  -0.349797  0  3.484181  0  0  -0.370584  0  3.491401  0  0  -0.27277  -0.335398  0  3.47923  0
N  N78  1  0.76376554  0.66952123  0.42108817  1  0  -0.423785  0  3.1672  0  0  -0.349776  0  3.484211  0  0  -0.370562  0  3.491431  0  0  -0.272736  -0.335375  0  3.479254  0
N  N79  1  0.23623473  0.33047906  0.92108845  1  0  -0.423744  0  3.167146  0  0  -0.34972  0  3.484163  0  0  -0.370508  0  3.491384  0  0  -0.272715  -0.335321  0  3.47921  0
N  N80  1  0.08626920  0.28105905  0.57625275  1  0  -0.068606  0  3.041953  0  0  -0.058781  0  3.335778  0  0  -0.05641  0  3.344361  0  0  -0.086726  -0.06031  0  3.330108  0
N  N81  1  0.91373180  0.71894153  0.07625300  1  0  -0.068604  0  3.041952  0  0  -0.058794  0  3.335771  0  0  -0.056424  0  3.344357  0  0  -0.086723  -0.060322  0  3.330102  0
N  N82  1  0.91373192  0.71894138  0.42374735  1  0  -0.06855  0  3.041948  0  0  -0.058737  0  3.335769  0  0  -0.056367  0  3.344353  0  0  -0.086706  -0.060265  0  3.330099  0
N  N83  1  0.08626835  0.28105891  0.92374711  1  0  -0.068619  0  3.04196  0  0  -0.058807  0  3.335777  0  0  -0.056437  0  3.344363  0  0  -0.086735  -0.060335  0  3.330107  0
N  N84  1  0.01467559  0.13806537  0.57047653  1  0  -0.072013  0  3.059507  0  0  -0.060405  0  3.358075  0  0  -0.057507  0  3.36576  0  0  -0.083604  -0.062254  0  3.353202  0
N  N85  1  0.98532444  0.86193522  0.07047625  1  0  -0.071961  0  3.059434  0  0  -0.060347  0  3.357999  0  0  -0.057448  0  3.365685  0  0  -0.083584  -0.062196  0  3.353126  0
N  N86  1  0.98532512  0.86193618  0.42952308  1  0  -0.072061  0  3.059499  0  0  -0.060477  0  3.358085  0  0  -0.057577  0  3.365769  0  0  -0.083627  -0.062325  0  3.353212  0
N  N87  1  0.01467474  0.13806522  0.92952335  1  0  -0.072032  0  3.059485  0  0  -0.060435  0  3.358062  0  0  -0.057536  0  3.365748  0  0  -0.083632  -0.062283  0  3.35319  0
N  N88  1  0.11414237  0.08730922  0.56891254  1  0  -0.418407  0  3.170557  0  0  -0.346892  0  3.491062  0  0  -0.367527  0  3.497427  0  0  -0.272225  -0.332741  0  3.486784  0
N  N89  1  0.88585613  0.91269026  0.06891321  1  0  -0.418399  0  3.17058  0  0  -0.346889  0  3.491094  0  0  -0.367523  0  3.49746  0  0  -0.272222  -0.332738  0  3.486817  0
N  N90  1  0.88585875  0.91269122  0.43108657  1  0  -0.418354  0  3.170614  0  0  -0.346817  0  3.4911  0  0  -0.36745  0  3.497467  0  0  -0.272212  -0.332667  0  3.48682  0
N  N91  1  0.11414152  0.08730906  0.93108739  1  0  -0.418401  0  3.170644  0  0  -0.346868  0  3.491149  0  0  -0.367505  0  3.497512  0  0  -0.272213  -0.332718  0  3.486871  0
N  N92  1  0.38142965  0.20657079  0.57830560  1  0  -0.692948  0  3.119546  0  0  -0.652144  0  3.364776  0  0  -0.672904  0  3.35942  0  0  -0.579102  -0.637079  0  3.367417  0
N  N93  1  0.61857135  0.79342979  0.07830624  1  0  -0.692853  0  3.119603  0  0  -0.652066  0  3.364798  0  0  -0.672828  0  3.359445  0  0  -0.579081  -0.637001  0  3.36744  0
N  N94  1  0.61857258  0.79343188  0.42169350  1  0  -0.69288  0  3.119587  0  0  -0.652094  0  3.364772  0  0  -0.672858  0  3.359419  0  0  -0.579096  -0.63703  0  3.367416  0
N  N95  1  0.38142769  0.20656842  0.92169337  1  0  -0.692942  0  3.119513  0  0  -0.652148  0  3.364717  0  0  -0.672912  0  3.359359  0  0  -0.579114  -0.637083  0  3.36736  0
N  N96  1  0.82916755  0.73854718  0.58205144  1  0  -0.414226  0  3.155365  0  0  -0.339427  0  3.465719  0  0  -0.360401  0  3.473623  0  0  -0.268468  -0.324873  0  3.460187  0
N  N97  1  0.17083097  0.26145228  0.08205211  1  0  -0.41422  0  3.155322  0  0  -0.339455  0  3.465723  0  0  -0.360424  0  3.473627  0  0  -0.268478  -0.324902  0  3.460183  0
N  N98  1  0.17083205  0.26145214  0.41794816  1  0  -0.414273  0  3.155391  0  0  -0.339465  0  3.465737  0  0  -0.360432  0  3.473636  0  0  -0.268457  -0.324911  0  3.460195  0
N  N99  1  0.82916627  0.73854815  0.91794849  1  0  -0.41437  0  3.155326  0  0  -0.33957  0  3.465702  0  0  -0.360537  0  3.473603  0  0  -0.268509  -0.325006  0  3.460154  0
N  N100  1  0.77969935  0.58956606  0.57885816  1  0  -0.067058  0  3.057426  0  0  -0.055168  0  3.348835  0  0  -0.053042  0  3.358079  0  0  -0.085164  -0.056467  0  3.342609  0
N  N101  1  0.22030013  0.41043340  0.07885880  1  0  -0.067076  0  3.057449  0  0  -0.055176  0  3.348855  0  0  -0.053051  0  3.358099  0  0  -0.085189  -0.056473  0  3.342627  0
N  N102  1  0.22030024  0.41043326  0.42114144  1  0  -0.067034  0  3.057417  0  0  -0.055146  0  3.348815  0  0  -0.053022  0  3.358061  0  0  -0.085173  -0.056443  0  3.34259  0
N  N103  1  0.77969905  0.58956704  0.92114130  1  0  -0.067078  0  3.057445  0  0  -0.055187  0  3.348844  0  0  -0.053065  0  3.35809  0  0  -0.085207  -0.056487  0  3.342615  0
N  N104  1  0.63565176  0.51756014  0.57571169  1  0  -0.07343  0  3.054026  0  0  -0.06073  0  3.346362  0  0  -0.058082  0  3.354648  0  0  -0.085458  -0.062451  0  3.341069  0
N  N105  1  0.36434674  0.48243933  0.07571185  1  0  -0.073423  0  3.054028  0  0  -0.060715  0  3.346361  0  0  -0.058067  0  3.354649  0  0  -0.085428  -0.062439  0  3.341072  0
N  N106  1  0.36434839  0.48244029  0.42428841  1  0  -0.07346  0  3.054044  0  0  -0.060762  0  3.346386  0  0  -0.058114  0  3.354675  0  0  -0.085467  -0.062482  0  3.341097  0
N  N107  1  0.63565035  0.51755888  0.92428775  1  0  -0.073426  0  3.054072  0  0  -0.060735  0  3.346408  0  0  -0.058085  0  3.354695  0  0  -0.085471  -0.062455  0  3.341118  0
N  N108  1  0.58412071  0.61618287  0.57672511  1  0  -0.417121  0  3.16275  0  0  -0.341981  0  3.47566  0  0  -0.362645  0  3.482156  0  0  -0.269908  -0.32776  0  3.471227  0
N  N109  1  0.41587974  0.38381660  0.07672482  1  0  -0.417102  0  3.162672  0  0  -0.341991  0  3.475606  0  0  -0.362653  0  3.482105  0  0  -0.269901  -0.327775  0  3.471175  0
N  N110  1  0.41587944  0.38381757  0.42327499  1  0  -0.417082  0  3.162699  0  0  -0.341956  0  3.475614  0  0  -0.362618  0  3.482115  0  0  -0.269884  -0.327741  0  3.471178  0
N  N111  1  0.58411875  0.61618049  0.92327578  1  0  -0.417055  0  3.162624  0  0  -0.341904  0  3.475522  0  0  -0.362563  0  3.482019  0  0  -0.26983  -0.327689  0  3.471091  0
N  N112  1  0.70377593  0.88260677  0.58386703  1  0  -0.685087  0  3.104732  0  0  -0.644541  0  3.343451  0  0  -0.665298  0  3.338598  0  0  -0.576598  -0.629434  0  3.345929  0
N  N113  1  0.29622508  0.11739380  0.08386729  1  0  -0.685044  0  3.104789  0  0  -0.644496  0  3.343463  0  0  -0.66525  0  3.338616  0  0  -0.576609  -0.629393  0  3.345935  0
N  N114  1  0.29622574  0.11739478  0.41613207  1  0  -0.685063  0  3.104793  0  0  -0.644481  0  3.343393  0  0  -0.665236  0  3.338546  0  0  -0.576597  -0.629379  0  3.345862  0
N  N115  1  0.70377161  0.88260552  0.91613331  1  0  -0.685081  0  3.104736  0  0  -0.644539  0  3.343385  0  0  -0.665292  0  3.338536  0  0  -0.576642  -0.629435  0  3.345858  0
N  N116  1  0.35623913  0.57430968  0.69552380  1  0  -0.434294  0  3.179419  0  0  -0.354306  0  3.479943  0  0  -0.376174  0  3.489421  0  0  -0.276528  -0.339542  0  3.473246  0
N  N117  1  0.64376043  0.42568969  0.19552455  1  0  -0.434325  0  3.17953  0  0  -0.354285  0  3.479995  0  0  -0.376152  0  3.489472  0  0  -0.276541  -0.339524  0  3.473301  0
N  N118  1  0.64376103  0.42569075  0.30447631  1  0  -0.434202  0  3.179354  0  0  -0.354215  0  3.479876  0  0  -0.376087  0  3.489356  0  0  -0.276472  -0.339453  0  3.47318  0
N  N119  1  0.35623875  0.57431075  0.80447605  1  0  -0.434276  0  3.179428  0  0  -0.354301  0  3.479966  0  0  -0.376174  0  3.489447  0  0  -0.276526  -0.339538  0  3.47327  0
N  N120  1  0.34375305  0.69309528  0.71785094  1  0  -0.073674  0  2.972068  0  0  -0.077869  0  3.272965  0  0  -0.074573  0  3.282311  0  0  -0.11019  -0.080078  0  3.26679  0
N  N121  1  0.65624667  0.30690629  0.21785124  1  0  -0.073648  0  2.972159  0  0  -0.077854  0  3.273039  0  0  -0.07456  0  3.282386  0  0  -0.110162  -0.080064  0  3.266861  0
N  N122  1  0.65624669  0.30690627  0.28214966  1  0  -0.073643  0  2.97205  0  0  -0.077835  0  3.272954  0  0  -0.074537  0  3.282301  0  0  -0.110178  -0.080045  0  3.266777  0
N  N123  1  0.34375307  0.69309526  0.78214886  1  0  -0.073548  0  2.972105  0  0  -0.077725  0  3.272994  0  0  -0.074424  0  3.282338  0  0  -0.110092  -0.079936  0  3.266818  0
N  N124  1  0.38117730  0.37987918  0.74999971  1  0  -0.684604  0  3.029329  0  0  -0.65705  0  3.256953  0  0  -0.673819  0  3.251948  0  0  -0.5873  -0.64531  0  3.260372  0
N  N125  1  0.61882341  0.62012236  0.25000039  1  0  -0.684639  0  3.029264  0  0  -0.657193  0  3.256786  0  0  -0.673963  0  3.251776  0  0  -0.587336  -0.645452  0  3.260206  0
N  N126  1  0.08304205  0.91035824  0.69542505  1  0  -0.42574  0  3.156558  0  0  -0.346079  0  3.455233  0  0  -0.367498  0  3.464495  0  0  -0.268043  -0.331558  0  3.448559  0
N  N127  1  0.91696196  0.08964224  0.19542599  1  0  -0.425804  0  3.156746  0  0  -0.346121  0  3.455363  0  0  -0.367541  0  3.46463  0  0  -0.268061  -0.331601  0  3.448688  0
N  N128  1  0.91696199  0.08964219  0.30457505  1  0  -0.425688  0  3.156564  0  0  -0.346076  0  3.455267  0  0  -0.367496  0  3.464533  0  0  -0.268031  -0.331557  0  3.448596  0
N  N129  1  0.08304208  0.91035820  0.80457511  1  0  -0.425772  0  3.156598  0  0  -0.346115  0  3.455278  0  0  -0.367539  0  3.464547  0  0  -0.268065  -0.331595  0  3.448603  0
N  N130  1  0.13756340  0.05289160  0.71786347  1  0  -0.07919  0  3.012679  0  0  -0.075801  0  3.308046  0  0  -0.073802  0  3.319567  0  0  -0.104038  -0.077018  0  3.300323  0
N  N131  1  0.86243770  0.94710886  0.21786363  1  0  -0.079295  0  3.012859  0  0  -0.075911  0  3.30822  0  0  -0.073915  0  3.319744  0  0  -0.104098  -0.07713  0  3.300498  0
N  N132  1  0.86243564  0.94710661  0.28213663  1  0  -0.079121  0  3.012657  0  0  -0.07571  0  3.30803  0  0  -0.073712  0  3.319553  0  0  -0.103979  -0.07693  0  3.300308  0
N  N133  1  0.13756343  0.05289157  0.78213647  1  0  -0.079242  0  3.012709  0  0  -0.075845  0  3.308072  0  0  -0.073843  0  3.319594  0  0  -0.104037  -0.077062  0  3.300349  0
N  N134  1  0.99091476  0.67295140  0.75000025  1  0  -0.682556  0  3.030696  0  0  -0.654196  0  3.254772  0  0  -0.671866  0  3.250559  0  0  -0.581616  -0.64165  0  3.257818  0
N  N135  1  0.00908734  0.32704904  0.24999985  1  0  -0.682574  0  3.030597  0  0  -0.654224  0  3.254654  0  0  -0.671893  0  3.250439  0  0  -0.581652  -0.641679  0  3.2577  0
