# generated using pymatgen
data_ZnH14C24S2(NO2)4
_symmetry_space_group_name_H-M   'P 1'
_cell_length_a   9.98160006
_cell_length_b   10.48316158
_cell_length_c   14.76500000
_cell_angle_alpha   89.73055504
_cell_angle_beta   89.43411060
_cell_angle_gamma   61.57051118
_symmetry_Int_Tables_number   1
_chemical_formula_structural   ZnH14C24S2(NO2)4
_chemical_formula_sum   'Zn2 H28 C48 S4 N8 O16'
_cell_volume   1358.60429609
_cell_formula_units_Z   2
loop_
 _symmetry_equiv_pos_site_id
 _symmetry_equiv_pos_as_xyz
  1  'x, y, z'
loop_
 _atom_site_type_symbol
 _atom_site_label
 _atom_site_symmetry_multiplicity
 _atom_site_fract_x
 _atom_site_fract_y
 _atom_site_fract_z
 _atom_site_occupancy
 _atom_site_hle17_bader_spin_density
 _atom_site_hle17_ddec_charge
 _atom_site_hle17_ddec_spin_density
 _atom_site_hle17_ddec_sum_bond_order
 _atom_site_hle17_magmom
 _atom_site_hse06_10hf_bader_spin_density
 _atom_site_hse06_10hf_ddec_charge
 _atom_site_hse06_10hf_ddec_spin_density
 _atom_site_hse06_10hf_ddec_sum_bond_order
 _atom_site_hse06_10hf_magmom
 _atom_site_hse06_bader_spin_density
 _atom_site_hse06_ddec_charge
 _atom_site_hse06_ddec_spin_density
 _atom_site_hse06_ddec_sum_bond_order
 _atom_site_hse06_magmom
 _atom_site_pbe_bader_charge
 _atom_site_pbe_bader_spin_density
 _atom_site_pbe_cm5_charge
 _atom_site_pbe_ddec_charge
 _atom_site_pbe_ddec_spin_density
 _atom_site_pbe_ddec_sum_bond_order
 _atom_site_pbe_magmom
Zn  Zn0  1  0.06319865  0.87359698  0.75000218  1  0  1.025994  0  1.782178  0  0  0.827849  0  2.258394  0  0  0.875427  0  2.203715  0  1.25995  0  0.700293  0.795047  0  2.295232  0
Zn  Zn1  1  0.93679239  0.12640078  0.25000384  1  0  1.025965  0  1.782245  0  0  0.827808  0  2.258484  0  0  0.875388  0  2.203808  0  1.259874  0  0.700311  0.795011  0  2.295323  0
H  H2  1  0.58109888  0.15102077  0.72294740  1  0  0.117638  0  0.985492  0  0  0.120956  0  1.056617  0  0  0.12514  0  1.053966  0  0.142325  0  0.101244  0.118044  0  1.058668  0
H  H3  1  0.26787543  0.15103053  0.77705224  1  0  0.117632  0  0.985463  0  0  0.120925  0  1.056587  0  0  0.125108  0  1.05394  0  0.141551  0  0.101228  0.118013  0  1.058637  0
H  H4  1  0.41888691  0.84898349  0.27704916  1  0  0.11761  0  0.985465  0  0  0.120948  0  1.056554  0  0  0.125129  0  1.053906  0  0.142209  0  0.101249  0.118035  0  1.058607  0
H  H5  1  0.73210218  0.84897807  0.22293961  1  0  0.117738  0  0.985489  0  0  0.120995  0  1.056639  0  0  0.125177  0  1.053992  0  0.141545  0  0.101258  0.118085  0  1.058689  0
H  H6  1  0.40118930  0.66211258  0.75415971  1  0  0.099567  0  0.960893  0  0  0.107056  0  1.023476  0  0  0.110839  0  1.019472  0  0.155762  0  0.117625  0.104584  0  1.025787  0
H  H7  1  0.93669106  0.66211584  0.74585212  1  0  0.099742  0  0.960836  0  0  0.107126  0  1.023479  0  0  0.110909  0  1.019475  0  0.155769  0  0.117652  0.104656  0  1.025782  0
H  H8  1  0.59880446  0.33787975  0.24584835  1  0  0.099673  0  0.960871  0  0  0.107126  0  1.023471  0  0  0.110911  0  1.019463  0  0.155131  0  0.117654  0.104652  0  1.025781  0
H  H9  1  0.06330453  0.33788083  0.25416269  1  0  0.099605  0  0.960921  0  0  0.107067  0  1.023535  0  0  0.110851  0  1.019528  0  0.15545  0  0.117619  0.104597  0  1.025843  0
H  H10  1  0.25089441  0.64981940  0.44028111  1  0  0.118033  0  0.933492  0  0  0.132311  0  0.982999  0  0  0.135607  0  0.981881  0  0.096132  0  0.117522  0.129796  0  0.984341  0
H  H11  1  0.09930782  0.64981397  0.05972332  1  0  0.118017  0  0.93333  0  0  0.132293  0  0.982821  0  0  0.135592  0  0.981702  0  0.081498  0  0.117505  0.129779  0  0.984163  0
H  H12  1  0.74911200  0.35019571  0.55972204  1  0  0.117992  0  0.933397  0  0  0.132273  0  0.982894  0  0  0.135568  0  0.981775  0  0.096125  0  0.117488  0.12976  0  0.984235  0
H  H13  1  0.90070706  0.35017619  0.94028393  1  0  0.118124  0  0.933432  0  0  0.132381  0  0.982936  0  0  0.135686  0  0.981819  0  0.081143  0  0.117562  0.129868  0  0.984279  0
H  H14  1  0.26034604  0.32961849  0.50243647  1  0  0.118348  0  0.918927  0  0  0.130975  0  0.971789  0  0  0.135033  0  0.969636  0  0.107522  0  0.109804  0.127916  0  0.973708  0
H  H15  1  0.41002186  0.32962825  0.99756034  1  0  0.11836  0  0.919076  0  0  0.130952  0  0.971965  0  0  0.135008  0  0.969814  0  0.101462  0  0.109788  0.127893  0  0.973883  0
H  H16  1  0.73964926  0.67037276  0.49755262  1  0  0.118311  0  0.919111  0  0  0.130929  0  0.971951  0  0  0.134997  0  0.969803  0  0.107738  0  0.10978  0.127869  0  0.97387  0
H  H17  1  0.58998421  0.67036950  0.00242188  1  0  0.118405  0  0.919073  0  0  0.13099  0  0.97196  0  0  0.135047  0  0.969808  0  0.101175  0  0.109847  0.127934  0  0.973873  0
H  H18  1  0.46132353  0.16592922  0.39575829  1  0  0.12475  0  0.933726  0  0  0.133358  0  0.991803  0  0  0.137406  0  0.988549  0  0.117731  0  0.117015  0.130501  0  0.994022  0
H  H19  1  0.37274298  0.16593573  0.10423931  1  0  0.124712  0  0.933773  0  0  0.133341  0  0.991834  0  0  0.137389  0  0.988577  0  0.11856  0  0.117014  0.130484  0  0.994048  0
H  H20  1  0.53868041  0.83405877  0.60423684  1  0  0.1247  0  0.93377  0  0  0.133324  0  0.991837  0  0  0.137373  0  0.988578  0  0.11785  0  0.116998  0.130464  0  0.994056  0
H  H21  1  0.62727002  0.83406419  0.89574895  1  0  0.124708  0  0.9338  0  0  0.133365  0  0.991814  0  0  0.13741  0  0.988565  0  0.118387  0  0.117041  0.13051  0  0.994032  0
H  H22  1  0.07158010  0.80847663  0.55515112  1  0  0.100081  0  0.973774  0  0  0.106255  0  1.038411  0  0  0.108601  0  1.036257  0  0.182094  0  0.122838  0.104356  0  1.040267  0
H  H23  1  0.11995935  0.80846686  0.94485116  1  0  0.100158  0  0.973876  0  0  0.106312  0  1.038528  0  0  0.108659  0  1.036374  0  0.170715  0  0.122847  0.104413  0  1.040386  0
H  H24  1  0.92842577  0.19153957  0.44484865  1  0  0.10014  0  0.973837  0  0  0.106323  0  1.03845  0  0  0.10867  0  1.036296  0  0.181915  0  0.12283  0.104424  0  1.040306  0
H  H25  1  0.88004635  0.19152764  0.05515613  1  0  0.100076  0  0.973854  0  0  0.106255  0  1.038465  0  0  0.108605  0  1.036302  0  0.170625  0  0.122809  0.104354  0  1.040325  0
H  H26  1  0.59635856  0.48595224  0.64854942  1  0  0.11221  0  0.937273  0  0  0.128007  0  0.98452  0  0  0.130875  0  0.984188  0  0.107789  0  0.11563  0.125833  0  0.985173  0
H  H27  1  0.91767910  0.48596092  0.85146733  1  0  0.11221  0  0.937232  0  0  0.128024  0  0.984444  0  0  0.130895  0  0.984108  0  0.077167  0  0.115587  0.125848  0  0.985103  0
H  H28  1  0.40363836  0.51403575  0.35146269  1  0  0.112257  0  0.93729  0  0  0.128046  0  0.984514  0  0  0.130917  0  0.984178  0  0.108039  0  0.115607  0.12587  0  0.98517  0
H  H29  1  0.08232058  0.51403359  0.14854678  1  0  0.112212  0  0.937198  0  0  0.127971  0  0.984491  0  0  0.130839  0  0.984159  0  0.077609  0  0.115593  0.125796  0  0.985147  0
C  C30  1  0.55424297  0.15602460  0.65118315  1  0  -0.13157  0  3.686891  0  0  -0.157811  0  3.933237  0  0  -0.163213  0  3.953151  0  0.021198  0  -0.089604  -0.154831  0  3.920534  0
C  C31  1  0.28974596  0.15602352  0.84881505  1  0  -0.131455  0  3.687158  0  0  -0.157578  0  3.933387  0  0  -0.162972  0  3.95331  0  0.002211  0  -0.089514  -0.154601  0  3.920683  0
C  C32  1  0.44575238  0.84397858  0.34881470  1  0  -0.131324  0  3.687064  0  0  -0.157585  0  3.933421  0  0  -0.162984  0  3.953333  0  0.021095  0  -0.089486  -0.154603  0  3.920718  0
C  C33  1  0.71024475  0.84398291  0.15117605  1  0  -0.13154  0  3.687141  0  0  -0.15766  0  3.933376  0  0  -0.163054  0  3.953295  0  0.002495  0  -0.089493  -0.154682  0  3.920676  0
C  C34  1  0.63152581  0.06953735  0.49914556  1  0  0.024925  0  3.697373  0  0  0.011417  0  3.952123  0  0  0.006456  0  3.976379  0  0.199999  0  0.071018  0.013901  0  3.936775  0
C  C35  1  0.29895139  0.06953193  0.00085003  1  0  0.024934  0  3.697475  0  0  0.01158  0  3.952055  0  0  0.006618  0  3.976314  0  0.199233  0  0.071094  0.014061  0  3.936706  0
C  C36  1  0.36847718  0.93046258  0.50085158  1  0  0.024909  0  3.697416  0  0  0.011378  0  3.952186  0  0  0.006416  0  3.976441  0  0.199997  0  0.071025  0.013864  0  3.93684  0
C  C37  1  0.70105306  0.93046908  0.99914168  1  0  0.024954  0  3.697376  0  0  0.011588  0  3.951924  0  0  0.006622  0  3.976183  0  0.198801  0  0.071168  0.014077  0  3.936578  0
C  C38  1  0.66676339  0.06044410  0.59172832  1  0  -0.025595  0  3.664641  0  0  -0.010213  0  3.90122  0  0  -0.010452  0  3.918858  0  0.009144  0  0.010496  -0.010158  0  3.89016  0
C  C39  1  0.27281012  0.06043651  0.90826658  1  0  -0.025806  0  3.664727  0  0  -0.010537  0  3.901317  0  0  -0.010781  0  3.918961  0  0.013002  0  0.010393  -0.010478  0  3.890254  0
C  C40  1  0.33323497  0.93955907  0.40826884  1  0  -0.025779  0  3.664622  0  0  -0.010348  0  3.901179  0  0  -0.010585  0  3.918815  0  0.009074  0  0.010404  -0.010304  0  3.890141  0
C  C41  1  0.72718606  0.93957101  0.09172515  1  0  -0.025831  0  3.664544  0  0  -0.010483  0  3.901009  0  0  -0.010724  0  3.918648  0  0.013073  0  0.010361  -0.01044  0  3.889973  0
C  C42  1  0.44327328  0.54970909  0.53316496  1  0  0.09447  0  3.750459  0  0  0.103934  0  3.986986  0  0  0.108027  0  4.009396  0  -0.042825  0  0.015263  0.101502  0  3.971837  0
C  C43  1  0.00702860  0.54970258  0.96684709  1  0  0.094197  0  3.751077  0  0  0.10375  0  3.987494  0  0  0.107834  0  4.009929  0  -0.049968  0  0.014955  0.101316  0  3.972337  0
C  C44  1  0.55672900  0.45029626  0.46684164  1  0  0.09424  0  3.75088  0  0  0.103709  0  3.987387  0  0  0.107806  0  4.009791  0  -0.069567  0  0.015002  0.10127  0  3.972247  0
C  C45  1  0.99298490  0.45028433  0.03316627  1  0  0.094405  0  3.750632  0  0  0.103837  0  3.987126  0  0  0.107936  0  4.009517  0  -0.015324  0  0.015234  0.101403  0  3.971971  0
C  C46  1  0.40976935  0.25387109  0.61964566  1  0  0.077333  0  3.766007  0  0  0.085929  0  4.040936  0  0  0.090974  0  4.062743  0  -0.15731  0  -0.002305  0.082714  0  4.02593  0
C  C47  1  0.33638070  0.25385916  0.88034972  1  0  0.077311  0  3.766231  0  0  0.085881  0  4.041119  0  0  0.090904  0  4.062961  0  -0.148635  0  -0.002405  0.082667  0  4.026113  0
C  C48  1  0.59022712  0.74614185  0.38034403  1  0  0.077014  0  3.766253  0  0  0.085577  0  4.041209  0  0  0.090622  0  4.063013  0  -0.15711  0  -0.002494  0.082363  0  4.026202  0
C  C49  1  0.66362020  0.74614293  0.11963794  1  0  0.0774  0  3.766388  0  0  0.085961  0  4.041269  0  0  0.090987  0  4.063105  0  -0.148187  0  -0.002343  0.082748  0  4.026263  0
C  C50  1  0.37405264  0.65158750  0.68408142  1  0  0.123477  0  3.706291  0  0  0.089093  0  3.963839  0  0  0.096572  0  3.980678  0  0.476744  0  0.044489  0.084213  0  3.952712  0
C  C51  1  0.97436251  0.65158533  0.81592902  1  0  0.1231  0  3.706264  0  0  0.08889  0  3.963775  0  0  0.096368  0  3.980612  0  0.455043  0  0.044448  0.084011  0  3.95265  0
C  C52  1  0.62594187  0.34841134  0.31592797  1  0  0.123271  0  3.706093  0  0  0.088959  0  3.963608  0  0  0.096434  0  3.980448  0  0.478106  0  0.04444  0.084083  0  3.952479  0
C  C53  1  0.02564443  0.34840266  0.18408371  1  0  0.123346  0  3.706389  0  0  0.088948  0  3.963973  0  0  0.096429  0  3.98081  0  0.455192  0  0.044481  0.084065  0  3.95285  0
C  C54  1  0.29210192  0.64384474  0.50891384  1  0  -0.143054  0  3.67337  0  0  -0.163093  0  3.925779  0  0  -0.171274  0  3.947222  0  -0.024883  0  -0.073453  -0.158155  0  3.911844  0
C  C55  1  0.06406248  0.64383823  0.99109407  1  0  -0.142977  0  3.673421  0  0  -0.163004  0  3.925771  0  0  -0.171184  0  3.947218  0  -0.017608  0  -0.073357  -0.158066  0  3.911836  0
C  C56  1  0.70789781  0.35616170  0.49109075  1  0  -0.14298  0  3.673438  0  0  -0.162999  0  3.925818  0  0  -0.171176  0  3.947258  0  -0.027549  0  -0.073402  -0.158064  0  3.911892  0
C  C57  1  0.93594547  0.35614976  0.00891526  1  0  -0.14315  0  3.673305  0  0  -0.163179  0  3.925668  0  0  -0.17137  0  3.947121  0  -0.013641  0  -0.073506  -0.15824  0  3.911732  0
C  C58  1  0.37415617  0.25688663  0.52740063  1  0  -0.113206  0  3.718446  0  0  -0.138191  0  3.985609  0  0  -0.143264  0  4.004695  0  -0.036663  0  -0.09531  -0.134731  0  3.972678  0
C  C59  1  0.36896783  0.25688771  0.97259341  1  0  -0.113191  0  3.71852  0  0  -0.138186  0  3.985739  0  0  -0.143251  0  4.004826  0  -0.033366  0  -0.095201  -0.134729  0  3.972814  0
C  C60  1  0.62584581  0.74311330  0.47259109  1  0  -0.112967  0  3.718475  0  0  -0.137946  0  3.985639  0  0  -0.143035  0  4.004746  0  -0.036857  0  -0.095188  -0.134487  0  3.972707  0
C  C61  1  0.63104659  0.74310137  0.02739420  1  0  -0.113248  0  3.718569  0  0  -0.138211  0  3.985751  0  0  -0.143277  0  4.004836  0  -0.033894  0  -0.09529  -0.134755  0  3.972826  0
C  C62  1  0.48583009  0.16506904  0.46745260  1  0  -0.075891  0  3.747507  0  0  -0.103494  0  4.013177  0  0  -0.101345  0  4.032031  0  0.045374  0  -0.076973  -0.104177  0  4.000237  0
C  C63  1  0.34910749  0.16506578  0.03254496  1  0  -0.075841  0  3.747457  0  0  -0.103503  0  4.013073  0  0  -0.101353  0  4.031924  0  0.049661  0  -0.077025  -0.104185  0  4.000133  0
C  C64  1  0.51417197  0.83492872  0.53254319  1  0  -0.07585  0  3.747495  0  0  -0.10347  0  4.01315  0  0  -0.101323  0  4.032007  0  0.045565  0  -0.076931  -0.10415  0  4.000204  0
C  C65  1  0.65090714  0.83493089  0.96744533  1  0  -0.075884  0  3.747432  0  0  -0.103578  0  4.01309  0  0  -0.101428  0  4.031937  0  0.050746  0  -0.077081  -0.104266  0  4.000155  0
C  C66  1  0.18910894  0.73566124  0.57317844  1  0  0.137311  0  3.680252  0  0  0.101002  0  3.937775  0  0  0.108736  0  3.955941  0  0.487096  0  0.051033  0.096328  0  3.924995  0
C  C67  1  0.07524058  0.73565582  0.92682868  1  0  0.137174  0  3.680118  0  0  0.10085  0  3.937718  0  0  0.108579  0  3.95589  0  0.498647  0  0.050976  0.096178  0  3.924934  0
C  C68  1  0.81089380  0.26434519  0.42682612  1  0  0.137096  0  3.680331  0  0  0.100768  0  3.937868  0  0  0.108499  0  3.956032  0  0.487244  0  0.050965  0.096094  0  3.925088  0
C  C69  1  0.92477029  0.26433434  0.07318198  1  0  0.137168  0  3.680218  0  0  0.100889  0  3.93766  0  0  0.108619  0  3.955832  0  0.498444  0  0.051019  0.096217  0  3.924879  0
C  C70  1  0.48194671  0.55553731  0.62373456  1  0  -0.15329  0  3.706589  0  0  -0.171965  0  3.957636  0  0  -0.180115  0  3.979306  0  -0.02329  0  -0.078803  -0.166874  0  3.943323  0
C  C71  1  0.96251890  0.55553623  0.87627867  1  0  -0.153135  0  3.706631  0  0  -0.171848  0  3.95756  0  0  -0.18  0  3.979231  0  0.001624  0  -0.078622  -0.166758  0  3.943251  0
C  C72  1  0.51804934  0.44446044  0.37627550  1  0  -0.153328  0  3.706804  0  0  -0.171986  0  3.957774  0  0  -0.180138  0  3.979443  0  -0.024317  0  -0.078727  -0.166894  0  3.943466  0
C  C73  1  0.03749097  0.44445393  0.12373403  1  0  -0.153212  0  3.7065  0  0  -0.171833  0  3.957531  0  0  -0.179984  0  3.979203  0  0.001157  0  -0.078767  -0.166746  0  3.943227  0
C  C74  1  0.81135080  0.94679310  0.63546418  1  0  0.656079  0  3.948592  0  0  0.60059  0  4.257397  0  0  0.635094  0  4.24805  0  1.640208  0  0.204129  0.576926  0  4.262924  0
C  C75  1  0.24186564  0.94678226  0.86453849  1  0  0.656165  0  3.948821  0  0  0.600672  0  4.257618  0  0  0.635179  0  4.24827  0  1.658328  0  0.204091  0.577006  0  4.263146  0
C  C76  1  0.18864129  0.05321658  0.36453909  1  0  0.656276  0  3.948638  0  0  0.60072  0  4.257525  0  0  0.635227  0  4.248175  0  1.639838  0  0.20414  0.57706  0  4.263051  0
C  C77  1  0.75812207  0.05322418  0.13546144  1  0  0.656152  0  3.948828  0  0  0.600665  0  4.257627  0  0  0.635171  0  4.24828  0  1.658304  0  0.204147  0.577002  0  4.263153  0
S  S78  1  0.26113587  0.37829984  0.69027475  1  0  0.0285  0  2.458161  0  0  0.02549  0  2.8145  0  0  0.021054  0  2.817058  0  0.086946  0  0.061787  0.028971  0  2.811884  0
S  S79  1  0.36056287  0.37830743  0.80971991  1  0  0.028507  0  2.458024  0  0  0.025501  0  2.814373  0  0  0.021073  0  2.816938  0  0.083998  0  0.061802  0.028983  0  2.811756  0
S  S80  1  0.73885701  0.62170225  0.30971432  1  0  0.028546  0  2.45811  0  0  0.025554  0  2.81445  0  0  0.02112  0  2.817008  0  0.079608  0  0.06181  0.029037  0  2.811831  0
S  S81  1  0.63942576  0.62170117  0.19026713  1  0  0.028374  0  2.458027  0  0  0.025363  0  2.814347  0  0  0.020936  0  2.816911  0  0.09068  0  0.061682  0.028846  0  2.811731  0
N  N82  1  0.22891852  0.74053165  0.65950932  1  0  -0.337612  0  3.307297  0  0  -0.256451  0  3.599011  0  0  -0.276024  0  3.613267  0  -1.267458  0  -0.328226  -0.243265  0  3.589042  0
N  N83  1  0.03055759  0.74052623  0.84049579  1  0  -0.337397  0  3.307088  0  0  -0.256344  0  3.598868  0  0  -0.275909  0  3.613104  0  -1.257888  0  -0.328202  -0.243157  0  3.588899  0
N  N84  1  0.77108484  0.25947152  0.34049526  1  0  -0.337333  0  3.3071  0  0  -0.25621  0  3.598807  0  0  -0.275787  0  3.61308  0  -1.267328  0  -0.328102  -0.243023  0  3.588836  0
N  N85  1  0.96944564  0.25946719  0.15951220  1  0  -0.337384  0  3.307251  0  0  -0.256225  0  3.598924  0  0  -0.275799  0  3.613186  0  -1.25793  0  -0.328141  -0.243038  0  3.588951  0
N  N86  1  0.74619328  0.97981646  0.43260712  1  0  0.496946  0  3.91963  0  0  0.521905  0  4.227103  0  0  0.543422  0  4.235113  0  0.333433  0  0.049231  0.507576  0  4.221754  0
N  N87  1  0.27399636  0.97981862  0.06738873  1  0  0.497051  0  3.919709  0  0  0.521964  0  4.227172  0  0  0.54348  0  4.235181  0  0.336911  0  0.04918  0.507634  0  4.221825  0
N  N88  1  0.25381125  0.02018238  0.56739069  1  0  0.497189  0  3.919575  0  0  0.522149  0  4.227032  0  0  0.543665  0  4.235043  0  0.333491  0  0.049371  0.507819  0  4.221682  0
N  N89  1  0.72600391  0.02018672  0.93260502  1  0  0.497052  0  3.919715  0  0  0.521963  0  4.227186  0  0  0.543479  0  4.235203  0  0.336889  0  0.049202  0.507635  0  4.221836  0
O  O90  1  0.83339950  0.81940414  0.63942196  1  0  -0.602739  0  1.889355  0  0  -0.561398  0  2.104642  0  0  -0.586444  0  2.096621  0  -1.161251  0  -0.321214  -0.54265  0  2.108548  0
O  O91  1  0.34719956  0.81939546  0.86058291  1  0  -0.602778  0  1.889641  0  0  -0.561469  0  2.104955  0  0  -0.586521  0  2.096944  0  -1.174077  0  -0.321222  -0.542721  0  2.108867  0
O  O92  1  0.16657927  0.18060012  0.36058684  1  0  -0.602775  0  1.889742  0  0  -0.561437  0  2.105099  0  0  -0.586491  0  2.097089  0  -1.160849  0  -0.321152  -0.542692  0  2.109008  0
O  O93  1  0.65278614  0.18061097  0.13941974  1  0  -0.602838  0  1.889673  0  0  -0.561515  0  2.104963  0  0  -0.586554  0  2.096929  0  -1.174105  0  -0.321335  -0.542765  0  2.108869  0
O  O94  1  0.88055771  0.90797732  0.45747644  1  0  -0.357732  0  1.767663  0  0  -0.339166  0  1.979104  0  0  -0.348933  0  1.973217  0  -0.470913  0  -0.128336  -0.332914  0  1.983434  0
O  O95  1  0.21147394  0.90797949  0.04252149  1  0  -0.35774  0  1.767834  0  0  -0.339153  0  1.979245  0  0  -0.348917  0  1.973358  0  -0.471825  0  -0.128284  -0.332903  0  1.983577  0
O  O96  1  0.11944406  0.09201501  0.54252073  1  0  -0.357812  0  1.76763  0  0  -0.339254  0  1.97908  0  0  -0.349022  0  1.973194  0  -0.470963  0  -0.128395  -0.333002  0  1.983412  0
O  O97  1  0.78852116  0.09203020  0.95747567  1  0  -0.357777  0  1.767783  0  0  -0.339199  0  1.979196  0  0  -0.348962  0  1.97331  0  -0.471607  0  -0.128353  -0.332947  0  1.983529  0
O  O98  1  0.70427404  0.98082850  0.35326087  1  0  -0.374542  0  1.778159  0  0  -0.355478  0  1.995317  0  0  -0.366862  0  1.991648  0  -0.485461  0  -0.135258  -0.34836  0  1.998161  0
O  O99  1  0.31489667  0.98084044  0.14673566  1  0  -0.374582  0  1.778167  0  0  -0.35553  0  1.995356  0  0  -0.366917  0  1.991684  0  -0.488119  0  -0.135243  -0.348413  0  1.998202  0
O  O100  1  0.29573342  0.01917251  0.64673285  1  0  -0.374644  0  1.778248  0  0  -0.355574  0  1.995427  0  0  -0.366958  0  1.99176  0  -0.485361  0  -0.135325  -0.348455  0  1.99827  0
O  O101  1  0.68510652  0.01916708  0.85325670  1  0  -0.374521  0  1.778158  0  0  -0.35546  0  1.995339  0  0  -0.366843  0  1.991673  0  -0.488363  0  -0.135197  -0.348344  0  1.998184  0
O  O102  1  0.89303039  0.99844009  0.67109179  1  0  -0.627396  0  2.0219  0  0  -0.554873  0  2.292714  0  0  -0.583557  0  2.275264  0  -1.152433  0  -0.329729  -0.534494  0  2.304025  0
O  O103  1  0.10853452  0.99843250  0.82891355  1  0  -0.627381  0  2.021993  0  0  -0.554848  0  2.292803  0  0  -0.583518  0  2.275318  0  -1.155045  0  -0.329679  -0.534471  0  2.304111  0
O  O104  1  0.10696558  0.00155983  0.32890946  1  0  -0.627479  0  2.021782  0  0  -0.554958  0  2.292665  0  0  -0.583624  0  2.27517  0  -1.152419  0  -0.329784  -0.534578  0  2.303974  0
O  O105  1  0.89145565  0.00157502  0.17108635  1  0  -0.627274  0  2.022012  0  0  -0.554773  0  2.292851  0  0  -0.583471  0  2.275428  0  -1.155054  0  -0.329619  -0.534393  0  2.30416  0
