# generated using pymatgen
data_Co2H28C34O15
_symmetry_space_group_name_H-M   'P 1'
_cell_length_a   10.12765891
_cell_length_b   18.41268016
_cell_length_c   26.93690432
_cell_angle_alpha   89.99925078
_cell_angle_beta   99.97873249
_cell_angle_gamma   89.99972144
_symmetry_Int_Tables_number   1
_chemical_formula_structural   Co2H28C34O15
_chemical_formula_sum   'Co8 H112 C136 O60'
_cell_volume   4947.13329300
_cell_formula_units_Z   4
loop_
 _symmetry_equiv_pos_site_id
 _symmetry_equiv_pos_as_xyz
  1  'x, y, z'
loop_
 _atom_site_type_symbol
 _atom_site_label
 _atom_site_symmetry_multiplicity
 _atom_site_fract_x
 _atom_site_fract_y
 _atom_site_fract_z
 _atom_site_occupancy
 _atom_site_pbe_bader_charge
 _atom_site_pbe_bader_spin_density
 _atom_site_pbe_cm5_charge
 _atom_site_pbe_ddec_charge
 _atom_site_pbe_ddec_spin_density
 _atom_site_pbe_ddec_sum_bond_order
 _atom_site_pbe_magmom
Co  Co0  1  0.47802669  0.70300484  0.31062441  1  1.283308  2.566663  0.662659  0.97702  2.783317  2.494749  2.528
Co  Co1  1  0.52193905  0.20300159  0.18935905  1  1.2831  2.566707  0.662656  0.977003  2.783406  2.494299  2.528
Co  Co2  1  0.51787939  0.29774076  0.68959335  1  1.285838  2.615079  0.673688  0.991091  2.838678  2.50359  2.575
Co  Co3  1  0.48212272  0.79773205  0.81040885  1  1.28592  2.615127  0.673586  0.990838  2.838706  2.503703  2.575
Co  Co4  1  0.63201066  0.77110367  0.21966302  1  1.266475  -2.586775  0.638593  0.972051  -2.84085  2.388375  -2.55
Co  Co5  1  0.36797622  0.27109912  0.28031968  1  1.26642  -2.586724  0.638604  0.972045  -2.840761  2.388711  -2.55
Co  Co6  1  0.36987583  0.22835530  0.78056107  1  1.251796  2.577108  0.626831  0.948091  2.781683  2.388166  2.539
Co  Co7  1  0.63012714  0.72836150  0.71943883  1  1.251726  2.57709  0.62683  0.948129  2.781675  2.387931  2.539
H  H8  1  0.23260806  0.58145535  0.41317041  1  0.093337  0.000649  0.110382  0.119584  0.000345  0.990236  0.0
H  H9  1  0.76736058  0.08142624  0.08683400  1  0.093261  0.000649  0.110356  0.11939  0.000345  0.990169  0.0
H  H10  1  0.76301515  0.41839032  0.58817556  1  0.134026  0.000654  0.110017  0.119343  0.000361  0.989138  0.0
H  H11  1  0.23697138  0.91839066  0.91182717  1  0.134026  0.000654  0.110055  0.119315  0.00036  0.989037  0.0
H  H12  1  0.80361173  0.60738737  0.39921045  1  0.078273  0.000102  0.112332  0.123591  -3.3e-05  0.985637  0.0
H  H13  1  0.19635949  0.10737151  0.10078832  1  0.078363  0.000102  0.112406  0.123754  -3.3e-05  0.985394  0.0
H  H14  1  0.19253978  0.39571746  0.60210345  1  0.108138  0.000208  0.112725  0.124183  -3e-06  0.986984  0.0
H  H15  1  0.80744707  0.89570890  0.89790099  1  0.107838  0.000208  0.112781  0.124198  -3e-06  0.98704  0.0
H  H16  1  0.01713384  0.71062430  0.29334502  1  0.109877  0.00047  0.109735  0.12112  0.000381  1.007902  0.0
H  H17  1  0.98282796  0.21061729  0.20664889  1  0.110243  0.00047  0.109717  0.121128  0.000381  1.007888  0.0
H  H18  1  0.98150941  0.28938104  0.70744467  1  0.114577  0.000698  0.110696  0.121874  0.000341  1.007192  0.0
H  H19  1  0.01848071  0.78939730  0.79255239  1  0.1152  0.000698  0.11075  0.121934  0.000341  1.007188  0.0
H  H20  1  0.53196685  0.99820408  0.24974724  1  0.110943  9.5e-05  0.112529  0.126581  5.2e-05  0.992194  0.0
H  H21  1  0.46808035  0.49819603  0.25024576  1  0.110999  9.5e-05  0.112562  0.126383  5.2e-05  0.99236  0.0
H  H22  1  0.46590451  0.00135702  0.74894269  1  0.135911  0.000508  0.112646  0.126209  9.8e-05  0.992121  0.0
H  H23  1  0.53413459  0.50134766  0.75106561  1  0.135947  0.000508  0.112617  0.126236  9.8e-05  0.992134  0.0
H  H24  1  0.51975398  0.88018901  0.38694814  1  0.102847  3.9e-05  0.113298  0.125093  -2.5e-05  0.981094  0.0
H  H25  1  0.48024764  0.38018680  0.11304305  1  0.102918  3.8e-05  0.113299  0.125051  -2.5e-05  0.981187  0.0
H  H26  1  0.47615872  0.12012701  0.61189606  1  0.104203  0.000121  0.112981  0.125423  -5.5e-05  0.980286  0.0
H  H27  1  0.52382362  0.62011669  0.88810388  1  0.104676  0.000121  0.112969  0.125365  -5.5e-05  0.980375  0.0
H  H28  1  0.50017121  0.11376178  0.38597049  1  0.079671  -0.00032  0.103282  0.110608  -6.9e-05  1.009247  0.0
H  H29  1  0.49982985  0.61375895  0.11402045  1  0.0802  -0.000319  0.103294  0.110691  -6.9e-05  1.00921  0.0
H  H30  1  0.49985391  0.88668294  0.61255407  1  0.102709  0.000156  0.103915  0.110429  -2.8e-05  1.009434  0.0
H  H31  1  0.50016116  0.38667271  0.88745446  1  0.102537  0.000156  0.103963  0.110561  -2.8e-05  1.009413  0.0
H  H32  1  0.16861569  0.66009139  0.47763506  1  0.077744  -1e-05  0.101601  0.113475  -2.1e-05  1.063843  0.0
H  H33  1  0.83136196  0.16006985  0.02237033  1  0.077611  -1e-05  0.101691  0.112752  -2.1e-05  1.064813  0.0
H  H34  1  0.82791283  0.34095508  0.52338409  1  0.079257  -2e-05  0.101221  0.113392  -2.1e-05  1.064841  0.0
H  H35  1  0.17205170  0.84093046  0.97662055  1  0.078349  -2e-05  0.101215  0.113449  -2.1e-05  1.064773  0.0
H  H36  1  0.10861139  0.52254621  0.63081831  1  0.063856  -1.9e-05  0.100525  0.110718  -1.4e-05  1.056438  0.0
H  H37  1  0.89138128  0.02254285  0.86918501  1  0.063953  -1.9e-05  0.100495  0.110657  -1.4e-05  1.056427  0.0
H  H38  1  0.88651481  0.47934642  0.37038496  1  0.088978  -2.2e-05  0.100218  0.111  -1.2e-05  1.056352  0.0
H  H39  1  0.11349976  0.97934109  0.12961952  1  0.088893  -2.2e-05  0.100218  0.111057  -1.2e-05  1.056199  0.0
H  H40  1  0.28715534  0.93778493  0.39009232  1  0.080041  -3e-05  0.097022  0.106998  -1.9e-05  1.069917  0.0
H  H41  1  0.71284374  0.43777889  0.10991230  1  0.080113  -3.1e-05  0.096961  0.10691  -2e-05  1.069928  0.0
H  H42  1  0.71147537  0.06314913  0.60854522  1  0.053996  -5.6e-05  0.096815  0.108224  -3.8e-05  1.06763  0.0
H  H43  1  0.28852768  0.56313506  0.89145097  1  0.054218  -5.6e-05  0.096861  0.108249  -3.8e-05  1.067524  0.0
H  H44  1  0.74550873  0.04386357  0.42675091  1  0.063332  -2.9e-05  0.100382  0.114603  -1.6e-05  1.049458  0.0
H  H45  1  0.25448831  0.54387306  0.07324487  1  0.063541  -2.9e-05  0.100444  0.114749  -1.6e-05  1.049175  0.0
H  H46  1  0.25275042  0.95665013  0.57182350  1  0.086072  -3.9e-05  0.100271  0.113983  -2.3e-05  1.049791  0.0
H  H47  1  0.74725665  0.45664822  0.92817981  1  0.086183  -3.9e-05  0.100273  0.113972  -2.3e-05  1.049773  0.0
H  H48  1  0.37129658  0.71651727  0.49572115  1  0.047485  7.7e-05  0.105965  0.111108  3.4e-05  0.974304  0.0
H  H49  1  0.62870532  0.21652542  0.00428006  1  0.047495  7.7e-05  0.105983  0.111123  3.4e-05  0.974264  0.0
H  H50  1  0.62666046  0.28277715  0.50473834  1  0.035829  3.2e-05  0.104465  0.108961  1.3e-05  0.976121  0.0
H  H51  1  0.37331193  0.78274456  0.99527252  1  0.036709  3.1e-05  0.104558  0.10921  1.3e-05  0.975774  0.0
H  H52  1  0.39039957  0.79666979  0.53462356  1  0.071759  -4e-06  0.106402  0.11524  -6e-06  0.987852  0.0
H  H53  1  0.60962455  0.29668003  0.96537632  1  0.071378  -4e-06  0.106418  0.115196  -6e-06  0.987964  0.0
H  H54  1  0.61153614  0.20239272  0.46605841  1  0.063323  -2e-06  0.106024  0.114377  5e-06  0.989651  0.0
H  H55  1  0.38843414  0.70236511  0.03395876  1  0.063691  -3e-06  0.105992  0.114469  5e-06  0.989898  0.0
H  H56  1  0.22866414  0.77263038  0.50073328  1  0.091435  1.1e-05  0.103071  0.110752  1e-06  0.995825  0.0
H  H57  1  0.77135435  0.27262921  0.99927129  1  0.091376  1.1e-05  0.103021  0.110687  1e-06  0.995861  0.0
H  H58  1  0.77170262  0.22818472  0.50043082  1  0.08476  -1.1e-05  0.103022  0.110985  -0.0  0.995645  0.0
H  H59  1  0.22827052  0.72815354  0.99958243  1  0.084124  -1.1e-05  0.102913  0.110825  -0.0  0.995818  0.0
H  H60  1  0.90876092  0.12368295  0.41111194  1  0.046709  0.0  0.101977  0.104941  3e-06  0.978792  0.0
H  H61  1  0.09123501  0.62369367  0.08887934  1  0.046681  0.0  0.102023  0.10499  3e-06  0.978857  0.0
H  H62  1  0.09041469  0.87604271  0.58727185  1  0.067816  0.0  0.101515  0.104947  -3e-06  0.978364  0.0
H  H63  1  0.90958345  0.37603359  0.91273385  1  0.067952  0.0  0.101468  0.104922  -3e-06  0.978358  0.0
H  H64  1  0.08276468  0.10853776  0.43641267  1  0.066786  -9e-06  0.107518  0.114835  -2e-06  0.972648  0.0
H  H65  1  0.91722942  0.60854995  0.06357639  1  0.066856  -9e-06  0.107563  0.114936  -2e-06  0.972614  0.0
H  H66  1  0.91624051  0.89100542  0.56215306  1  0.066808  -4e-06  0.108548  0.116852  -3e-06  0.97068  0.0
H  H67  1  0.08376238  0.39100026  0.93784835  1  0.066732  -4e-06  0.108501  0.116803  -3e-06  0.970676  0.0
H  H68  1  0.96942334  0.03291104  0.42603450  1  0.085693  -1e-06  0.09925  0.102664  0.0  1.007191  0.0
H  H69  1  0.03057079  0.53291949  0.07395859  1  0.085679  -1e-06  0.099283  0.102763  0.0  1.00704  0.0
H  H70  1  0.02914969  0.96680050  0.57275719  1  0.07956  1e-06  0.099631  0.103245  2e-06  1.006115  0.0
H  H71  1  0.97084519  0.46679419  0.92724266  1  0.079709  1e-06  0.099676  0.10328  2e-06  1.006021  0.0
H  H72  1  0.07649048  0.92706641  0.34495343  1  0.044378  1e-06  0.097598  0.094345  4e-06  0.986179  0.0
H  H73  1  0.92351471  0.42707250  0.15504833  1  0.044173  1e-06  0.097577  0.094304  4e-06  0.986156  0.0
H  H74  1  0.92323541  0.07274235  0.65339264  1  0.045495  0.0  0.097521  0.093873  2e-06  0.985931  0.0
H  H75  1  0.07677956  0.57270527  0.84660496  1  0.044917  0.0  0.097431  0.093612  2e-06  0.985786  0.0
H  H76  1  0.97436440  0.84794793  0.34766144  1  0.066448  1.4e-05  0.111726  0.124005  1.3e-05  0.96968  0.0
H  H77  1  0.02564787  0.34795709  0.15234333  1  0.066066  1.4e-05  0.111772  0.124027  1.3e-05  0.969745  0.0
H  H78  1  0.02637391  0.15148934  0.65080336  1  0.060229  -3.4e-05  0.112195  0.124145  -4.6e-05  0.968877  0.0
H  H79  1  0.97361568  0.65144812  0.84917411  1  0.060429  -3.4e-05  0.112088  0.1239  -4.6e-05  0.968996  0.0
H  H80  1  0.15384685  0.84014073  0.36038843  1  0.077562  -6e-06  0.102124  0.109358  -3.3e-05  0.984102  0.0
H  H81  1  0.84616956  0.34014407  0.13961815  1  0.077135  -6e-06  0.102103  0.109272  -3.3e-05  0.984193  0.0
H  H82  1  0.84704173  0.16012476  0.63859259  1  0.075225  1.6e-05  0.102574  0.108542  -2e-05  0.984278  0.0
H  H83  1  0.15294475  0.66009534  0.86138535  1  0.076292  1.6e-05  0.102604  0.108513  -2e-05  0.984043  0.0
H  H84  1  0.26018441  0.55818382  0.69993336  1  0.034489  -8e-06  0.098876  0.098393  -1.5e-05  0.988363  0.0
H  H85  1  0.73984182  0.05819741  0.80006805  1  0.034077  -8e-06  0.098801  0.098285  -1.5e-05  0.988461  0.0
H  H86  1  0.73809783  0.44207244  0.30057074  1  0.059814  -2.7e-05  0.098973  0.098467  -1e-06  0.989823  0.0
H  H87  1  0.26195128  0.94206591  0.19943440  1  0.059914  -2.7e-05  0.098873  0.098244  -1e-06  0.989734  0.0
H  H88  1  0.11557939  0.61679428  0.68892303  1  0.066534  0.00025  0.104768  0.108902  0.000157  0.981891  0.0
H  H89  1  0.88444720  0.11680020  0.81108604  1  0.066268  0.00025  0.104764  0.108897  0.000157  0.981762  0.0
H  H90  1  0.88369911  0.38431030  0.31271934  1  0.07426  -0.000226  0.104726  0.109716  -0.000129  0.981762  0.0
H  H91  1  0.11634587  0.88430711  0.18729385  1  0.074583  -0.000226  0.104722  0.109628  -0.000129  0.981754  0.0
H  H92  1  0.27256296  0.65058459  0.72220981  1  0.097069  -0.000172  0.114905  0.133342  -0.000218  0.977325  0.0
H  H93  1  0.72747815  0.15059810  0.77779505  1  0.097294  -0.000172  0.114866  0.133289  -0.000218  0.97732  0.0
H  H94  1  0.72824791  0.34936589  0.27891657  1  0.087753  -5e-05  0.115427  0.133816  -5.2e-05  0.977357  0.0
H  H95  1  0.27180338  0.84935784  0.22108694  1  0.088127  -5e-05  0.115448  0.133815  -5.2e-05  0.977228  0.0
H  H96  1  0.47869513  0.79082167  0.12174855  1  0.637528  3.2e-05  0.31151  0.396707  -0.000107  0.914598  0.0
H  H97  1  0.52132176  0.29083057  0.37824812  1  0.637677  3.3e-05  0.311535  0.396699  -0.000107  0.914676  0.0
H  H98  1  0.52204706  0.20631282  0.87856939  1  0.626991  1.3e-05  0.311217  0.396554  0.000118  0.916151  0.0
H  H99  1  0.47796521  0.70628384  0.62143055  1  0.627392  1.3e-05  0.311223  0.39669  0.000117  0.915929  0.0
H  H100  1  0.46573872  0.85788658  0.15278016  1  0.635885  0.000369  0.310207  0.392261  0.000109  0.924405  0.0
H  H101  1  0.53424317  0.35789441  0.34721147  1  0.635941  0.000369  0.31025  0.392284  0.00011  0.924321  0.0
H  H102  1  0.53291246  0.14032707  0.84614120  1  0.609784  -0.000455  0.311901  0.394605  -0.000173  0.920129  0.0
H  H103  1  0.46715394  0.64030021  0.65387129  1  0.610197  -0.000456  0.311997  0.394799  -0.000173  0.920136  0.0
H  H104  1  0.74417941  0.82243834  0.15347700  1  0.648676  0.000553  0.324654  0.418067  0.000272  0.869305  0.0
H  H105  1  0.25585404  0.32243011  0.34651635  1  0.648825  0.000553  0.324676  0.418111  0.000272  0.869371  0.0
H  H106  1  0.25396080  0.17241514  0.84414735  1  0.638725  -0.000507  0.324249  0.41595  -0.000261  0.871295  0.0
H  H107  1  0.74608207  0.67240649  0.65586002  1  0.639471  -0.000507  0.324288  0.416165  -0.000261  0.870914  0.0
H  H108  1  0.83685030  0.75642313  0.17930350  1  0.650271  -0.000743  0.296556  0.392728  -0.000935  0.935901  -0.001
H  H109  1  0.16317223  0.25641511  0.32070534  1  0.650819  -0.000742  0.296477  0.392585  -0.000935  0.936107  -0.001
H  H110  1  0.16096278  0.23848248  0.81918008  1  0.654263  0.000733  0.296088  0.390841  0.000893  0.938668  0.001
H  H111  1  0.83905921  0.73848178  0.68082761  1  0.654191  0.000732  0.29608  0.390843  0.000892  0.938624  0.001
H  H112  1  0.85636034  0.67177068  0.22497150  1  0.636047  -0.000175  0.29475  0.380778  -0.000144  0.95317  0.0
H  H113  1  0.14364126  0.17175055  0.27503753  1  0.636487  -0.000175  0.294751  0.380619  -0.000144  0.953348  0.0
H  H114  1  0.14307779  0.32535077  0.77572982  1  0.65141  2.1e-05  0.29352  0.380051  7e-06  0.955114  0.0
H  H115  1  0.85691092  0.82536223  0.72427091  1  0.651581  2.1e-05  0.293393  0.379982  7e-06  0.955249  0.0
H  H116  1  0.82199723  0.63338735  0.17276980  1  0.598246  -4.7e-05  0.317709  0.387976  -0.0  0.901063  0.0
H  H117  1  0.17812808  0.13338351  0.32724067  1  0.597493  -4.7e-05  0.317592  0.387467  -0.0  0.90123  0.0
H  H118  1  0.17666624  0.36097132  0.82886428  1  0.602949  -3e-05  0.317992  0.387946  -5.9e-05  0.899824  0.0
H  H119  1  0.82330895  0.86097031  0.67113417  1  0.602682  -3e-05  0.317953  0.387942  -5.9e-05  0.899955  0.0
C  C120  1  0.76691271  0.69160354  0.31647284  1  1.550147  -0.000683  0.22043  0.602914  -0.000155  4.159089  0.0
C  C121  1  0.23305327  0.19159741  0.18351631  1  1.549519  -0.000675  0.220608  0.603003  -0.000155  4.159334  0.0
C  C122  1  0.23150591  0.31096470  0.68429972  1  1.550237  -0.002739  0.221088  0.601896  -0.000123  4.164749  -0.002
C  C123  1  0.76847699  0.81097194  0.81570227  1  1.551265  -0.002739  0.22104  0.601991  -0.000122  4.164633  -0.002
C  C124  1  0.26076824  0.67107149  0.33359514  1  1.518731  -0.003034  0.191835  0.547012  -0.000859  4.209366  -0.005
C  C125  1  0.73919709  0.17105016  0.16640009  1  1.517817  -0.003039  0.191929  0.547216  -0.000861  4.209345  -0.005
C  C126  1  0.73691723  0.32796659  0.66717578  1  1.510143  -0.002116  0.195176  0.55164  -0.000257  4.206927  -0.004
C  C127  1  0.26306536  0.82798791  0.83282009  1  1.509996  -0.002116  0.195028  0.551551  -0.000258  4.207413  -0.004
C  C128  1  0.13635572  0.64863531  0.35196699  1  0.009368  0.002518  -0.015686  -0.01953  0.001377  3.995414  0.002
C  C129  1  0.86362002  0.14861617  0.14803430  1  0.027253  0.002511  -0.015906  -0.020169  0.001377  3.995446  0.002
C  C130  1  0.86108170  0.35132386  0.64908270  1  0.007266  0.002751  -0.017839  -0.023655  0.001496  3.995872  0.002
C  C131  1  0.13889554  0.85133487  0.85091077  1  0.008209  0.002752  -0.017808  -0.023625  0.001497  3.996074  0.002
C  C132  1  0.13734710  0.60351220  0.39400252  1  -0.102289  8.3e-05  -0.07352  -0.131616  0.000116  3.89513  0.0
C  C133  1  0.86262121  0.10349007  0.10599871  1  -0.12076  9.2e-05  -0.073233  -0.130664  0.000116  3.894304  0.0
C  C134  1  0.85890795  0.39693848  0.60720581  1  -0.076683  -0.000127  -0.072401  -0.129488  -3e-06  3.888397  0.0
C  C135  1  0.14107885  0.89693402  0.89279602  1  -0.076528  -0.000124  -0.072389  -0.12942  -1e-06  3.887912  0.0
C  C136  1  0.50724646  0.99744514  0.44768284  1  0.006709  0.000244  -0.018089  -0.050827  0.000147  3.969982  0.0
C  C137  1  0.49275470  0.49744406  0.05231135  1  0.00684  0.000244  -0.018023  -0.050639  0.000147  3.969627  0.0
C  C138  1  0.49116259  0.00324019  0.55099828  1  -0.006643  8.9e-05  -0.017708  -0.049221  7.3e-05  3.968659  0.0
C  C139  1  0.50883225  0.50323581  0.94899942  1  -0.006593  8.9e-05  -0.017678  -0.049235  7.3e-05  3.968665  0.0
C  C140  1  0.89583616  0.66079391  0.34296297  1  -0.112957  0.000304  -0.024243  -0.046416  4.2e-05  4.021945  0.0
C  C141  1  0.10413131  0.16078157  0.15703249  1  -0.112215  0.000301  -0.024227  -0.046419  4.1e-05  4.02174  0.0
C  C142  1  0.10162378  0.34101508  0.65811894  1  0.01133  0.008764  -0.021212  -0.04368  0.0045  4.023035  0.007
C  C143  1  0.89835670  0.84101873  0.84188113  1  0.016477  0.008761  -0.021311  -0.043799  0.0045  4.022817  0.007
C  C144  1  0.52438505  0.93211151  0.31567573  1  -0.023337  -5.2e-05  -0.019125  -0.032231  -6.5e-05  4.011819  0.0
C  C145  1  0.47565705  0.43210524  0.18432126  1  -0.021846  -5.1e-05  -0.019211  -0.0322  -6.5e-05  4.011462  0.0
C  C146  1  0.47232884  0.06789276  0.68310091  1  -0.035768  0.011504  -0.019291  -0.03298  0.00593  4.010132  0.009
C  C147  1  0.52767929  0.56789086  0.81690410  1  -0.033786  0.011506  -0.01913  -0.032622  0.005931  4.009611  0.009
C  C148  1  0.89753010  0.61742610  0.38579973  1  0.008133  -0.001642  -0.072808  -0.123211  -0.000955  3.894225  -0.001
C  C149  1  0.10243496  0.11740699  0.11419745  1  0.008481  -0.001641  -0.072874  -0.123235  -0.000955  3.894603  -0.001
C  C150  1  0.09884348  0.38482551  0.61543202  1  -0.027011  -0.000813  -0.073404  -0.124158  -0.000474  3.895894  0.0
C  C151  1  0.90114251  0.88482075  0.88457246  1  -0.026614  -0.00081  -0.073356  -0.124137  -0.000472  3.895727  0.0
C  C152  1  0.51475993  0.06287305  0.31524206  1  -0.06914  0.001539  -0.022587  -0.03805  0.000789  4.01702  0.002
C  C153  1  0.48526290  0.56286891  0.18475405  1  -0.06987  0.00154  -0.022699  -0.038287  0.000789  4.01707  0.002
C  C154  1  0.48409746  0.93709700  0.68335222  1  -0.05236  0.011956  -0.021535  -0.036679  0.006215  4.012936  0.01
C  C155  1  0.51592993  0.43709406  0.81665292  1  -0.052656  0.011953  -0.02149  -0.036396  0.006213  4.012775  0.01
C  C156  1  0.07730131  0.56487535  0.50474988  1  0.046929  -3.3e-05  -0.011925  0.051339  -2.2e-05  4.01156  0.0
C  C157  1  0.92267984  0.06486570  0.99525642  1  0.046401  -3.4e-05  -0.012004  0.051497  -2.2e-05  4.011618  0.0
C  C158  1  0.91794371  0.43668327  0.49643006  1  -0.019882  9.5e-05  -0.012156  0.050193  4.8e-05  4.011786  0.0
C  C159  1  0.08204032  0.93666632  0.00357139  1  -0.019727  9.5e-05  -0.012062  0.050266  4.8e-05  4.011633  0.0
C  C160  1  0.01200651  0.54169188  0.45663073  1  -0.02209  0.000145  -0.010674  -0.038415  6.4e-05  3.923683  0.0
C  C161  1  0.98796565  0.04167168  0.04337315  1  -0.021982  0.000146  -0.010873  -0.038739  6.4e-05  3.924157  0.0
C  C162  1  0.98296858  0.45998188  0.54458010  1  0.021461  -5.2e-05  -0.011729  -0.039512  -3.8e-05  3.924026  0.0
C  C163  1  0.01700842  0.95997384  0.95542389  1  0.021545  -5.2e-05  -0.011785  -0.039676  -3.8e-05  3.924027  0.0
C  C164  1  0.01531278  0.67605379  0.32600498  1  -0.016122  0.001609  -0.077076  -0.11595  0.000965  3.950116  0.001
C  C165  1  0.98466050  0.17604360  0.17399034  1  -0.016067  0.001611  -0.077038  -0.115857  0.000965  3.950279  0.001
C  C166  1  0.98259814  0.32442459  0.67496540  1  -0.069745  0.001474  -0.079049  -0.116853  0.000786  3.951673  0.001
C  C167  1  0.01738053  0.82443154  0.82503322  1  -0.076596  0.001481  -0.079146  -0.116918  0.000786  3.951782  0.001
C  C168  1  0.01742548  0.58723646  0.41134422  1  0.056606  -1.6e-05  -0.003513  0.082531  -6.4e-05  3.99371  0.0
C  C169  1  0.98254208  0.08721161  0.08866008  1  0.056164  -1.6e-05  -0.003583  0.082225  -6.3e-05  3.994502  0.0
C  C170  1  0.97832158  0.41426947  0.58985214  1  -0.041447  0.000952  -0.003025  0.084507  0.000432  3.991572  0.001
C  C171  1  0.02166398  0.91426718  0.91014908  1  -0.041701  0.000952  -0.003018  0.084604  0.000432  3.99121  0.001
C  C172  1  0.51331246  0.99698293  0.39332326  1  0.063878  0.001065  -0.005363  0.088717  0.000552  4.040632  0.001
C  C173  1  0.48669471  0.49698082  0.10667132  1  0.064217  0.001065  -0.0054  0.088721  0.000552  4.040515  0.001
C  C174  1  0.48496568  0.00341890  0.60537708  1  -0.001048  0.002755  -0.00558  0.087744  0.001414  4.04059  0.002
C  C175  1  0.51502720  0.50340957  0.89462420  1  -0.000863  0.002756  -0.005499  0.087923  0.001414  4.040539  0.002
C  C176  1  0.52566181  0.99758240  0.28967858  1  0.03863  -0.00373  -0.075541  -0.107504  -0.001927  3.922898  -0.002
C  C177  1  0.47437235  0.49757726  0.21031323  1  0.038278  -0.00373  -0.075605  -0.107299  -0.001928  3.922725  -0.002
C  C178  1  0.47219045  0.00223450  0.70900755  1  -0.038031  -0.003654  -0.075334  -0.106577  -0.001926  3.920544  -0.002
C  C179  1  0.52784763  0.50223309  0.79100068  1  -0.040524  -0.003657  -0.075405  -0.106932  -0.001929  3.920913  -0.002
C  C180  1  0.51918144  0.93189921  0.36727674  1  -0.072348  -0.005667  -0.071875  -0.122946  -0.003049  3.896726  -0.004
C  C181  1  0.48082154  0.43189391  0.13271630  1  -0.073108  -0.005672  -0.071885  -0.12289  -0.003051  3.896526  -0.004
C  C182  1  0.47769659  0.06831253  0.63149205  1  0.000661  -0.005889  -0.071934  -0.12208  -0.003135  3.893432  -0.004
C  C183  1  0.52231955  0.56830368  0.86851272  1  0.001033  -0.005896  -0.07208  -0.122252  -0.003139  3.892948  -0.004
C  C184  1  0.52471815  0.86120030  0.28960971  1  1.524852  -0.005318  0.220994  0.589946  -0.003403  4.193533  -0.002
C  C185  1  0.47529970  0.36118973  0.21037859  1  1.524378  -0.005322  0.221253  0.59008  -0.003406  4.19303  -0.002
C  C186  1  0.47056325  0.13880343  0.70914980  1  1.529151  -0.00555  0.218595  0.587212  -0.001278  4.191505  -0.004
C  C187  1  0.52942387  0.63880148  0.79085102  1  1.52983  -0.005553  0.218478  0.587035  -0.001282  4.191301  -0.004
C  C188  1  0.06138837  0.52409653  0.54909932  1  0.008008  0.000137  -0.01293  0.044687  7.2e-05  4.015487  0.0
C  C189  1  0.93858530  0.02408985  0.95090762  1  0.008342  0.000137  -0.012857  0.044778  7.2e-05  4.015791  0.0
C  C190  1  0.93364470  0.47757940  0.45210477  1  0.028153  -6.1e-05  -0.01341  0.045088  -2.4e-05  4.015852  0.0
C  C191  1  0.06633881  0.97756327  0.04789703  1  0.028363  -6.1e-05  -0.013393  0.045152  -2.5e-05  4.015992  0.0
C  C192  1  0.50858341  0.06237998  0.36668933  1  -0.09614  -0.004648  -0.081613  -0.14303  -0.002304  3.935544  -0.003
C  C193  1  0.49142335  0.56237734  0.13330318  1  -0.096289  -0.004652  -0.081455  -0.143023  -0.002305  3.935338  -0.003
C  C194  1  0.49057373  0.93790562  0.63192310  1  -0.038272  -0.005739  -0.081652  -0.141893  -0.002974  3.933172  -0.003
C  C195  1  0.50945668  0.43789411  0.86808371  1  -0.038656  -0.005744  -0.081667  -0.142187  -0.002977  3.933175  -0.003
C  C196  1  0.61609769  0.02590223  0.48200495  1  -0.041725  -8e-06  -0.016669  0.043159  -1e-06  4.043157  0.0
C  C197  1  0.38389554  0.52589775  0.01798851  1  -0.04169  -8e-06  -0.016717  0.043122  -1e-06  4.043206  0.0
C  C198  1  0.38229693  0.97481242  0.51665001  1  0.01968  0.000217  -0.018951  0.039614  0.000116  4.044128  0.0
C  C199  1  0.61770482  0.47480709  0.98334761  1  0.019729  0.000217  -0.018909  0.039755  0.000116  4.044072  0.0
C  C200  1  0.15819180  0.62893104  0.51097507  1  0.01604  1e-05  -0.118737  -0.274025  -1.2e-05  4.018133  0.0
C  C201  1  0.84178449  0.12891738  0.98902961  1  0.016033  9e-06  -0.118712  -0.273635  -1.2e-05  4.018386  0.0
C  C202  1  0.83811704  0.37225610  0.49008703  1  0.002455  -6.4e-05  -0.118853  -0.274412  -3.3e-05  4.018087  0.0
C  C203  1  0.16185484  0.87223392  0.00991720  1  0.002897  -6.4e-05  -0.11899  -0.2745  -3.3e-05  4.017655  0.0
C  C204  1  0.39101969  0.97113501  0.46399851  1  -0.039741  5.2e-05  -0.017174  0.043332  3.3e-05  4.042281  0.0
C  C205  1  0.60897983  0.47112198  0.03599693  1  -0.03999  5.2e-05  -0.017287  0.043056  3.3e-05  4.042403  0.0
C  C206  1  0.60739619  0.02962743  0.53467116  1  -0.02716  0.000221  -0.018424  0.042187  0.000117  4.042968  0.0
C  C207  1  0.39259728  0.52962198  0.96532510  1  -0.026834  0.000221  -0.018287  0.04224  0.000117  4.043318  0.0
C  C208  1  0.12412942  0.55143584  0.59710581  1  0.001973  -1.8e-05  -0.119275  -0.27547  -5e-06  4.034263  0.0
C  C209  1  0.87586892  0.05143025  0.90289985  1  0.0027  -1.7e-05  -0.119187  -0.275296  -4e-06  4.034285  0.0
C  C210  1  0.87152179  0.45016568  0.40404553  1  -0.052757  -5e-06  -0.118715  -0.274377  -8e-06  4.035831  0.0
C  C211  1  0.12847210  0.95015281  0.09595716  1  -0.052857  -5e-06  -0.118729  -0.274634  -8e-06  4.035457  0.0
C  C212  1  0.28031756  0.94145323  0.42983823  1  0.009482  -1e-05  -0.127028  -0.292883  -7e-06  4.04497  0.0
C  C213  1  0.71968443  0.44144792  0.07016357  1  0.009205  -1e-05  -0.126958  -0.292749  -7e-06  4.044957  0.0
C  C214  1  0.71825782  0.05934126  0.56878394  1  0.01143  -0.000126  -0.128857  -0.296122  -6.8e-05  4.044805  0.0
C  C215  1  0.28174425  0.55933187  0.93121074  1  0.011526  -0.000126  -0.129029  -0.296205  -6.9e-05  4.044914  0.0
C  C216  1  0.22260735  0.65187665  0.55743134  1  0.42245  1.8e-05  0.072299  0.161404  4.5e-05  4.063859  0.0
C  C217  1  0.77739567  0.15187166  0.94257223  1  0.422537  1.8e-05  0.072151  0.161442  4.5e-05  4.063494  0.0
C  C218  1  0.77502621  0.34888524  0.44354384  1  0.400004  -3e-06  0.072535  0.16218  -3.1e-05  4.066395  0.0
C  C219  1  0.22495600  0.84886254  0.05646089  1  0.399704  -3e-06  0.072558  0.162361  -3.1e-05  4.065808  0.0
C  C220  1  0.73712614  0.04916988  0.46627920  1  0.010041  -2e-05  -0.122343  -0.282789  -1.4e-05  4.024899  0.0
C  C221  1  0.26286981  0.54917303  0.03371572  1  0.009765  -1.9e-05  -0.122283  -0.282852  -1.4e-05  4.024463  0.0
C  C222  1  0.26130551  0.95137859  0.53231016  1  0.02285  -6.4e-05  -0.121078  -0.280989  -3.9e-05  4.024279  0.0
C  C223  1  0.73869962  0.45137268  0.96769196  1  0.022844  -6.4e-05  -0.121173  -0.281118  -3.9e-05  4.024448  0.0
C  C224  1  0.16690891  0.91682998  0.44613693  1  0.459446  -3.9e-05  0.072365  0.15214  -2e-05  4.098425  0.0
C  C225  1  0.83309442  0.41682468  0.05386555  1  0.460048  -3.9e-05  0.072381  0.152023  -1.9e-05  4.098444  0.0
C  C226  1  0.83179063  0.08372228  0.55241808  1  0.456469  4.8e-05  0.075037  0.154084  2.8e-05  4.09858  0.0
C  C227  1  0.16821209  0.58371127  0.94757383  1  0.455163  4.8e-05  0.075137  0.154052  2.8e-05  4.098555  0.0
C  C228  1  0.20265295  0.61271628  0.60177113  1  0.40487  8.7e-05  0.071352  0.155554  7.4e-05  4.069899  0.0
C  C229  1  0.79735659  0.11271317  0.89823319  1  0.405063  8.7e-05  0.071322  0.155219  7.4e-05  4.070055  0.0
C  C230  1  0.79438182  0.38839916  0.39927805  1  0.500665  -0.000107  0.070809  0.154171  -8.1e-05  4.07125  0.0
C  C231  1  0.20562590  0.88838653  0.10072570  1  0.500827  -0.000107  0.070994  0.154345  -8e-05  4.070788  0.0
C  C232  1  0.84276051  0.07695732  0.49993379  1  0.468973  -3.7e-05  0.076867  0.159663  -1.8e-05  4.085453  0.0
C  C233  1  0.15723905  0.57695870  0.00005850  1  0.469059  -3.8e-05  0.076764  0.159668  -1.8e-05  4.085656  0.0
C  C234  1  0.15584576  0.92348035  0.49861348  1  0.42302  5.5e-05  0.074655  0.158551  3e-05  4.086299  0.0
C  C235  1  0.84416148  0.42347384  0.00138844  1  0.422624  5.5e-05  0.074786  0.158757  3e-05  4.086234  0.0
C  C236  1  0.32427783  0.75118233  0.52106869  1  0.359123  3.2e-05  -0.133779  -0.172796  2.1e-05  3.877381  0.0
C  C237  1  0.67573693  0.25118833  0.97893510  1  0.359471  3.2e-05  -0.133757  -0.172557  2.1e-05  3.877483  0.0
C  C238  1  0.67570638  0.24860250  0.47971232  1  0.385747  -1.4e-05  -0.133755  -0.171232  -1.1e-05  3.878594  0.0
C  C239  1  0.32426323  0.74857479  0.02030031  1  0.385147  -1.4e-05  -0.133833  -0.171584  -1.1e-05  3.878726  0.0
C  C240  1  0.98014928  0.09044627  0.43718399  1  0.368416  -2e-06  -0.133082  -0.170284  1e-06  3.904349  0.0
C  C241  1  0.01984606  0.59045551  0.06280606  1  0.367798  -2e-06  -0.133232  -0.170594  1e-06  3.904367  0.0
C  C242  1  0.01870662  0.90934728  0.56137864  1  0.352121  -3e-06  -0.134882  -0.174155  -3e-06  3.904011  0.0
C  C243  1  0.98129503  0.40934072  0.93862252  1  0.351983  -3e-06  -0.134881  -0.174206  -3e-06  3.903936  0.0
C  C244  1  0.06783034  0.87498963  0.36434862  1  0.376105  -2e-06  -0.132354  -0.167913  0.0  3.900317  0.0
C  C245  1  0.93218056  0.37499389  0.13565508  1  0.377034  -2e-06  -0.132399  -0.16788  0.0  3.900381  0.0
C  C246  1  0.93231172  0.12495762  0.63422377  1  0.388013  -4e-06  -0.132856  -0.167157  -5e-06  3.901041  0.0
C  C247  1  0.06768534  0.62492726  0.86576072  1  0.387026  -4e-06  -0.13261  -0.166514  -5e-06  3.900336  0.0
C  C248  1  0.22528101  0.61437077  0.69205493  1  0.374181  -2e-06  -0.131529  -0.168807  -4.9e-05  3.870443  0.0
C  C249  1  0.77474455  0.11438140  0.80795038  1  0.374794  -2e-06  -0.131409  -0.16864  -4.9e-05  3.870207  0.0
C  C250  1  0.77383515  0.38616192  0.30900326  1  0.34675  -4.8e-05  -0.131287  -0.170095  1e-06  3.869498  0.0
C  C251  1  0.22620669  0.88615620  0.19100303  1  0.345933  -4.8e-05  -0.131153  -0.169639  1e-06  3.869068  0.0
C  C252  1  0.50426442  0.13270239  0.28732406  1  1.537341  -0.010517  0.22029  0.600371  -0.006617  4.168312  -0.007
C  C253  1  0.49574237  0.63270311  0.21266410  1  1.536374  -0.010525  0.220246  0.60036  -0.006618  4.168663  -0.007
C  C254  1  0.49593735  0.86707269  0.71115928  1  1.525344  -0.002183  0.22256  0.602561  0.000673  4.168065  -0.001
C  C255  1  0.50407401  0.36706760  0.78885141  1  1.5253  -0.002194  0.222561  0.602548  0.000666  4.166914  -0.001
O  O256  1  0.37722872  0.65667664  0.36011999  1  -1.11418  0.11777  -0.329865  -0.546869  0.060746  2.161696  0.095
O  O257  1  0.62273971  0.15667136  0.13986926  1  -1.113381  0.117787  -0.32991  -0.546839  0.060751  2.161861  0.095
O  O258  1  0.62066745  0.34513668  0.64157523  1  -1.118076  0.124126  -0.329808  -0.54558  0.063976  2.167469  0.099
O  O259  1  0.37930306  0.84514851  0.85843123  1  -1.11807  0.124079  -0.329619  -0.545403  0.063955  2.167362  0.099
O  O260  1  0.25330414  0.70570183  0.29260561  1  -1.132764  0.07149  -0.314019  -0.535077  0.036706  2.146504  0.064
O  O261  1  0.74664375  0.20567101  0.20739156  1  -1.132859  0.071525  -0.314051  -0.535103  0.036718  2.146509  0.064
O  O262  1  0.74376930  0.29037688  0.70687456  1  -1.134949  0.072155  -0.314109  -0.538738  0.03695  2.140657  0.064
O  O263  1  0.25621679  0.79039845  0.79312224  1  -1.134949  0.072128  -0.314131  -0.538802  0.036938  2.140682  0.064
O  O264  1  0.66989821  0.69314532  0.34040142  1  -1.138779  0.064217  -0.302858  -0.537395  0.034616  2.369908  0.051
O  O265  1  0.33003960  0.19314535  0.15958186  1  -1.138432  0.064157  -0.302844  -0.537448  0.034599  2.370442  0.051
O  O266  1  0.32848658  0.31241869  0.66025873  1  -1.150687  0.075923  -0.304937  -0.534846  0.040268  2.378818  0.061
O  O267  1  0.67150740  0.81240781  0.83974802  1  -1.151088  0.07594  -0.304973  -0.534885  0.040275  2.378988  0.061
O  O268  1  0.57270716  0.85883976  0.24852487  1  -1.145874  -0.086097  -0.320536  -0.567534  -0.045863  2.387538  -0.067
O  O269  1  0.42728367  0.35881712  0.25146249  1  -1.145983  -0.08613  -0.320738  -0.567658  -0.045884  2.387436  -0.067
O  O270  1  0.42944773  0.14052038  0.75163297  1  -1.145356  0.081487  -0.318444  -0.564  0.042465  2.391035  0.064
O  O271  1  0.57056852  0.64051641  0.74837449  1  -1.145576  0.081464  -0.318363  -0.563844  0.042457  2.390728  0.064
O  O272  1  0.76341882  0.71453329  0.27092145  1  -1.180815  -0.057788  -0.319754  -0.614434  -0.032054  2.42136  -0.047
O  O273  1  0.23655996  0.21452464  0.22907349  1  -1.180771  -0.057812  -0.319906  -0.614439  -0.032062  2.420969  -0.047
O  O274  1  0.23639502  0.28554700  0.72921176  1  -1.182496  0.062019  -0.317135  -0.610375  0.033493  2.417119  0.051
O  O275  1  0.76358521  0.78555728  0.77079028  1  -1.182742  0.062045  -0.317055  -0.610273  0.033503  2.417047  0.051
O  O276  1  0.47453292  0.80798956  0.30974781  1  -1.146609  0.069511  -0.306653  -0.571047  0.038488  2.496331  0.055
O  O277  1  0.52547457  0.30798684  0.19023845  1  -1.146274  0.069491  -0.306725  -0.571118  0.038478  2.496266  0.055
O  O278  1  0.51249173  0.19305587  0.68734949  1  -1.144069  0.092549  -0.305285  -0.569673  0.050362  2.502448  0.076
O  O279  1  0.48749763  0.69305579  0.81264802  1  -1.144327  0.092561  -0.305322  -0.569642  0.050369  2.502517  0.076
O  O280  1  0.52533656  0.13135806  0.24238960  1  -1.136868  0.071367  -0.298478  -0.541077  0.03868  2.452807  0.058
O  O281  1  0.47461413  0.63137319  0.25759690  1  -1.136769  0.071402  -0.298602  -0.541147  0.038698  2.45234  0.058
O  O282  1  0.47303879  0.86771751  0.75586395  1  -1.144972  0.090582  -0.301248  -0.547592  0.048063  2.452933  0.074
O  O283  1  0.52697456  0.36770343  0.74414650  1  -1.144538  0.090601  -0.301372  -0.547773  0.048074  2.452216  0.074
O  O284  1  0.05890659  0.88621021  0.41625348  1  -1.067825  -1.4e-05  -0.185439  -0.150884  -8e-06  2.588567  0.0
O  O285  1  0.94110116  0.38621110  0.08375030  1  -1.067927  -1.4e-05  -0.185426  -0.15079  -8e-06  2.588509  0.0
O  O286  1  0.94019990  0.11414599  0.58219352  1  -1.062568  2.1e-05  -0.186731  -0.151006  1.5e-05  2.591493  0.0
O  O287  1  0.05980934  0.61413367  0.91779258  1  -1.061816  2.1e-05  -0.186854  -0.151057  1.5e-05  2.591295  0.0
O  O288  1  0.30441183  0.71174716  0.56529711  1  -1.066735  0.000522  -0.18635  -0.163713  0.000253  2.586566  0.0
O  O289  1  0.69560745  0.21175015  0.93470768  1  -1.066792  0.000523  -0.186368  -0.163806  0.000253  2.586622  0.0
O  O290  1  0.69531000  0.28824949  0.43555051  1  -1.069421  -0.000549  -0.185653  -0.164264  -0.000278  2.586415  0.0
O  O291  1  0.30466206  0.78822316  0.06445894  1  -1.069033  -0.000549  -0.18558  -0.164222  -0.000278  2.586306  0.0
O  O292  1  0.26504921  0.64140469  0.64680747  1  -1.069739  1.6e-05  -0.184013  -0.162004  -6.1e-05  2.609654  0.0
O  O293  1  0.73497299  0.14140967  0.85319702  1  -1.070451  1.6e-05  -0.183894  -0.161807  -6.1e-05  2.609413  0.0
O  O294  1  0.73297262  0.35946201  0.35414651  1  -1.064276  -8.5e-05  -0.184002  -0.161108  2.7e-05  2.609867  0.0
O  O295  1  0.26704849  0.85945378  0.14585686  1  -1.064508  -8.5e-05  -0.184107  -0.161216  2.7e-05  2.60985  0.0
O  O296  1  0.96142221  0.09986051  0.48824951  1  -1.061146  -1.9e-05  -0.186607  -0.146636  -9e-06  2.583984  0.0
O  O297  1  0.03857600  0.59986742  0.01173989  1  -1.060402  -1.9e-05  -0.186541  -0.146606  -9e-06  2.584031  0.0
O  O298  1  0.03724956  0.90042129  0.51025919  1  -1.055692  2.7e-05  -0.183326  -0.143835  1.4e-05  2.583867  0.0
O  O299  1  0.96276425  0.40041815  0.98974393  1  -1.055937  2.7e-05  -0.183356  -0.143799  1.4e-05  2.583692  0.0
O  O300  1  0.47245902  0.18925400  0.31079676  1  -1.160624  -0.086817  -0.330774  -0.602754  -0.046506  2.428856  -0.066
O  O301  1  0.52753897  0.68924422  0.18918849  1  -1.159975  -0.086782  -0.330691  -0.602698  -0.046494  2.429641  -0.066
O  O302  1  0.53106108  0.81114022  0.68789048  1  -1.15733  0.081675  -0.330626  -0.598264  0.042792  2.4298  0.063
O  O303  1  0.46895504  0.31113314  0.81212251  1  -1.157594  0.081654  -0.330583  -0.598258  0.042778  2.429187  0.063
O  O304  1  0.53454130  0.82521181  0.14393192  1  -1.228995  -0.040904  -0.566678  -0.761632  -0.021727  2.076825  -0.035
O  O305  1  0.46545509  0.32521205  0.35606315  1  -1.229259  -0.040882  -0.566766  -0.761629  -0.021715  2.076966  -0.035
O  O306  1  0.46524040  0.17296382  0.85580836  1  -1.192198  0.041085  -0.5675  -0.76204  0.021408  2.074204  0.035
O  O307  1  0.53478841  0.67294945  0.64419627  1  -1.192945  0.041076  -0.567574  -0.762669  0.021406  2.073528  0.035
O  O308  1  0.78997689  0.80273524  0.18558934  1  -1.233059  -0.073241  -0.561452  -0.727832  -0.038985  2.084576  -0.055
O  O309  1  0.21002386  0.30273047  0.31440955  1  -1.23368  -0.073223  -0.561477  -0.727872  -0.03898  2.084724  -0.055
O  O310  1  0.20879463  0.19285686  0.81218430  1  -1.232292  0.070337  -0.563972  -0.726522  0.036608  2.085036  0.053
O  O311  1  0.79123394  0.69285290  0.68782199  1  -1.233087  0.070325  -0.564043  -0.72672  0.036599  2.084522  0.053
O  O312  1  0.88401993  0.66808112  0.19147956  1  -1.217353  -0.000543  -0.574297  -0.735658  -3.4e-05  1.922722  0.0
O  O313  1  0.11604096  0.16805825  0.30853880  1  -1.217155  -0.000544  -0.57417  -0.734937  -3.4e-05  1.922872  0.0
O  O314  1  0.11401720  0.32763642  0.80903993  1  -1.237871  0.000428  -0.576218  -0.736651  -2.7e-05  1.919877  0.0
O  O315  1  0.88597047  0.82764354  0.69096034  1  -1.237838  0.000429  -0.576014  -0.736606  -2.6e-05  1.919942  0.0
