# generated using pymatgen
data_CuSiH28C28(N2F3)2
_symmetry_space_group_name_H-M   'P 1'
_cell_length_a   7.97331496
_cell_length_b   13.73689173
_cell_length_c   13.73687868
_cell_angle_alpha   89.62963763
_cell_angle_beta   85.51374673
_cell_angle_gamma   85.51305158
_symmetry_Int_Tables_number   1
_chemical_formula_structural   CuSiH28C28(N2F3)2
_chemical_formula_sum   'Cu1 Si1 H28 C28 N4 F6'
_cell_volume   1495.37352963
_cell_formula_units_Z   1
loop_
 _symmetry_equiv_pos_site_id
 _symmetry_equiv_pos_as_xyz
  1  'x, y, z'
loop_
 _atom_site_type_symbol
 _atom_site_label
 _atom_site_symmetry_multiplicity
 _atom_site_fract_x
 _atom_site_fract_y
 _atom_site_fract_z
 _atom_site_occupancy
 _atom_site_pbe_bader_charge
 _atom_site_pbe_bader_spin_density
 _atom_site_pbe_cm5_charge
 _atom_site_pbe_ddec_charge
 _atom_site_pbe_ddec_spin_density
 _atom_site_pbe_ddec_sum_bond_order
 _atom_site_pbe_magmom
Cu  Cu0  1  0.49999036  0.49999574  0.49999700  1  1.08627  0.570823  0.782708  0.69121  0.733524  2.310704  0.568
Si  Si1  1  0.99998053  0.49999830  0.49999835  1  3.197947  -0.000201  0.242531  1.728028  -0.000386  3.946389  0.0
H  H2  1  0.26026683  0.49999279  0.34340027  1  0.209462  0.002105  0.118755  0.105979  0.001002  1.046541  0.002
H  H3  1  0.26628028  0.49998709  0.17056577  1  0.062514  0.000882  0.105879  0.109948  0.00045  1.065447  0.001
H  H4  1  0.81244365  0.50038330  0.16501293  1  0.036534  0.001045  0.107181  0.112447  0.00053  1.029056  0.001
H  H5  1  0.78164483  0.50023545  0.33915978  1  0.19332  0.002168  0.119607  0.107571  0.001032  1.039436  0.002
H  H6  1  0.18753824  0.49964905  0.83497790  1  0.036223  0.001046  0.107243  0.11257  0.00053  1.028932  0.001
H  H7  1  0.73366647  0.50029427  0.82941642  1  0.063241  0.000882  0.105854  0.109892  0.00045  1.065661  0.001
H  H8  1  0.73969681  0.50013450  0.65658789  1  0.209026  0.002106  0.118672  0.106117  0.001002  1.046497  0.002
H  H9  1  0.21833837  0.49974652  0.66083272  1  0.193073  0.002169  0.119604  0.107465  0.001033  1.039636  0.002
H  H10  1  0.26028594  0.34340686  0.49987030  1  0.208744  0.002107  0.118663  0.105982  0.001003  1.046538  0.002
H  H11  1  0.26631707  0.17057708  0.49970979  1  0.063132  0.000882  0.105892  0.109971  0.00045  1.065615  0.001
H  H12  1  0.81244654  0.16501376  0.50034550  1  0.036413  0.001046  0.107195  0.112428  0.00053  1.029017  0.001
H  H13  1  0.78164610  0.33915944  0.50024153  1  0.193321  0.002169  0.119597  0.107506  0.001033  1.039528  0.002
H  H14  1  0.18754552  0.83498062  0.49960943  1  0.036884  0.001045  0.107181  0.112417  0.00053  1.029087  0.001
H  H15  1  0.73370519  0.82942464  0.50002107  1  0.062454  0.000882  0.105815  0.109921  0.00045  1.065476  0.001
H  H16  1  0.73972371  0.65659335  0.50001179  1  0.209418  0.002104  0.118788  0.105979  0.001002  1.046525  0.002
H  H17  1  0.21834828  0.66083345  0.49975189  1  0.193179  0.002169  0.119604  0.107519  0.001032  1.039454  0.002
H  H18  1  0.76679489  0.56493161  0.94489528  1  0.049061  6e-06  0.100078  0.138155  -1e-06  0.989086  0.0
H  H19  1  0.83623372  0.49929362  0.04544468  1  0.021495  0.000172  0.091088  0.123734  0.000107  1.057171  0.0
H  H20  1  0.78349750  0.43494017  0.94437367  1  0.057512  6e-06  0.10003  0.138035  0.0  0.989461  0.0
H  H21  1  0.21619293  0.56501722  0.05539980  1  0.045957  7e-06  0.100261  0.138172  -0.0  0.989505  0.0
H  H22  1  0.16380938  0.50018454  0.95454225  1  0.021729  0.000172  0.090813  0.123553  0.000107  1.057112  0.0
H  H23  1  0.23347757  0.43502387  0.05530577  1  0.049798  7e-06  0.100032  0.137964  -0.0  0.989605  0.0
H  H24  1  0.78379408  0.94459350  0.43498803  1  0.046329  7e-06  0.100272  0.138215  -0.0  0.989444  0.0
H  H25  1  0.83617091  0.04545035  0.49982466  1  0.021433  0.000172  0.090873  0.123665  0.000107  1.057097  0.0
H  H26  1  0.76649832  0.94468799  0.56498160  1  0.049818  7e-06  0.100022  0.137967  -0.0  0.989624  0.0
H  H27  1  0.23317346  0.05509631  0.43507388  1  0.048876  6e-06  0.100035  0.137919  -1e-06  0.989188  0.0
H  H28  1  0.16374682  0.95454903  0.50071940  1  0.021854  0.000171  0.091111  0.123736  0.000107  1.057272  0.0
H  H29  1  0.21649236  0.05562115  0.56506686  1  0.057358  6e-06  0.100043  0.138018  0.0  0.989493  0.0
C  C30  1  0.38142938  0.50005091  0.30095951  1  0.381951  -0.000795  0.049475  0.09787  -0.001353  3.918578  0.0
C  C31  1  0.38783261  0.50005671  0.19960047  1  0.034846  0.006177  -0.088467  -0.178477  0.004221  3.932246  0.005
C  C32  1  0.54208721  0.50009372  0.14061502  1  -0.006863  -0.003479  0.011437  0.103551  -0.003879  3.909297  -0.002
C  C33  1  0.68382976  0.50023179  0.19720133  1  -0.016541  0.006273  -0.086306  -0.174345  0.004181  3.923614  0.005
C  C34  1  0.66964890  0.50017756  0.29853505  1  0.443095  -0.000593  0.049569  0.095942  -0.000964  3.920207  0.0
C  C35  1  0.56479858  0.49998339  0.03108196  1  -0.034751  -0.000949  0.001542  0.059674  -0.001098  3.806471  0.0
C  C36  1  0.43518757  0.49998544  0.96890685  1  0.04265  -0.000934  0.001487  0.059596  -0.001097  3.806396  0.0
C  C37  1  0.31615226  0.49978961  0.80278809  1  -0.014224  0.006275  -0.086362  -0.174495  0.004182  3.923823  0.005
C  C38  1  0.45789453  0.49994008  0.85937216  1  -0.00825  -0.003481  0.011354  0.103107  -0.00388  3.90995  -0.002
C  C39  1  0.61213158  0.50008591  0.80038976  1  0.033846  0.006178  -0.088201  -0.177877  0.004222  3.932532  0.005
C  C40  1  0.61853983  0.50004206  0.69903006  1  0.381481  -0.000796  0.049469  0.097515  -0.001353  3.919089  0.0
C  C41  1  0.33033319  0.49982340  0.70145448  1  0.442619  -0.000592  0.049535  0.096163  -0.000964  3.920404  0.0
C  C42  1  0.38144364  0.30096482  0.49995847  1  0.382163  -0.000797  0.049676  0.09795  -0.001354  3.91896  0.0
C  C43  1  0.38785114  0.19960577  0.49991590  1  0.033762  0.006179  -0.088338  -0.178206  0.004222  3.932728  0.005
C  C44  1  0.54209092  0.14062252  0.50005909  1  -0.008124  -0.003481  0.011544  0.103363  -0.00388  3.90969  -0.002
C  C45  1  0.68383400  0.19720495  0.50020541  1  -0.01471  0.006276  -0.086435  -0.174507  0.004183  3.923567  0.005
C  C46  1  0.66965400  0.29853894  0.50016771  1  0.442969  -0.000593  0.049582  0.096235  -0.000963  3.920048  0.0
C  C47  1  0.56479454  0.03108738  0.50001525  1  -0.03479  -0.000948  0.001496  0.059713  -0.001096  3.806334  0.0
C  C48  1  0.43518373  0.96891065  0.50001668  1  0.042738  -0.000935  0.001556  0.059673  -0.001098  3.806308  0.0
C  C49  1  0.31615894  0.80279161  0.49976040  1  -0.016238  0.006273  -0.08633  -0.174275  0.004181  3.923561  0.005
C  C50  1  0.45790041  0.85937697  0.49990458  1  -0.007636  -0.00348  0.011437  0.103241  -0.003879  3.909601  -0.002
C  C51  1  0.61215388  0.80039300  0.49994382  1  0.035272  0.006177  -0.088378  -0.178244  0.004221  3.932315  0.005
C  C52  1  0.61856091  0.69903393  0.49994932  1  0.381443  -0.000794  0.049361  0.097817  -0.001352  3.91847  0.0
C  C53  1  0.33034237  0.70145906  0.49981396  1  0.442932  -0.000593  0.049552  0.096008  -0.000964  3.920116  0.0
C  C54  1  0.74653822  0.49978320  0.98971482  1  -0.080662  0.000439  -0.240321  -0.41395  0.000321  3.987946  0.0
C  C55  1  0.25345365  0.50006080  0.01027298  1  -0.070299  0.000439  -0.240319  -0.413612  0.000321  3.987921  0.0
C  C56  1  0.74653110  0.98971998  0.49994284  1  -0.070464  0.000439  -0.24039  -0.413844  0.000321  3.988044  0.0
C  C57  1  0.25344065  0.01027945  0.50022258  1  -0.080465  0.00044  -0.24032  -0.413631  0.000321  3.987875  0.0
N  N58  1  0.51975056  0.50005794  0.35088399  1  -1.204482  0.094585  -0.336951  -0.213763  0.062947  3.586535  0.083
N  N59  1  0.48022920  0.49994157  0.64910565  1  -1.203584  0.094611  -0.336944  -0.213803  0.062966  3.586924  0.083
N  N60  1  0.51975540  0.35088559  0.50005296  1  -1.204223  0.094615  -0.337129  -0.214093  0.062967  3.586895  0.083
N  N61  1  0.48023750  0.64910950  0.49993542  1  -1.204077  0.094588  -0.336874  -0.2138  0.062949  3.586535  0.083
F  F62  1  0.21623327  0.50154507  0.50153787  1  -0.842632  -0.001821  -0.203818  -0.531194  -0.001937  1.350758  -0.001
F  F63  1  0.78372689  0.49845011  0.49845335  1  -0.842728  -0.001822  -0.203835  -0.531257  -0.001937  1.350813  -0.001
F  F64  1  0.99996876  0.58847212  0.41152480  1  -0.834168  0.000188  -0.257073  -0.551718  0.000176  1.060489  0.0
F  F65  1  0.99998148  0.41153035  0.58847379  1  -0.834166  0.000188  -0.257108  -0.551733  0.000176  1.060459  0.0
F  F66  1  0.02722378  0.41157683  0.41157726  1  -0.835023  0.000188  -0.256819  -0.551374  0.000176  1.061245  0.0
F  F67  1  0.97272824  0.58842275  0.58841791  1  -0.835043  0.000188  -0.256778  -0.551304  0.000176  1.061213  0.0
