# generated using pymatgen
data_CuH22C22(NO2)2
_symmetry_space_group_name_H-M   'P 1'
_cell_length_a   10.49153718
_cell_length_b   10.87513175
_cell_length_c   10.87512832
_cell_angle_alpha   105.10818826
_cell_angle_beta   102.06723437
_cell_angle_gamma   102.06740387
_symmetry_Int_Tables_number   1
_chemical_formula_structural   CuH22C22(NO2)2
_chemical_formula_sum   'Cu2 H44 C44 N4 O8'
_cell_volume   1124.88825038
_cell_formula_units_Z   2
loop_
 _symmetry_equiv_pos_site_id
 _symmetry_equiv_pos_as_xyz
  1  'x, y, z'
loop_
 _atom_site_type_symbol
 _atom_site_label
 _atom_site_symmetry_multiplicity
 _atom_site_fract_x
 _atom_site_fract_y
 _atom_site_fract_z
 _atom_site_occupancy
 _atom_site_pbe_cm5_charge
 _atom_site_pbe_ddec_charge
 _atom_site_pbe_ddec_spin_density
 _atom_site_pbe_ddec_sum_bond_order
 _atom_site_pbe_magmom
Cu  Cu0  1  0.99999287  0.99999921  0.99999672  1  0.740376  0.731454  -0.713773  2.229453  -0.547
Cu  Cu1  1  0.49999802  0.99999406  0.00000024  1  0.740347  0.73141  -0.713772  2.229496  -0.547
H  H2  1  0.85340584  0.07983152  0.19166426  1  0.123369  0.108368  -0.000998  1.011226  -0.002
H  H3  1  0.64658601  0.80832738  0.92017537  1  0.123353  0.108244  -0.000998  1.011249  -0.002
H  H4  1  0.14658480  0.92017368  0.80833618  1  0.123343  0.108273  -0.000998  1.011177  -0.002
H  H5  1  0.35340939  0.19165922  0.07982957  1  0.123368  0.10842  -0.000998  1.011194  -0.002
H  H6  1  0.24295737  0.03825167  0.21926600  1  0.118674  0.102995  -0.001329  1.026941  -0.002
H  H7  1  0.25703087  0.78072499  0.96174406  1  0.118633  0.102952  -0.001328  1.026945  -0.002
H  H8  1  0.75702802  0.96174151  0.78072116  1  0.118629  0.102946  -0.001329  1.026921  -0.002
H  H9  1  0.74296586  0.21926655  0.03826055  1  0.118637  0.102969  -0.001329  1.026965  -0.002
H  H10  1  0.02980769  0.79710268  0.23787279  1  0.092397  0.133088  6.9e-05  1.023904  0.0
H  H11  1  0.47019615  0.76212578  0.20290015  1  0.092414  0.133098  6.9e-05  1.023888  0.0
H  H12  1  0.97019503  0.20289678  0.76212673  1  0.092403  0.133088  6.9e-05  1.023907  0.0
H  H13  1  0.52981141  0.23788069  0.79710486  1  0.09243  0.133122  6.9e-05  1.023885  0.0
H  H14  1  0.16248473  0.73966031  0.31151822  1  0.090544  0.125229  -1.7e-05  1.027817  0.0
H  H15  1  0.33751956  0.68848320  0.26034782  1  0.090516  0.125185  -1.7e-05  1.027785  0.0
H  H16  1  0.83751981  0.26034218  0.68848703  1  0.09053  0.125222  -1.7e-05  1.027736  0.0
H  H17  1  0.66248622  0.31152029  0.73965700  1  0.090522  0.125199  -1.7e-05  1.027789  0.0
H  H18  1  0.99494286  0.67253160  0.31391994  1  0.088789  0.117489  -4.1e-05  1.012835  0.0
H  H19  1  0.50506106  0.68608210  0.32747578  1  0.08879  0.117471  -4.1e-05  1.012854  0.0
H  H20  1  0.00505779  0.32746385  0.68607540  1  0.088799  0.117533  -4.1e-05  1.012969  0.0
H  H21  1  0.49494536  0.31392734  0.67253252  1  0.088775  0.117497  -4.1e-05  1.01286  0.0
H  H22  1  0.89503331  0.65141448  0.76641774  1  0.09175  0.1339  7.3e-05  1.023368  0.0
H  H23  1  0.60497529  0.23358313  0.34858947  1  0.091791  0.133878  7.3e-05  1.023346  0.0
H  H24  1  0.10497589  0.34859097  0.23358090  1  0.091783  0.133871  7.3e-05  1.023406  0.0
H  H25  1  0.39502824  0.76641930  0.65141097  1  0.091785  0.133901  7.3e-05  1.0235  0.0
H  H26  1  0.80268512  0.48202003  0.69154368  1  0.087256  0.116746  -4.9e-05  1.031139  0.0
H  H27  1  0.69732639  0.30845778  0.51798622  1  0.08725  0.116697  -5e-05  1.03102  0.0
H  H28  1  0.19732508  0.51798546  0.30845793  1  0.087241  0.116687  -5e-05  1.031077  0.0
H  H29  1  0.30267841  0.69154569  0.48201748  1  0.087239  0.116716  -4.9e-05  1.030982  0.0
H  H30  1  0.97230558  0.53496509  0.68768746  1  0.089572  0.122393  -2e-05  0.998325  0.0
H  H31  1  0.52770213  0.31231591  0.46503848  1  0.089531  0.122301  -2e-05  0.998376  0.0
H  H32  1  0.02770112  0.46503834  0.31231018  1  0.089523  0.122279  -2e-05  0.998331  0.0
H  H33  1  0.47230247  0.68769049  0.53496317  1  0.089523  0.122291  -2e-05  0.998319  0.0
H  H34  1  0.12502377  0.16385681  0.57923054  1  0.110365  0.108125  -5.1e-05  0.987574  0.0
H  H35  1  0.37497093  0.42076227  0.83615372  1  0.110356  0.108106  -5.1e-05  0.987558  0.0
H  H36  1  0.87497624  0.83614354  0.42076316  1  0.110325  0.108047  -5.1e-05  0.987589  0.0
H  H37  1  0.62502333  0.57922728  0.16385266  1  0.110371  0.108151  -5.1e-05  0.98759  0.0
H  H38  1  0.89399625  0.14708002  0.43541668  1  0.110613  0.120247  -0.000582  0.998388  -0.001
H  H39  1  0.60600158  0.56457639  0.85293369  1  0.110562  0.120229  -0.000582  0.998361  -0.001
H  H40  1  0.10600372  0.85292729  0.56458429  1  0.110582  0.120171  -0.000582  0.998398  -0.001
H  H41  1  0.39399408  0.43541120  0.14707063  1  0.110599  0.120256  -0.000582  0.998332  -0.001
H  H42  1  0.30071605  0.10651522  0.46644353  1  0.103762  0.106586  -0.000608  1.057436  -0.001
H  H43  1  0.19927787  0.53354673  0.89348617  1  0.1038  0.106604  -0.000608  1.057352  -0.001
H  H44  1  0.69927973  0.89348402  0.53354353  1  0.103819  0.10662  -0.000608  1.057322  -0.001
H  H45  1  0.80071984  0.46644483  0.10651864  1  0.103767  0.106554  -0.000608  1.05743  -0.001
C  C46  1  0.96309080  0.75567704  0.00162079  1  0.19175  0.571578  0.002804  4.256558  0.004
C  C47  1  0.53690854  0.99837933  0.24432060  1  0.191729  0.571668  0.002805  4.256738  0.004
C  C48  1  0.03691681  0.24432249  0.99837880  1  0.191748  0.571602  0.002804  4.256636  0.004
C  C49  1  0.46308842  0.00162400  0.75568061  1  0.191639  0.571542  0.002804  4.25672  0.004
C  C50  1  0.98241632  0.62269595  0.00124114  1  -0.02089  -0.137592  -0.007532  3.955737  -0.008
C  C51  1  0.51758811  0.99876207  0.37730656  1  -0.020883  -0.137665  -0.007531  3.955809  -0.008
C  C52  1  0.01759232  0.37730749  0.99875320  1  -0.020917  -0.137602  -0.007532  3.955753  -0.008
C  C53  1  0.48241395  0.00124927  0.62270044  1  -0.020878  -0.137676  -0.007531  3.955754  -0.008
C  C54  1  0.03004136  0.60168229  0.12262637  1  -0.016346  0.071932  -0.00153  3.962363  -0.001
C  C55  1  0.46996207  0.87737351  0.39832169  1  -0.016356  0.071947  -0.001529  3.962458  -0.001
C  C56  1  0.96996684  0.39832312  0.87736930  1  -0.016332  0.071913  -0.00153  3.962489  -0.001
C  C57  1  0.53003837  0.12263187  0.60168257  1  -0.016325  0.072002  -0.001531  3.962375  -0.001
C  C58  1  0.95173211  0.52323701  0.87868203  1  -0.016614  0.070344  -0.001602  3.966997  -0.001
C  C59  1  0.54827655  0.12132158  0.47676325  1  -0.016704  0.070231  -0.001602  3.96723  -0.001
C  C60  1  0.04827968  0.47676356  0.12131773  1  -0.016674  0.070237  -0.001603  3.967082  -0.001
C  C61  1  0.45172707  0.87868481  0.52323821  1  -0.016601  0.070336  -0.001603  3.96702  -0.001
C  C62  1  0.95190072  0.08955421  0.25604200  1  0.052373  0.097823  0.001791  3.904595  0.001
C  C63  1  0.54809452  0.74395218  0.91045358  1  0.052383  0.09795  0.001791  3.904932  0.001
C  C64  1  0.04809228  0.91044900  0.74395288  1  0.052369  0.097898  0.00179  3.904818  0.001
C  C65  1  0.45190390  0.25603841  0.08955204  1  0.052337  0.097737  0.00179  3.904715  0.001
C  C66  1  0.17008497  0.06644128  0.27175679  1  0.048458  0.088257  0.001026  3.90773  0.0
C  C67  1  0.32990219  0.72823110  0.93355487  1  0.048427  0.088235  0.001026  3.907554  0.0
C  C68  1  0.82990541  0.93355593  0.72823237  1  0.048464  0.088302  0.001027  3.907602  0.0
C  C69  1  0.67008900  0.27175440  0.06644436  1  0.048519  0.088319  0.001028  3.90765  0.0
C  C70  1  0.05563939  0.70845462  0.25245759  1  -0.239183  -0.399057  -8.4e-05  3.952898  0.0
C  C71  1  0.44436396  0.74754309  0.29155521  1  -0.239186  -0.399008  -8.4e-05  3.952858  0.0
C  C72  1  0.94436632  0.29154878  0.74753801  1  -0.239176  -0.399071  -8.5e-05  3.952875  0.0
C  C73  1  0.55563970  0.25246335  0.70845179  1  -0.239194  -0.39909  -8.5e-05  3.952899  0.0
C  C74  1  0.90315216  0.54996286  0.75026474  1  -0.239492  -0.397712  -4.7e-05  3.963759  0.0
C  C75  1  0.59685166  0.24973119  0.45004039  1  -0.239394  -0.397424  -4.7e-05  3.963781  0.0
C  C76  1  0.09685467  0.45003756  0.24972572  1  -0.239383  -0.397395  -4.7e-05  3.963765  0.0
C  C77  1  0.40314962  0.75027721  0.54996939  1  -0.239444  -0.39754  -4.7e-05  3.963735  0.0
C  C78  1  0.10311408  0.13593213  0.47150062  1  -0.067604  -0.037813  0.00444  3.979436  0.002
C  C79  1  0.39688253  0.52849179  0.86407898  1  -0.06752  -0.037702  0.00444  3.979436  0.002
C  C80  1  0.89688353  0.86407015  0.52849310  1  -0.067556  -0.037715  0.00444  3.979345  0.002
C  C81  1  0.60311716  0.47149983  0.13592991  1  -0.067591  -0.03781  0.00444  3.979502  0.002
C  C82  1  0.97599977  0.12760863  0.39322822  1  -0.08233  -0.128283  -0.003769  3.974948  -0.004
C  C83  1  0.52399784  0.60676438  0.87240386  1  -0.082352  -0.128351  -0.00377  3.97507  -0.004
C  C84  1  0.02399841  0.87239568  0.60677072  1  -0.082302  -0.128189  -0.003769  3.97501  -0.004
C  C85  1  0.47599954  0.39322228  0.12760423  1  -0.082337  -0.128335  -0.003769  3.974821  -0.004
C  C86  1  0.20129395  0.10455004  0.40956030  1  -0.086774  -0.126946  -0.003974  3.960683  -0.005
C  C87  1  0.29869862  0.59043091  0.89545315  1  -0.086842  -0.126987  -0.003972  3.960867  -0.005
C  C88  1  0.79869989  0.89544919  0.59042914  1  -0.086818  -0.12698  -0.003974  3.960669  -0.005
C  C89  1  0.70129544  0.40956159  0.10455210  1  -0.086785  -0.126925  -0.003974  3.960667  -0.005
N  N90  1  0.04737041  0.06005390  0.19707753  1  -0.353519  -0.235018  -0.057702  3.642695  -0.074
N  N91  1  0.45262649  0.80291489  0.93994287  1  -0.353399  -0.234919  -0.057699  3.642559  -0.074
N  N92  1  0.95261760  0.93994529  0.80291534  1  -0.353443  -0.235005  -0.0577  3.642578  -0.074
N  N93  1  0.54737578  0.19707568  0.06005431  1  -0.35352  -0.235026  -0.057704  3.642813  -0.074
O  O94  1  0.06936643  0.84214486  0.00257689  1  -0.32228  -0.532514  -0.073359  2.283265  -0.102
O  O95  1  0.43062168  0.99741395  0.15785371  1  -0.322341  -0.532612  -0.073364  2.283227  -0.102
O  O96  1  0.93062972  0.15785934  0.99741335  1  -0.322288  -0.532581  -0.073366  2.283236  -0.102
O  O97  1  0.56937322  0.00258540  0.84214609  1  -0.322246  -0.532485  -0.073367  2.283131  -0.102
O  O98  1  0.85032768  0.77744876  0.00016520  1  -0.324848  -0.565887  -1.9e-05  2.140544  -0.002
O  O99  1  0.64966376  0.99984230  0.22254410  1  -0.324755  -0.565874  -1.7e-05  2.140907  -0.002
O  O100  1  0.14967209  0.22254680  0.99984287  1  -0.324816  -0.565848  -1.7e-05  2.140852  -0.002
O  O101  1  0.35033194  0.00016001  0.77745476  1  -0.32476  -0.565818  -1.7e-05  2.140795  -0.002
