# generated using pymatgen
data_H7PbC6BrN2O3
_symmetry_space_group_name_H-M   'P 1'
_cell_length_a   6.58861850
_cell_length_b   7.49950732
_cell_length_c   19.27702375
_cell_angle_alpha   90.23792056
_cell_angle_beta   90.00172499
_cell_angle_gamma   89.99949575
_symmetry_Int_Tables_number   1
_chemical_formula_structural   H7PbC6BrN2O3
_chemical_formula_sum   'H28 Pb4 C24 Br4 N8 O12'
_cell_volume   952.49637773
_cell_formula_units_Z   4
loop_
 _symmetry_equiv_pos_site_id
 _symmetry_equiv_pos_as_xyz
  1  'x, y, z'
loop_
 _atom_site_type_symbol
 _atom_site_label
 _atom_site_symmetry_multiplicity
 _atom_site_fract_x
 _atom_site_fract_y
 _atom_site_fract_z
 _atom_site_occupancy
 _atom_site_hle17_bader_spin_density
 _atom_site_hle17_ddec_charge
 _atom_site_hle17_ddec_spin_density
 _atom_site_hle17_ddec_sum_bond_order
 _atom_site_hle17_magmom
 _atom_site_hse06_10hf_bader_charge
 _atom_site_hse06_10hf_bader_spin_density
 _atom_site_hse06_10hf_ddec_charge
 _atom_site_hse06_10hf_ddec_spin_density
 _atom_site_hse06_10hf_ddec_sum_bond_order
 _atom_site_hse06_10hf_magmom
 _atom_site_hse06_bader_spin_density
 _atom_site_hse06_ddec_charge
 _atom_site_hse06_ddec_spin_density
 _atom_site_hse06_ddec_sum_bond_order
 _atom_site_hse06_magmom
 _atom_site_pbe_bader_spin_density
 _atom_site_pbe_cm5_charge
 _atom_site_pbe_ddec_charge
 _atom_site_pbe_ddec_spin_density
 _atom_site_pbe_ddec_sum_bond_order
 _atom_site_pbe_magmom
H  H0  1  0.48975236  0.77397648  0.07460430  1  0  0.387625  0  0.933055  0  0.635963  0  0.34345  0  1.017745  0  0  0.355426  0  1.000923  0  0  0.273453  0.335051  0  1.029484  0
H  H1  1  0.98977268  0.22602940  0.42539793  1  0  0.387552  0  0.933194  0  0.636066  0  0.343428  0  1.017789  0  0  0.3554  0  1.000972  0  0  0.273435  0.335029  0  1.029528  0
H  H2  1  0.51025770  0.22599334  0.92539197  1  0  0.387682  0  0.933016  0  0.636086  0  0.343498  0  1.017699  0  0  0.355473  0  1.000876  0  0  0.273477  0.335101  0  1.029436  0
H  H3  1  0.01024498  0.77401604  0.57463022  1  0  0.388038  0  0.932477  0  0.636602  0  0.34388  0  1.017123  0  0  0.35585  0  1.000305  0  0  0.273643  0.335484  0  1.028858  0
H  H4  1  0.61185745  0.85814735  0.14023887  1  0  0.399974  0  0.906598  0  0.616676  0  0.366913  0  0.975714  0  0  0.378216  0  0.959299  0  0  0.256672  0.358857  0  0.987376  0
H  H5  1  0.11191128  0.14189078  0.35978217  1  0  0.399926  0  0.906626  0  0.616677  0  0.366906  0  0.975685  0  0  0.37819  0  0.959289  0  0  0.256701  0.358851  0  0.987348  0
H  H6  1  0.38813136  0.14184295  0.85977317  1  0  0.399902  0  0.90667  0  0.616609  0  0.366852  0  0.975788  0  0  0.378139  0  0.959382  0  0  0.256712  0.358796  0  0.987451  0
H  H7  1  0.88818530  0.85817323  0.64024773  1  0  0.400019  0  0.906553  0  0.61735  0  0.367065  0  0.975499  0  0  0.378331  0  0.959117  0  0  0.256838  0.35901  0  0.987159  0
H  H8  1  0.80312928  0.40798395  0.00161926  1  0  0.112832  0  0.949655  0  0.167995  0  0.117402  0  1.018276  0  0  0.121366  0  1.014881  0  0  0.123618  0.114501  0  1.020817  0
H  H9  1  0.30318853  0.59201012  0.49837916  1  0  0.112909  0  0.949838  0  0.167063  0  0.117481  0  1.018445  0  0  0.121452  0  1.015037  0  0  0.123637  0.114589  0  1.020968  0
H  H10  1  0.19685498  0.59199446  0.99839059  1  0  0.112878  0  0.949526  0  0.167795  0  0.11746  0  1.018145  0  0  0.121429  0  1.014742  0  0  0.123588  0.11456  0  1.020687  0
H  H11  1  0.69683215  0.40799340  0.50161070  1  0  0.112822  0  0.949703  0  0.168097  0  0.117395  0  1.018328  0  0  0.121369  0  1.014907  0  0  0.12361  0.114499  0  1.02086  0
H  H12  1  0.29148911  0.20231045  0.16513652  1  0  0.096659  0  0.945372  0  0.145903  0  0.097346  0  1.021247  0  0  0.10082  0  1.018849  0  0  0.11284  0.094817  0  1.023134  0
H  H13  1  0.79143230  0.79765504  0.33487079  1  0  0.09663  0  0.945379  0  0.145859  0  0.097279  0  1.021364  0  0  0.100758  0  1.018976  0  0  0.112846  0.094746  0  1.023246  0
H  H14  1  0.70851488  0.79767982  0.83487604  1  0  0.096598  0  0.9458  0  0.145968  0  0.09732  0  1.021616  0  0  0.100795  0  1.019219  0  0  0.11284  0.094788  0  1.023501  0
H  H15  1  0.20854589  0.20232727  0.66511679  1  0  0.096657  0  0.945698  0  0.146006  0  0.09738  0  1.021496  0  0  0.100854  0  1.019097  0  0  0.112862  0.094848  0  1.023385  0
H  H16  1  0.11962666  0.22884149  0.98956326  1  0  0.137355  0  0.945514  0  0.104986  0  0.154728  0  1.01165  0  0  0.156872  0  1.010703  0  0  0.099901  0.153183  0  1.012348  0
H  H17  1  0.61969123  0.77114704  0.51044005  1  0  0.13732  0  0.945652  0  0.104835  0  0.154646  0  1.011828  0  0  0.156788  0  1.010881  0  0  0.09989  0.153102  0  1.01253  0
H  H18  1  0.88031662  0.77113434  0.01044501  1  0  0.137331  0  0.945469  0  0.104558  0  0.154647  0  1.011687  0  0  0.156792  0  1.010737  0  0  0.099892  0.153105  0  1.012382  0
H  H19  1  0.38036588  0.22888289  0.48955474  1  0  0.137339  0  0.945326  0  0.105017  0  0.154656  0  1.01157  0  0  0.156805  0  1.010621  0  0  0.099858  0.15311  0  1.012271  0
H  H20  1  0.08693516  0.10082342  0.06737152  1  0  0.1229  0  0.976217  0  0.074286  0  0.138625  0  1.043971  0  0  0.1406  0  1.043791  0  0  0.084209  0.137166  0  1.044136  0
H  H21  1  0.58697638  0.89916455  0.43263674  1  0  0.122694  0  0.976511  0  0.074479  0  0.138464  0  1.044216  0  0  0.140439  0  1.044036  0  0  0.084122  0.137011  0  1.044378  0
H  H22  1  0.91303696  0.89917760  0.93263959  1  0  0.122754  0  0.976378  0  0.074381  0  0.138488  0  1.044139  0  0  0.140462  0  1.04396  0  0  0.084173  0.137034  0  1.044297  0
H  H23  1  0.41304279  0.10084858  0.56737242  1  0  0.122835  0  0.976354  0  0.074367  0  0.138587  0  1.044024  0  0  0.140562  0  1.043847  0  0  0.084167  0.137129  0  1.044189  0
H  H24  1  0.23846508  0.01844138  0.99768897  1  0  0.127028  0  0.944096  0  0.048656  0  0.14788  0  1.003992  0  0  0.149011  0  1.004604  0  0  0.097857  0.147103  0  1.003564  0
H  H25  1  0.73852176  0.98153992  0.50231596  1  0  0.127007  0  0.943974  0  0.048465  0  0.147852  0  1.003896  0  0  0.148976  0  1.004515  0  0  0.097863  0.147078  0  1.003469  0
H  H26  1  0.76150097  0.98154736  0.00232721  1  0  0.126961  0  0.943892  0  0.048284  0  0.147778  0  1.003861  0  0  0.148914  0  1.004468  0  0  0.097812  0.147001  0  1.003435  0
H  H27  1  0.26154142  0.01846346  0.49767649  1  0  0.127124  0  0.943871  0  0.048445  0  0.1479  0  1.003864  0  0  0.149044  0  1.004464  0  0  0.097848  0.147116  0  1.003443  0
Pb  Pb28  1  0.21115533  0.71337290  0.21435822  1  0  1.28729  0  1.51859  0  1.400414  0  1.11044  0  1.933683  0  0  1.17039  0  1.889138  0  0  0.552225  1.067224  0  1.96492  0
Pb  Pb29  1  0.71115123  0.28660687  0.28564549  1  0  1.28711  0  1.518474  0  1.400291  0  1.110244  0  1.933543  0  0  1.170202  0  1.888997  0  0  0.552216  1.067018  0  1.964782  0
Pb  Pb30  1  0.78882134  0.28660889  0.78563869  1  0  1.28713  0  1.51867  0  1.400573  0  1.110251  0  1.933802  0  0  1.170205  0  1.88926  0  0  0.552189  1.067027  0  1.965038  0
Pb  Pb31  1  0.28885732  0.71338042  0.71437274  1  0  1.287227  0  1.518825  0  1.40036  0  1.110382  0  1.933927  0  0  1.170331  0  1.889391  0  0  0.552211  1.067162  0  1.965164  0
C  C32  1  0.71108280  0.38975319  0.10947294  1  0  0.04745  0  3.741569  0  0.575304  0  0.049127  0  3.996145  0  0  0.045531  0  4.01472  0  0  0.112734  0.050946  0  3.984086  0
C  C33  1  0.21105832  0.61020313  0.39052068  1  0  0.04757  0  3.741681  0  0.575824  0  0.049464  0  3.995915  0  0  0.045891  0  4.01448  0  0  0.112938  0.051283  0  3.983856  0
C  C34  1  0.28890905  0.61023161  0.89051777  1  0  0.047685  0  3.741232  0  0.575463  0  0.04914  0  3.99604  0  0  0.045555  0  4.014605  0  0  0.112722  0.050965  0  3.983972  0
C  C35  1  0.78892139  0.38977659  0.60946531  1  0  0.047367  0  3.741794  0  0.575977  0  0.049196  0  3.996128  0  0  0.045636  0  4.014661  0  0  0.112763  0.051016  0  3.984076  0
C  C36  1  0.68764387  0.36340184  0.03825356  1  0  0.090505  0  3.64828  0  0.493531  0  0.049785  0  3.907476  0  0  0.054713  0  3.922694  0  0  0.062411  0.04626  0  3.89812  0
C  C37  1  0.18765132  0.63658845  0.46174993  1  0  0.090349  0  3.648642  0  0.49427  0  0.049577  0  3.90774  0  0  0.054499  0  3.922962  0  0  0.062417  0.046016  0  3.898452  0
C  C38  1  0.31235861  0.63658664  0.96174290  1  0  0.090271  0  3.647839  0  0.493301  0  0.049604  0  3.907108  0  0  0.054522  0  3.922332  0  0  0.062409  0.046057  0  3.897774  0
C  C39  1  0.81235723  0.36343192  0.53824892  1  0  0.090284  0  3.648652  0  0.49265  0  0.049563  0  3.907829  0  0  0.054468  0  3.923053  0  0  0.062379  0.046021  0  3.898497  0
C  C40  1  0.37793645  0.22605741  0.05641751  1  0  0.297716  0  3.680612  0  0.559447  0  0.301057  0  3.9311  0  0  0.308883  0  3.947864  0  0  0.143011  0.295754  0  3.919867  0
C  C41  1  0.87794383  0.77394389  0.44358049  1  0  0.297586  0  3.680589  0  0.559675  0  0.300914  0  3.931176  0  0  0.308729  0  3.94796  0  0  0.14298  0.295622  0  3.919931  0
C  C42  1  0.62207514  0.77393947  0.94359616  1  0  0.297569  0  3.680719  0  0.55993  0  0.301  0  3.931135  0  0  0.308821  0  3.947903  0  0  0.142968  0.2957  0  3.919894  0
C  C43  1  0.12203739  0.22607047  0.55640636  1  0  0.297575  0  3.680313  0  0.558814  0  0.301174  0  3.930564  0  0  0.308985  0  3.94734  0  0  0.142967  0.295871  0  3.919326  0
C  C44  1  0.40461130  0.25077133  0.12828432  1  0  0.038532  0  3.638315  0  0.512287  0  0.005849  0  3.896244  0  0  0.006904  0  3.912438  0  0  0.062602  0.004791  0  3.8858  0
C  C45  1  0.90458971  0.74919548  0.37171372  1  0  0.038776  0  3.637572  0  0.511853  0  0.006082  0  3.895508  0  0  0.007113  0  3.911735  0  0  0.062657  0.005037  0  3.885046  0
C  C46  1  0.59540938  0.74920380  0.87171252  1  0  0.038633  0  3.637938  0  0.511956  0  0.005868  0  3.895905  0  0  0.006923  0  3.912102  0  0  0.062596  0.004816  0  3.885459  0
C  C47  1  0.09540365  0.25079567  0.62828277  1  0  0.038619  0  3.638147  0  0.511924  0  0.005821  0  3.896096  0  0  0.006873  0  3.9123  0  0  0.062696  0.004766  0  3.885653  0
C  C48  1  0.89536066  0.48299236  0.13846907  1  0  0.617003  0  3.944531  0  1.598286  0  0.563277  0  4.240762  0  0  0.598462  0  4.234779  0  0  0.21133  0.539375  0  4.243995  0
C  C49  1  0.39535242  0.51692943  0.36152164  1  0  0.616746  0  3.944934  0  1.597002  0  0.562963  0  4.241111  0  0  0.59814  0  4.235142  0  0  0.211244  0.539063  0  4.244352  0
C  C50  1  0.10459021  0.51696756  0.86151309  1  0  0.616405  0  3.945692  0  1.597865  0  0.562792  0  4.241848  0  0  0.597965  0  4.235875  0  0  0.211048  0.538901  0  4.245074  0
C  C51  1  0.60467282  0.48305752  0.63847843  1  0  0.616924  0  3.944749  0  1.59774  0  0.563174  0  4.24091  0  0  0.598343  0  4.234938  0  0  0.211258  0.539274  0  4.244159  0
C  C52  1  0.19429139  0.13892078  0.02661534  1  0  -0.382377  0  3.686885  0  -0.064714  0  -0.461569  0  3.919429  0  0  -0.465535  0  3.927115  0  0  -0.241587  -0.458512  0  3.914008  0
C  C53  1  0.69432373  0.86106816  0.47338927  1  0  -0.382028  0  3.687231  0  -0.064388  0  -0.461179  0  3.919737  0  0  -0.465134  0  3.927424  0  0  -0.24146  -0.45814  0  3.914324  0
C  C54  1  0.80568377  0.86108444  0.97339218  1  0  -0.382018  0  3.687163  0  -0.064331  0  -0.461139  0  3.919625  0  0  -0.465119  0  3.927323  0  0  -0.24143  -0.458101  0  3.91423  0
C  C55  1  0.30568936  0.13894679  0.52661108  1  0  -0.382445  0  3.686566  0  -0.064979  0  -0.461591  0  3.919083  0  0  -0.465573  0  3.92676  0  0  -0.241552  -0.458529  0  3.913676  0
Br  Br56  1  0.89332567  0.98921628  0.19028755  1  0  -0.621506  0  0.928361  0  -0.64967  0  -0.548434  0  1.203196  0  0  -0.573253  0  1.183136  0  0  -0.214929  -0.530407  0  1.217092  0
Br  Br57  1  0.39330308  0.01077207  0.30968097  1  0  -0.621526  0  0.92841  0  -0.64963  0  -0.548445  0  1.203255  0  0  -0.57329  0  1.183224  0  0  -0.214922  -0.530427  0  1.217154  0
Br  Br58  1  0.10662975  0.01078996  0.80970130  1  0  -0.621483  0  0.928419  0  -0.649767  0  -0.548412  0  1.203257  0  0  -0.573224  0  1.183171  0  0  -0.214904  -0.53039  0  1.217151  0
Br  Br59  1  0.60665234  0.98924733  0.69028674  1  0  -0.621483  0  0.928286  0  -0.649698  0  -0.548496  0  1.20312  0  0  -0.573309  0  1.183037  0  0  -0.214939  -0.530477  0  1.217014  0
N  N60  1  0.56959843  0.32969107  0.15402728  1  0  -0.289811  0  3.228229  0  -1.258702  0  -0.233026  0  3.481121  0  0  -0.244974  0  3.501863  0  0  -0.276633  -0.224503  0  3.467113  0
N  N61  1  0.06960022  0.67025882  0.34596790  1  0  -0.290264  0  3.228366  0  -1.258837  0  -0.233535  0  3.481231  0  0  -0.245494  0  3.501985  0  0  -0.276875  -0.225012  0  3.467221  0
N  N62  1  0.43039038  0.67031203  0.84597036  1  0  -0.290028  0  3.228463  0  -1.258438  0  -0.233135  0  3.481393  0  0  -0.245091  0  3.502144  0  0  -0.276648  -0.224613  0  3.467381  0
N  N63  1  0.93040226  0.32971016  0.65401954  1  0  -0.289956  0  3.22856  0  -1.258481  0  -0.233202  0  3.481427  0  0  -0.245163  0  3.502169  0  0  -0.276804  -0.224686  0  3.467425  0
N  N64  1  0.52357807  0.28074396  0.01245022  1  0  -0.317095  0  3.106605  0  -1.265612  0  -0.256715  0  3.347012  0  0  -0.269565  0  3.361377  0  0  -0.285782  -0.248002  0  3.337319  0
N  N65  1  0.02360736  0.71926428  0.48754488  1  0  -0.317047  0  3.106923  0  -1.265618  0  -0.256682  0  3.347375  0  0  -0.269525  0  3.361739  0  0  -0.285843  -0.247974  0  3.33769  0
N  N66  1  0.47643654  0.71924951  0.98755251  1  0  -0.316823  0  3.10662  0  -1.265508  0  -0.256479  0  3.34701  0  0  -0.269318  0  3.361374  0  0  -0.285678  -0.247757  0  3.337308  0
N  N67  1  0.97639664  0.28076468  0.51244315  1  0  -0.316586  0  3.106907  0  -1.264363  0  -0.256419  0  3.347372  0  0  -0.269244  0  3.361727  0  0  -0.285608  -0.247697  0  3.337673  0
O  O68  1  0.91461529  0.48722082  0.20498357  1  0  -0.682962  0  2.07348  0  -1.189395  0  -0.602576  0  2.31827  0  0  -0.637717  0  2.311616  0  0  -0.29216  -0.577695  0  2.321987  0
O  O69  1  0.41458081  0.51277152  0.29501227  1  0  -0.682748  0  2.074136  0  -1.189205  0  -0.602342  0  2.318909  0  0  -0.637482  0  2.312271  0  0  -0.292026  -0.577446  0  2.322579  0
O  O70  1  0.08536897  0.51281759  0.79500249  1  0  -0.682572  0  2.074369  0  -1.18891  0  -0.602172  0  2.31904  0  0  -0.637346  0  2.312486  0  0  -0.291909  -0.577268  0  2.322679  0
O  O71  1  0.58541407  0.48724521  0.70497980  1  0  -0.682837  0  2.074307  0  -1.189561  0  -0.602442  0  2.319087  0  0  -0.637586  0  2.312466  0  0  -0.292062  -0.577538  0  2.322728  0
O  O72  1  0.02003697  0.55350849  0.09741489  1  0  -0.609849  0  1.92947  0  -1.204339  0  -0.554917  0  2.154172  0  0  -0.582679  0  2.148412  0  0  -0.299339  -0.535221  0  2.157417  0
O  O73  1  0.51996638  0.44637246  0.40259032  1  0  -0.609666  0  1.929608  0  -1.203412  0  -0.55477  0  2.154377  0  0  -0.58252  0  2.148588  0  0  -0.299372  -0.535056  0  2.157573  0
O  O74  1  0.97995943  0.44647370  0.90257476  1  0  -0.6096  0  1.930211  0  -1.204351  0  -0.554704  0  2.154872  0  0  -0.582447  0  2.149096  0  0  -0.299252  -0.535  0  2.158075  0
O  O75  1  0.48004217  0.55366053  0.59742163  1  0  -0.609759  0  1.929249  0  -1.203742  0  -0.554872  0  2.153993  0  0  -0.582639  0  2.148237  0  0  -0.299366  -0.535153  0  2.157187  0
O  O76  1  0.47950521  0.81131446  0.12475048  1  0  -0.859287  0  1.889087  0  -1.30126  0  -0.788644  0  2.081345  0  0  -0.813471  0  2.049679  0  0  -0.582522  -0.770698  0  2.103416  0
O  O77  1  0.97954057  0.18869265  0.37525214  1  0  -0.85918  0  1.889337  0  -1.301434  0  -0.788597  0  2.081544  0  0  -0.813392  0  2.049915  0  0  -0.582515  -0.770646  0  2.103601  0
O  O78  1  0.52049423  0.18867638  0.87525171  1  0  -0.859181  0  1.88925  0  -1.301331  0  -0.788555  0  2.08151  0  0  -0.813353  0  2.049903  0  0  -0.58251  -0.770614  0  2.103583  0
O  O79  1  0.02050592  0.81130363  0.62477241  1  0  -0.859553  0  1.889121  0  -1.302533  0  -0.789001  0  2.081298  0  0  -0.813774  0  2.049737  0  0  -0.582707  -0.771065  0  2.103383  0
