# generated using pymatgen
data_CuPH5C5O4
_symmetry_space_group_name_H-M   'P 1'
_cell_length_a   7.63458161
_cell_length_b   7.45406725
_cell_length_c   11.64529775
_cell_angle_alpha   89.99991624
_cell_angle_beta   103.25901187
_cell_angle_gamma   89.99993217
_symmetry_Int_Tables_number   1
_chemical_formula_structural   CuPH5C5O4
_chemical_formula_sum   'Cu4 P4 H20 C20 O16'
_cell_volume   645.05261880
_cell_formula_units_Z   4
loop_
 _symmetry_equiv_pos_site_id
 _symmetry_equiv_pos_as_xyz
  1  'x, y, z'
loop_
 _atom_site_type_symbol
 _atom_site_label
 _atom_site_symmetry_multiplicity
 _atom_site_fract_x
 _atom_site_fract_y
 _atom_site_fract_z
 _atom_site_occupancy
 _atom_site_hle17_ddec_charge
 _atom_site_hle17_ddec_spin_density
 _atom_site_hle17_ddec_sum_bond_order
 _atom_site_hle17_magmom
 _atom_site_hse06_10hf_ddec_charge
 _atom_site_hse06_10hf_ddec_spin_density
 _atom_site_hse06_10hf_ddec_sum_bond_order
 _atom_site_hse06_10hf_magmom
 _atom_site_hse06_ddec_charge
 _atom_site_hse06_ddec_spin_density
 _atom_site_hse06_ddec_sum_bond_order
 _atom_site_hse06_magmom
 _atom_site_pbe_cm5_charge
 _atom_site_pbe_ddec_charge
 _atom_site_pbe_ddec_spin_density
 _atom_site_pbe_ddec_sum_bond_order
 _atom_site_pbe_magmom
Cu  Cu0  1  0.41814895  0.30954433  0.47358637  1  1.101386  0.711046  1.610149  0.535  1.116572  0.822659  1.983151  0.673  1.19336  0.89166  1.92774  0.755  0.743426  1.056938  0.75911  2.034774  0.609
Cu  Cu1  1  0.08185427  0.80954667  0.52641169  1  1.10124  -0.711042  1.610294  -0.535  1.116513  -0.822645  1.983077  -0.673  1.19325  -0.891658  1.92784  -0.755  0.743398  1.056901  -0.75911  2.034793  -0.609
Cu  Cu2  1  0.58185206  0.69045300  0.52641218  1  1.101302  -0.711047  1.610222  -0.535  1.116544  -0.822656  1.983086  -0.673  1.193295  -0.891661  1.927783  -0.755  0.743403  1.056913  -0.759111  2.034778  -0.609
Cu  Cu3  1  0.91815078  0.19045468  0.47358918  1  1.101293  0.711046  1.610235  0.535  1.116556  0.822648  1.983101  0.673  1.193287  0.891654  1.9278  0.755  0.743406  1.05691  0.759107  2.034795  0.609
P  P4  1  0.30549468  0.95095543  0.35827471  1  1.461768  -0.003241  4.827047  0.0  1.32578  -0.004564  5.318656  -0.002  1.384733  -0.00328  5.274757  -0.002  0.341186  1.28349  -0.005584  5.346852  -0.002
P  P5  1  0.19450697  0.45095835  0.64172470  1  1.461616  0.00324  4.827042  0.0  1.32564  0.004565  5.318606  0.002  1.384595  0.003282  5.274701  0.002  0.341111  1.283337  0.005585  5.346794  0.002
P  P6  1  0.69450498  0.04904458  0.64172364  1  1.461687  0.003239  4.826994  0.0  1.325703  0.004565  5.318593  0.002  1.384658  0.003281  5.274698  0.002  0.341151  1.2834  0.005585  5.346774  0.002
P  P7  1  0.80549270  0.54904435  0.35827623  1  1.461688  -0.00324  4.826963  0.0  1.325719  -0.004565  5.318582  -0.002  1.384675  -0.003282  5.274677  -0.002  0.341163  1.28342  -0.005584  5.34677  -0.002
H  H8  1  0.99832743  0.14453234  0.21988856  1  0.119301  -9.6e-05  0.946271  0.0  0.128574  -0.000122  1.007718  0.0  0.131213  -0.000105  1.006312  0.0  0.108981  0.126664  -0.000129  1.008867  0.0
H  H9  1  0.50167280  0.64453287  0.78011418  1  0.11932  9.9e-05  0.946316  0.0  0.128587  0.000122  1.007776  0.0  0.131226  0.000105  1.006369  0.0  0.108993  0.126685  0.000129  1.008904  0.0
H  H10  1  0.00166954  0.85546902  0.78011111  1  0.119325  9.5e-05  0.9463  0.0  0.128582  0.000122  1.007756  0.0  0.13122  0.000105  1.006351  0.0  0.108986  0.12667  0.000129  1.008901  0.0
H  H11  1  0.49832822  0.35546714  0.21988781  1  0.119316  -9.7e-05  0.94632  0.0  0.128587  -0.000122  1.00776  0.0  0.131224  -0.000106  1.006355  0.0  0.108991  0.126676  -0.000129  1.008904  0.0
H  H12  1  0.37601781  0.74218904  0.16086034  1  0.094019  -1.4e-05  0.982984  0.0  0.102857  4e-05  1.046689  0.0  0.104548  3.1e-05  1.047961  0.0  0.098048  0.101595  4.7e-05  1.04601  0.0
H  H13  1  0.12398013  0.24218893  0.83913871  1  0.094008  1.2e-05  0.982943  0.0  0.102842  -4e-05  1.04667  0.0  0.104533  -3.1e-05  1.047942  0.0  0.098033  0.101577  -4.7e-05  1.04599  0.0
H  H14  1  0.62397916  0.25781365  0.83913847  1  0.094041  1.2e-05  0.982947  0.0  0.102871  -4e-05  1.046664  0.0  0.104563  -3.1e-05  1.047935  0.0  0.098056  0.101606  -4.7e-05  1.045982  0.0
H  H15  1  0.87601955  0.75780706  0.16086479  1  0.094033  -1.2e-05  0.982965  0.0  0.102864  4e-05  1.046676  0.0  0.104556  3.1e-05  1.047946  0.0  0.098042  0.101601  4.7e-05  1.046001  0.0
H  H16  1  0.23046127  0.73934417  0.94717873  1  0.096315  -4.4e-05  0.978159  0.0  0.106316  -4.1e-05  1.041255  0.0  0.108047  -2.5e-05  1.042535  0.0  0.100795  0.1051  -5.6e-05  1.040364  0.0
H  H17  1  0.26953802  0.23934831  0.05281967  1  0.096316  4.6e-05  0.978144  0.0  0.106355  4.1e-05  1.041208  0.0  0.108089  2.5e-05  1.042483  0.0  0.100798  0.105137  5.6e-05  1.040324  0.0
H  H18  1  0.76953704  0.26065315  0.05281856  1  0.096311  4.8e-05  0.97816  0.0  0.106335  4.1e-05  1.041239  0.0  0.108068  2.4e-05  1.042515  0.0  0.100792  0.105117  5.6e-05  1.040358  0.0
H  H19  1  0.73046703  0.76065439  0.94718292  1  0.096335  -4.8e-05  0.978151  0.0  0.106335  -4.1e-05  1.041247  0.0  0.108068  -2.5e-05  1.042523  0.0  0.100791  0.105114  -5.6e-05  1.040363  0.0
H  H20  1  0.13906297  0.42396673  0.34366393  1  0.42988  -0.000568  0.875068  -0.002  0.403119  0.000108  0.93233  -0.001  0.415251  -4.5e-05  0.915115  -0.001  0.29378  0.394479  0.00023  0.944561  -0.001
H  H21  1  0.36093872  0.92396711  0.65633551  1  0.429858  0.000569  0.875098  0.002  0.403098  -0.000108  0.932358  0.001  0.415229  4.6e-05  0.915144  0.001  0.293761  0.394454  -0.00023  0.944591  0.001
H  H22  1  0.86093804  0.57603193  0.65633634  1  0.429885  0.000569  0.875055  0.002  0.403125  -0.000108  0.932315  0.001  0.415257  4.6e-05  0.915102  0.001  0.29378  0.394482  -0.00023  0.944548  0.001
H  H23  1  0.63906632  0.07603156  0.34366450  1  0.429865  -0.000568  0.87509  -0.002  0.403107  0.000107  0.932341  -0.001  0.415238  -4.5e-05  0.915128  -0.001  0.293771  0.394465  0.00023  0.944573  -0.001
H  H24  1  0.30252758  0.55874004  0.34313398  1  0.427828  -0.00017  0.863628  -0.002  0.40233  0.000534  0.928333  0.0  0.413003  0.000349  0.91328  0.0  0.295772  0.394573  0.00067  0.93927  0.0
H  H25  1  0.19747469  0.05874024  0.65686589  1  0.427816  0.000171  0.863644  0.002  0.402318  -0.000534  0.928353  0.0  0.412991  -0.000349  0.913297  0.0  0.295772  0.394558  -0.00067  0.939293  0.0
H  H26  1  0.69747477  0.44125997  0.65686563  1  0.427812  0.00017  0.86365  0.002  0.402314  -0.000534  0.928356  0.0  0.412988  -0.000349  0.913301  0.0  0.295769  0.394554  -0.00067  0.939298  0.0
H  H27  1  0.80253036  0.94125843  0.34313584  1  0.427763  -0.00017  0.863707  -0.002  0.402267  0.000534  0.928425  0.0  0.41294  0.000349  0.913371  0.0  0.295747  0.394513  0.00067  0.939357  0.0
C  C28  1  0.05171681  0.05758044  0.16088335  1  -0.063249  -0.000478  3.668579  -0.001  -0.098506  -0.00044  3.920375  -0.001  -0.097006  -0.000195  3.938556  0.0  -0.073876  -0.099346  -0.000715  3.907989  -0.001
C  C29  1  0.44828951  0.55758836  0.83911884  1  -0.063311  0.000452  3.668477  0.001  -0.098577  0.00044  3.920268  0.001  -0.097076  0.000195  3.938444  0.0  -0.073889  -0.099424  0.000716  3.907863  0.001
C  C30  1  0.94828150  0.94241823  0.83911480  1  -0.063284  0.000484  3.668515  0.001  -0.098507  0.000439  3.920312  0.001  -0.097006  0.000194  3.938494  0.0  -0.073885  -0.099349  0.000716  3.907913  0.001
C  C31  1  0.55171824  0.44241568  0.16088500  1  -0.063303  -0.000485  3.668439  -0.001  -0.098534  -0.00044  3.920278  -0.001  -0.097034  -0.000194  3.938457  0.0  -0.073884  -0.099376  -0.000715  3.907887  -0.001
C  C32  1  0.19690941  0.94544055  0.20378422  1  -0.226445  -0.005891  3.754694  -0.006  -0.195415  -0.003468  4.00645  -0.004  -0.207195  -0.002414  4.02873  -0.003  -0.027192  -0.187146  -0.004248  3.991486  -0.005
C  C33  1  0.30308552  0.44544837  0.79621505  1  -0.226386  0.005893  3.7544  0.006  -0.19532  0.003467  4.006097  0.004  -0.2071  0.002414  4.028376  0.003  -0.027167  -0.187045  0.004249  3.991122  0.005
C  C34  1  0.80308621  0.05455678  0.79621439  1  -0.226461  0.005878  3.754681  0.006  -0.195424  0.003468  4.006418  0.004  -0.207206  0.002414  4.0287  0.003  -0.027193  -0.187144  0.004249  3.991432  0.005
C  C35  1  0.69691146  0.55455835  0.20378720  1  -0.226362  -0.005877  3.754722  -0.006  -0.195351  -0.003468  4.006487  -0.004  -0.207132  -0.002415  4.028769  -0.003  -0.02717  -0.187076  -0.004248  3.991517  -0.005
C  C36  1  0.26244462  0.83016393  0.12581578  1  -0.047137  0.000214  3.74901  0.0  -0.068181  0.000123  3.99693  0.0  -0.068498  0.000146  4.019404  0.0  -0.086192  -0.068089  8.7e-05  3.981896  0.0
C  C37  1  0.23755185  0.33017434  0.87418555  1  -0.047173  -0.000197  3.749098  0.0  -0.068229  -0.000122  3.997007  0.0  -0.068549  -0.000148  4.019488  0.0  -0.086207  -0.068132  -8.7e-05  3.981961  0.0
C  C38  1  0.73755101  0.16983205  0.87418369  1  -0.047162  -0.000184  3.749051  0.0  -0.0682  -0.000123  3.996973  0.0  -0.068518  -0.000147  4.019448  0.0  -0.086219  -0.068106  -8.7e-05  3.981927  0.0
C  C39  1  0.76244784  0.66983103  0.12582140  1  -0.047113  0.000188  3.748922  0.0  -0.068144  0.000123  3.996822  0.0  -0.06846  0.000148  4.019297  0.0  -0.086142  -0.068053  8.7e-05  3.981786  0.0
C  C40  1  0.18150461  0.82803910  0.00730043  1  -0.09234  0.000239  3.706483  0.0  -0.116599  -6.4e-05  3.956051  0.0  -0.119215  -0.000124  3.977465  0.0  -0.082724  -0.114634  3.5e-05  3.941362  0.0
C  C41  1  0.31848916  0.32804378  0.99269621  1  -0.092256  -0.000258  3.706532  0.0  -0.116539  6.3e-05  3.956087  0.0  -0.119156  0.000124  3.977501  0.0  -0.082677  -0.114579  -3.5e-05  3.941401  0.0
C  C42  1  0.81849101  0.17195689  0.99269732  1  -0.092268  -0.00028  3.706539  0.0  -0.116565  6.4e-05  3.956087  0.0  -0.119181  0.000125  3.977502  0.0  -0.082691  -0.114606  -3.5e-05  3.941401  0.0
C  C43  1  0.68150512  0.67196025  0.00730134  1  -0.092419  0.000267  3.706214  0.0  -0.116687  -6.3e-05  3.955786  0.0  -0.119304  -0.000124  3.977201  0.0  -0.082749  -0.114722  3.5e-05  3.941095  0.0
C  C44  1  0.03299786  0.94143663  0.96085412  1  0.049636  0.000465  3.780903  0.001  0.069903  0.000202  4.006935  0.0  0.069607  0.000173  4.029433  0.0  -0.001083  0.070075  0.000226  3.991598  0.0
C  C45  1  0.46699977  0.44144324  0.03914470  1  0.049596  -0.000467  3.78082  -0.001  0.069839  -0.000201  4.006923  0.0  0.069543  -0.000172  4.029421  0.0  -0.001103  0.070012  -0.000226  3.991591  0.0
C  C46  1  0.96699642  0.05855936  0.03914429  1  0.049494  -0.000457  3.780986  -0.001  0.069829  -0.000202  4.006984  0.0  0.069532  -0.000173  4.029483  0.0  -0.001137  0.070002  -0.000226  3.99165  0.0
C  C47  1  0.53299720  0.55856214  0.96085411  1  0.049616  0.000475  3.780967  0.001  0.069924  0.000201  4.007008  0.0  0.069628  0.000171  4.029506  0.0  -0.001149  0.070095  0.000226  3.991674  0.0
O  O48  1  0.44848745  0.10328387  0.37672606  1  -0.840288  0.050847  2.094703  0.069  -0.780186  0.035003  2.377347  0.05  -0.82025  0.028023  2.355173  0.042  -0.376456  -0.750509  0.037943  2.391917  0.052
O  O49  1  0.05151071  0.60328737  0.62326972  1  -0.840219  -0.050842  2.094738  -0.069  -0.780153  -0.035003  2.377348  -0.05  -0.820206  -0.028022  2.3552  -0.042  -0.376447  -0.750474  -0.037943  2.391934  -0.052
O  O50  1  0.55151086  0.89671480  0.62327037  1  -0.840252  -0.050842  2.094749  -0.069  -0.780179  -0.035002  2.377387  -0.05  -0.820233  -0.028022  2.355221  -0.042  -0.376455  -0.750506  -0.037943  2.391971  -0.052
O  O51  1  0.94849030  0.39671398  0.37672883  1  -0.84025  0.050845  2.094688  0.069  -0.780192  0.035003  2.377326  0.05  -0.820242  0.028024  2.355159  0.042  -0.376465  -0.750509  0.037943  2.391907  0.052
O  O52  1  0.16397480  0.99453432  0.43007088  1  -0.88076  -0.061248  2.113746  -0.08  -0.8553  -0.041557  2.459299  -0.058  -0.892073  -0.032306  2.428807  -0.046  -0.390668  -0.825773  -0.046799  2.477947  -0.063
O  O53  1  0.33603082  0.49453589  0.56992821  1  -0.880758  0.061253  2.113704  0.08  -0.855258  0.041557  2.459221  0.058  -0.892044  0.032305  2.428714  0.046  -0.390653  -0.82575  0.046803  2.477906  0.063
O  O54  1  0.83602890  0.00546300  0.56992807  1  -0.880735  0.061252  2.113629  0.08  -0.855277  0.041557  2.459194  0.058  -0.892023  0.032305  2.428632  0.046  -0.390679  -0.825764  0.046803  2.477882  0.063
O  O55  1  0.66397424  0.50546546  0.43007438  1  -0.88081  -0.061249  2.113782  -0.08  -0.855307  -0.041556  2.459279  -0.058  -0.892086  -0.032305  2.428773  -0.046  -0.390685  -0.8258  -0.046799  2.477972  -0.063
O  O56  1  0.39760619  0.76627496  0.38656824  1  -0.849901  -0.053322  2.089513  -0.073  -0.795766  -0.036446  2.384183  -0.053  -0.834168  -0.028822  2.359727  -0.044  -0.37531  -0.766798  -0.04  2.399938  -0.056
O  O57  1  0.10239441  0.26627268  0.61343118  1  -0.849876  0.053328  2.08947  0.073  -0.795741  0.036446  2.384126  0.053  -0.834145  0.028824  2.359675  0.044  -0.375295  -0.766763  0.040003  2.399871  0.056
O  O58  1  0.60239347  0.23372640  0.61343011  1  -0.849912  0.053323  2.089473  0.073  -0.795748  0.036445  2.384136  0.053  -0.834171  0.028824  2.359669  0.044  -0.375295  -0.766774  0.040003  2.399866  0.056
O  O59  1  0.89760660  0.73372598  0.38656909  1  -0.849861  -0.053324  2.089453  -0.073  -0.795723  -0.036446  2.384076  -0.053  -0.834131  -0.028822  2.359637  -0.044  -0.375294  -0.766756  -0.04  2.399836  -0.056
O  O60  1  0.26585001  0.43011365  0.33170481  1  -0.779888  0.076127  1.900887  0.101  -0.745452  0.056617  2.108173  0.08  -0.781285  0.043473  2.07758  0.065  -0.568431  -0.720554  0.063627  2.130273  0.087
O  O61  1  0.23415033  0.93011415  0.66829442  1  -0.779847  -0.076128  1.900936  -0.101  -0.745427  -0.056619  2.108205  -0.08  -0.781251  -0.043473  2.077633  -0.065  -0.568423  -0.720536  -0.063632  2.130324  -0.087
O  O62  1  0.73414965  0.56988502  0.66829526  1  -0.77985  -0.076128  1.900892  -0.101  -0.745438  -0.056619  2.108186  -0.08  -0.781266  -0.043473  2.077608  -0.065  -0.568429  -0.720543  -0.063633  2.130299  -0.087
O  O63  1  0.76585338  0.06988451  0.33170711  1  -0.779794  0.076123  1.900955  0.101  -0.74538  0.056616  2.108269  0.08  -0.781202  0.043471  2.077687  0.065  -0.568391  -0.720477  0.063625  2.130376  0.087
