# generated using pymatgen
data_CdH26(C11O4)3
_symmetry_space_group_name_H-M   'P 1'
_cell_length_a   16.23135641
_cell_length_b   16.23096616
_cell_length_c   27.39672712
_cell_angle_alpha   83.89592958
_cell_angle_beta   83.89472153
_cell_angle_gamma   72.86693617
_symmetry_Int_Tables_number   1
_chemical_formula_structural   CdH26(C11O4)3
_chemical_formula_sum   'Cd4 H104 C132 O48'
_cell_volume   6836.86646133
_cell_formula_units_Z   4
loop_
 _symmetry_equiv_pos_site_id
 _symmetry_equiv_pos_as_xyz
  1  'x, y, z'
loop_
 _atom_site_type_symbol
 _atom_site_label
 _atom_site_symmetry_multiplicity
 _atom_site_fract_x
 _atom_site_fract_y
 _atom_site_fract_z
 _atom_site_occupancy
 _atom_site_pbe_bader_charge
 _atom_site_pbe_bader_spin_density
 _atom_site_pbe_cm5_charge
 _atom_site_pbe_ddec_charge
 _atom_site_pbe_ddec_spin_density
 _atom_site_pbe_ddec_sum_bond_order
 _atom_site_pbe_magmom
Cd  Cd0  1  0.07372372  0.65349131  0.81759956  1  1.303618  0  0.768512  1.007026  0  1.959826  0
Cd  Cd1  1  0.34649031  0.92628557  0.68240425  1  1.303608  0  0.768568  1.007142  0  1.959548  0
Cd  Cd2  1  0.92627940  0.34651277  0.18240373  1  1.30355  0  0.768497  1.00697  0  1.959847  0
Cd  Cd3  1  0.65350764  0.07371456  0.31759552  1  1.303575  0  0.768539  1.007061  0  1.959633  0
H  H4  1  0.32433339  0.67321967  0.90742057  1  0.111337  0  0.102528  0.104996  0  1.011013  0
H  H5  1  0.38709082  0.67428904  0.98635974  1  0.035945  0  0.099175  0.10967  0  1.018559  0
H  H6  1  0.17093178  0.60382666  0.06628209  1  0.077666  0  0.105496  0.120429  0  0.99299  0
H  H7  1  0.10697253  0.60702938  0.98630814  1  0.099325  0  0.108456  0.117426  0  0.987969  0
H  H8  1  0.36477898  0.74082887  0.05825094  1  0.078634  0  0.106208  0.077742  0  0.991545  0
H  H9  1  0.43854502  0.63672273  0.07386986  1  0.060428  0  0.106679  0.081051  0  0.966533  0
H  H10  1  0.35478714  0.63045257  0.20884585  1  0.046993  0  0.101935  0.070511  0  1.008075  0
H  H11  1  0.32222214  0.58555153  0.15950851  1  0.082696  0  0.108076  0.078886  0  1.004178  0
H  H12  1  0.34910543  0.48705439  0.22134675  1  0.100963  0  0.101139  0.111881  0  1.053232  0
H  H13  1  0.39433473  0.34135476  0.25917032  1  0.041589  0  0.103191  0.085151  0  1.017121  0
H  H14  1  0.65594750  0.31069287  0.19304330  1  0.15511  0  0.118602  0.133415  0  0.984475  0
H  H15  1  0.60893704  0.45924118  0.15385153  1  0.122942  0  0.112076  0.130506  0  0.990998  0
H  H16  1  0.22088184  0.73824667  0.13989174  1  0.072511  0  0.109701  0.085644  0  0.969797  0
H  H17  1  0.26461522  0.77996056  0.18650580  1  0.059686  0  0.104859  0.071396  0  1.008401  0
H  H18  1  0.13546366  0.87669492  0.18758725  1  0.077059  0  0.107035  0.117952  0  1.010289  0
H  H19  1  0.04707843  0.02650514  0.20360860  1  0.10378  0  0.1164  0.118983  0  0.979243  0
H  H20  1  0.19699669  0.12814596  0.08588316  1  0.0499  0  0.109985  0.098094  0  0.999845  0
H  H21  1  0.28422412  0.97967067  0.06975654  1  0.09232  0  0.114369  0.128264  0  0.978109  0
H  H22  1  0.49679097  0.69504863  0.14145353  1  0.082002  0  0.106654  0.079123  0  0.982358  0
H  H23  1  0.42806371  0.80143885  0.12499986  1  0.093292  0  0.105145  0.074303  0  0.988055  0
H  H24  1  0.37473796  0.81606828  0.28322874  1  0.05383  0  0.097289  0.106313  0  1.020449  0
H  H25  1  0.44836073  0.90641006  0.32214568  1  0.118787  0  0.105639  0.113568  0  0.995577  0
H  H26  1  0.62764123  0.89534281  0.19498586  1  0.109371  0  0.106148  0.11439  0  0.99126  0
H  H27  1  0.55667210  0.80508186  0.15557174  1  0.067118  0  0.099581  0.109553  0  1.021812  0
H  H28  1  0.44396592  0.22933269  0.27912839  1  0.583978  0  0.337115  0.373191  0  0.884958  0
H  H29  1  0.15493548  0.22290961  0.12837422  1  0.596187  0  0.343218  0.375173  0  0.874182  0
H  H30  1  0.32678387  0.67565444  0.59258018  1  0.11169  0  0.102487  0.104987  0  1.011097  0
H  H31  1  0.32571367  0.61290193  0.51363890  1  0.035986  0  0.099128  0.109673  0  1.018435  0
H  H32  1  0.39616896  0.82907244  0.43372341  1  0.077521  0  0.10553  0.120499  0  0.99298  0
H  H33  1  0.39296354  0.89302827  0.51370045  1  0.099325  0  0.108418  0.117364  0  0.987939  0
H  H34  1  0.25917850  0.63521081  0.44175176  1  0.078646  0  0.106166  0.076092  0  0.993314  0
H  H35  1  0.36328550  0.56145167  0.42612792  1  0.06029  0  0.106749  0.081208  0  0.966381  0
H  H36  1  0.36954338  0.64521637  0.29115494  1  0.047016  0  0.101928  0.070497  0  1.008116  0
H  H37  1  0.41444353  0.67778309  0.34049106  1  0.081952  0  0.108091  0.078859  0  1.004157  0
H  H38  1  0.51294336  0.65089679  0.27864833  1  0.100912  0  0.101107  0.111866  0  1.05319  0
H  H39  1  0.65864645  0.60566471  0.24082962  1  0.041589  0  0.103183  0.085131  0  1.017102  0
H  H40  1  0.68930526  0.34404927  0.30695825  1  0.155243  0  0.118595  0.13339  0  0.984505  0
H  H41  1  0.54075422  0.39106195  0.34614445  1  0.12323  0  0.112043  0.130415  0  0.991013  0
H  H42  1  0.26175557  0.77911795  0.36010947  1  0.072531  0  0.109696  0.085553  0  0.969872  0
H  H43  1  0.22002740  0.73538095  0.31350184  1  0.059862  0  0.104816  0.071397  0  1.008254  0
H  H44  1  0.12330570  0.86454031  0.31242813  1  0.078149  0  0.107062  0.117987  0  1.01019  0
H  H45  1  0.97349864  0.95291766  0.29640657  1  0.103823  0  0.116462  0.119101  0  0.979411  0
H  H46  1  0.87186106  0.80299138  0.41412794  1  0.048647  0  0.110027  0.098182  0  0.99969  0
H  H47  1  0.02033503  0.71577075  0.43025655  1  0.092244  0  0.114229  0.128064  0  0.978077  0
H  H48  1  0.30495990  0.50320080  0.35854888  1  0.081918  0  0.106763  0.07921  0  0.982218  0
H  H49  1  0.19856553  0.57192897  0.37499845  1  0.093403  0  0.105144  0.074327  0  0.98784  0
H  H50  1  0.18394979  0.62525525  0.21677255  1  0.053781  0  0.097302  0.10631  0  1.020321  0
H  H51  1  0.09360000  0.55164095  0.17785642  1  0.118803  0  0.105634  0.113447  0  0.995665  0
H  H52  1  0.10465947  0.37235774  0.30501442  1  0.109364  0  0.10614  0.114374  0  0.991218  0
H  H53  1  0.19493244  0.44331507  0.34442693  1  0.06722  0  0.099543  0.109503  0  1.021714  0
H  H54  1  0.77067389  0.55603042  0.22088019  1  0.584112  0  0.337125  0.373203  0  0.884975  0
H  H55  1  0.77709418  0.84506038  0.37163208  1  0.596198  0  0.343214  0.37505  0  0.874156  0
H  H56  1  0.67565026  0.32678464  0.09258304  1  0.111563  0  0.102451  0.104929  0  1.01106  0
H  H57  1  0.61290322  0.32571345  0.01364194  1  0.035923  0  0.099138  0.10965  0  1.018473  0
H  H58  1  0.82906796  0.39617398  0.93372559  1  0.077652  0  0.105507  0.120431  0  0.993078  0
H  H59  1  0.89301616  0.39297386  0.01370292  1  0.098848  0  0.108448  0.117424  0  0.987746  0
H  H60  1  0.63521960  0.25917228  0.94175020  1  0.078628  0  0.106182  0.076054  0  0.993451  0
H  H61  1  0.56145681  0.36327930  0.92613142  1  0.060457  0  0.10667  0.081126  0  0.966215  0
H  H62  1  0.64521466  0.36954821  0.79115623  1  0.047135  0  0.101933  0.070536  0  1.008093  0
H  H63  1  0.67778031  0.41444784  0.84049288  1  0.082842  0  0.108057  0.078819  0  1.004218  0
H  H64  1  0.65090220  0.51294101  0.77865275  1  0.100903  0  0.101131  0.11187  0  1.053284  0
H  H65  1  0.60567298  0.65863645  0.74082246  1  0.041587  0  0.10326  0.085297  0  1.017167  0
H  H66  1  0.34405902  0.68931103  0.80695105  1  0.154907  0  0.118644  0.133412  0  0.984533  0
H  H67  1  0.39106684  0.54076648  0.84614751  1  0.123098  0  0.112078  0.13042  0  0.991  0
H  H68  1  0.77911921  0.26174750  0.86011147  1  0.072496  0  0.109749  0.085643  0  0.969849  0
H  H69  1  0.73538207  0.22004037  0.81349505  1  0.059745  0  0.104841  0.071408  0  1.008318  0
H  H70  1  0.86453483  0.12330187  0.81241596  1  0.077126  0  0.107037  0.117984  0  1.010363  0
H  H71  1  0.95292582  0.97349107  0.79639870  1  0.104136  0  0.116398  0.118988  0  0.979308  0
H  H72  1  0.80299604  0.87185140  0.91411668  1  0.049408  0  0.109976  0.098076  0  0.999731  0
H  H73  1  0.71576475  0.02032665  0.93024168  1  0.09202  0  0.114322  0.128186  0  0.978194  0
H  H74  1  0.50320769  0.30495870  0.85854691  1  0.081886  0  0.106696  0.079202  0  0.982281  0
H  H75  1  0.57193171  0.19856699  0.87500010  1  0.093399  0  0.105153  0.074364  0  0.987974  0
H  H76  1  0.62525816  0.18394170  0.71677060  1  0.054078  0  0.097275  0.106249  0  1.020419  0
H  H77  1  0.55163601  0.09359848  0.67785406  1  0.118839  0  0.105657  0.113577  0  0.99562  0
H  H78  1  0.37235865  0.10465857  0.80501519  1  0.109379  0  0.106118  0.11435  0  0.991196  0
H  H79  1  0.44332587  0.19492135  0.84442859  1  0.067073  0  0.099582  0.109592  0  1.021768  0
H  H80  1  0.55605458  0.77066063  0.72087454  1  0.583559  0  0.337085  0.373303  0  0.884947  0
H  H81  1  0.84506055  0.77708929  0.87162389  1  0.596134  0  0.343208  0.375147  0  0.874192  0
H  H82  1  0.67321477  0.32434433  0.40741671  1  0.111596  0  0.102443  0.10493  0  1.011114  0
H  H83  1  0.67428050  0.38710191  0.48635722  1  0.03585  0  0.099162  0.109675  0  1.018445  0
H  H84  1  0.60383032  0.17093162  0.56627680  1  0.077472  0  0.105528  0.120514  0  0.993056  0
H  H85  1  0.60704214  0.10697075  0.48630115  1  0.099178  0  0.108472  0.117412  0  0.987909  0
H  H86  1  0.74081756  0.36478996  0.55824552  1  0.078864  0  0.106169  0.076046  0  0.993346  0
H  H87  1  0.63671578  0.43855614  0.57387161  1  0.060135  0  0.106754  0.081178  0  0.96642  0
H  H88  1  0.63045593  0.35478711  0.70884347  1  0.046958  0  0.101916  0.070506  0  1.008117  0
H  H89  1  0.58555512  0.32221934  0.65950745  1  0.08196  0  0.108087  0.078852  0  1.004217  0
H  H90  1  0.48706111  0.34909843  0.72134660  1  0.100863  0  0.10111  0.111823  0  1.053273  0
H  H91  1  0.34136238  0.39432534  0.75917156  1  0.041856  0  0.103263  0.085283  0  1.017117  0
H  H92  1  0.31069060  0.65594336  0.69304496  1  0.154856  0  0.118634  0.133438  0  0.984446  0
H  H93  1  0.45923601  0.60893689  0.65385106  1  0.123061  0  0.112065  0.130423  0  0.991039  0
H  H94  1  0.73822948  0.22088363  0.63988763  1  0.072275  0  0.109775  0.085748  0  0.969844  0
H  H95  1  0.77997252  0.26461193  0.68649237  1  0.059378  0  0.104829  0.071552  0  1.008144  0
H  H96  1  0.87669224  0.13545433  0.68756902  1  0.078079  0  0.10703  0.117931  0  1.010212  0
H  H97  1  0.02650127  0.04708558  0.70359402  1  0.103768  0  0.116444  0.119079  0  0.979365  0
H  H98  1  0.12813309  0.19702158  0.58587463  1  0.048665  0  0.109994  0.098033  0  0.99987  0
H  H99  1  0.97965778  0.28422791  0.56973992  1  0.092103  0  0.114242  0.128068  0  0.978099  0
H  H100  1  0.69504895  0.49679414  0.64145423  1  0.081923  0  0.106671  0.079141  0  0.982353  0
H  H101  1  0.80143756  0.42806472  0.62499957  1  0.09327  0  0.10516  0.074327  0  0.987965  0
H  H102  1  0.81606623  0.37473824  0.78322769  1  0.05402  0  0.097285  0.106293  0  1.020429  0
H  H103  1  0.90641094  0.44835966  0.82214225  1  0.118958  0  0.105627  0.11348  0  0.995628  0
H  H104  1  0.89533661  0.62764610  0.69498343  1  0.1093  0  0.106124  0.11439  0  0.991239  0
H  H105  1  0.80507128  0.55667902  0.65557248  1  0.067144  0  0.09955  0.109512  0  1.021648  0
H  H106  1  0.22933483  0.44395159  0.77912217  1  0.583707  0  0.337162  0.373523  0  0.884793  0
H  H107  1  0.22290269  0.15495072  0.62836277  1  0.595966  0  0.343147  0.375054  0  0.874182  0
C  C108  1  0.17132280  0.64440963  0.89486014  1  1.535034  0  0.183424  0.557351  0  4.262173  0
C  C109  1  0.21150497  0.64081148  0.94196841  1  0.076247  0  -0.029136  -0.049246  0  3.992165  0
C  C110  1  0.29065370  0.65865774  0.94237292  1  -0.086753  0  -0.086374  -0.068257  0  3.995642  0
C  C111  1  0.32581275  0.65942475  0.98668585  1  -0.046533  0  -0.120593  -0.24021  0  4.041826  0
C  C112  1  0.28134424  0.64052137  0.03107301  1  0.421622  0  0.077962  0.259488  0  4.081501  0
C  C113  1  0.20344423  0.61956911  0.03115306  1  -0.092299  0  -0.109254  -0.211666  0  4.022127  0
C  C114  1  0.16855533  0.62086774  0.98693715  1  0.003326  0  -0.084214  -0.07205  0  3.997903  0
C  C115  1  0.37369483  0.68081913  0.08253363  1  0.40478  0  -0.060643  -0.024027  0  3.85555  0
C  C116  1  0.36211850  0.70106064  0.13687085  1  0.073966  0  -0.019557  0.048913  0  3.809862  0
C  C117  1  0.36833959  0.61738737  0.16971714  1  0.409968  0  -0.062798  -0.029952  0  3.852834  0
C  C118  1  0.47593047  0.48225880  0.18438923  1  0.386042  0  0.09553  0.280113  0  4.041543  0
C  C119  1  0.41591712  0.44879796  0.21440841  1  -0.022803  0  -0.111716  -0.215694  0  3.993814  0
C  C120  1  0.44297803  0.36471737  0.23572574  1  -0.054393  0  -0.085086  -0.077822  0  4.039383  0
C  C121  1  0.52883541  0.31365047  0.22811384  1  -0.003237  0  -0.034897  -0.106824  0  4.074676  0
C  C122  1  0.58851444  0.34887512  0.19843466  1  -0.044453  0  -0.064895  -0.039346  0  3.937053  0
C  C123  1  0.56239210  0.43223823  0.17660846  1  0.056771  0  -0.094181  -0.193917  0  3.962718  0
C  C124  1  0.56028394  0.22592940  0.25177847  1  1.467957  0  0.233582  0.576294  0  4.104259  0
C  C125  1  0.27258810  0.76492882  0.14779429  1  0.402501  0  -0.058956  -0.025545  0  3.842589  0
C  C126  1  0.21712121  0.91949840  0.12826200  1  0.466011  0  0.098685  0.28477  0  4.047454  0
C  C127  1  0.14989422  0.93173041  0.16595140  1  -0.021505  0  -0.105139  -0.223349  0  3.993203  0
C  C128  1  0.10037752  0.01542387  0.17499963  1  -0.029462  0  -0.067709  -0.038221  0  3.966176  0
C  C129  1  0.11759093  0.08742681  0.14765979  1  0.045783  0  -0.031547  -0.099484  0  4.066704  0
C  C130  1  0.18421416  0.07389809  0.10946176  1  -0.058244  0  -0.083885  -0.089793  0  4.048034  0
C  C131  1  0.23307990  0.99107949  0.09954127  1  -0.022418  0  -0.097751  -0.190837  0  3.987179  0
C  C132  1  0.06442218  0.17490935  0.15931495  1  1.49222  0  0.23888  0.579545  0  4.0997  0
C  C133  1  0.43221614  0.74073030  0.14807809  1  0.359511  0  -0.063611  -0.025618  0  3.863904  0
C  C134  1  0.46094036  0.80548849  0.21731212  1  0.416405  0  0.075378  0.255038  0  4.081874  0
C  C135  1  0.43094673  0.83304418  0.26452693  1  -0.031758  0  -0.114861  -0.221091  0  4.034765  0
C  C136  1  0.47138573  0.88301263  0.28588375  1  -0.083894  0  -0.084278  -0.07056  0  3.993159  0
C  C137  1  0.54231704  0.90610207  0.26075047  1  0.000674  0  -0.028927  -0.044117  0  3.982717  0
C  C138  1  0.57248681  0.87698367  0.21408848  1  -0.024709  0  -0.084537  -0.066875  0  3.991088  0
C  C139  1  0.53250976  0.82669744  0.19205611  1  -0.069038  0  -0.12072  -0.240777  0  4.04227  0
C  C140  1  0.58272513  0.96352957  0.28306044  1  1.557374  0  0.175569  0.550567  0  4.268483  0
C  C141  1  0.35558011  0.82867389  0.60514500  1  1.534574  0  0.183505  0.557246  0  4.262556  0
C  C142  1  0.35918351  0.78848844  0.55803669  1  0.076125  0  -0.029196  -0.049091  0  3.991897  0
C  C143  1  0.34134117  0.70933892  0.55762978  1  -0.087347  0  -0.086335  -0.068276  0  3.995685  0
C  C144  1  0.34057423  0.67418262  0.51331427  1  -0.046403  0  -0.120537  -0.240159  0  4.041891  0
C  C145  1  0.35947552  0.71865387  0.46892933  1  0.422191  0  0.077885  0.259559  0  4.081454  0
C  C146  1  0.38042646  0.79655809  0.46885243  1  -0.092479  0  -0.109223  -0.211695  0  4.022201  0
C  C147  1  0.37912740  0.83144330  0.51306782  1  0.003842  0  -0.084193  -0.072127  0  3.997996  0
C  C148  1  0.31918590  0.62629948  0.41746739  1  0.404869  0  -0.060633  -0.02291  0  3.855473  0
C  C149  1  0.29893736  0.63788146  0.36312973  1  0.074206  0  -0.019589  0.048737  0  3.809736  0
C  C150  1  0.38261097  0.63166287  0.33028121  1  0.410886  0  -0.062812  -0.029853  0  3.852669  0
C  C151  1  0.51773905  0.52407022  0.31560831  1  0.385972  0  0.095445  0.279773  0  4.041688  0
C  C152  1  0.55120165  0.58408146  0.28558934  1  -0.02276  0  -0.111707  -0.215692  0  3.993716  0
C  C153  1  0.63528378  0.55702162  0.26427403  1  -0.054391  0  -0.08507  -0.077663  0  4.039127  0
C  C154  1  0.68634884  0.47116525  0.27188796  1  -0.002816  0  -0.034992  -0.107128  0  4.074856  0
C  C155  1  0.65112008  0.41148493  0.30156689  1  -0.045018  0  -0.064856  -0.039317  0  3.937054  0
C  C156  1  0.56775615  0.43760704  0.32339025  1  0.056345  0  -0.094049  -0.193508  0  3.96246  0
C  C157  1  0.77407175  0.43971057  0.24822639  1  1.467376  0  0.233606  0.576415  0  4.104289  0
C  C158  1  0.23506940  0.72740750  0.35221377  1  0.402489  0  -0.058881  -0.025303  0  3.842567  0
C  C159  1  0.08050516  0.78288113  0.37175378  1  0.46579  0  0.098658  0.284682  0  4.047212  0
C  C160  1  0.06827294  0.85011086  0.33406441  1  -0.022512  0  -0.105137  -0.223334  0  3.992994  0
C  C161  1  0.98458348  0.89962395  0.32501535  1  -0.028963  0  -0.067873  -0.038465  0  3.966373  0
C  C162  1  0.91258037  0.88240564  0.35235548  1  0.045587  0  -0.031432  -0.099368  0  4.066104  0
C  C163  1  0.92610820  0.81578265  0.39055227  1  -0.056497  0  -0.083923  -0.090029  0  4.047375  0
C  C164  1  0.00892787  0.76691959  0.40047337  1  -0.023059  0  -0.097577  -0.190491  0  3.986949  0
C  C165  1  0.82510298  0.93556914  0.34069252  1  1.492188  0  0.238997  0.579804  0  4.099091  0
C  C166  1  0.25928166  0.56777425  0.35192241  1  0.359234  0  -0.063688  -0.025596  0  3.863637  0
C  C167  1  0.19452800  0.53905057  0.28268689  1  0.416699  0  0.075414  0.254961  0  4.08212  0
C  C168  1  0.16697312  0.56904613  0.23547341  1  -0.032089  0  -0.11486  -0.220939  0  4.03469  0
C  C169  1  0.11699823  0.52861282  0.21411816  1  -0.083861  0  -0.084337  -0.07051  0  3.993121  0
C  C170  1  0.09390193  0.45768347  0.23925102  1  0.007306  0  -0.028906  -0.04413  0  3.982553  0
C  C171  1  0.12302268  0.42750985  0.28591232  1  -0.025277  0  -0.084482  -0.06674  0  3.990823  0
C  C172  1  0.17331529  0.46748224  0.30794233  1  -0.069053  0  -0.120768  -0.240863  0  4.042157  0
C  C173  1  0.03646867  0.41728350  0.21694396  1  1.550837  0  0.175664  0.550515  0  4.268372  0
C  C174  1  0.82866788  0.35559187  0.10514761  1  1.534722  0  0.183387  0.557256  0  4.262541  0
C  C175  1  0.78848182  0.35918872  0.05803853  1  0.075844  0  -0.02924  -0.049192  0  3.991744  0
C  C176  1  0.70933509  0.34134437  0.05763235  1  -0.087455  0  -0.086296  -0.068212  0  3.995514  0
C  C177  1  0.67418061  0.34057790  0.01331768  1  -0.04629  0  -0.120465  -0.239994  0  4.041946  0
C  C178  1  0.71864780  0.35948041  0.96893174  1  0.421926  0  0.077833  0.25939  0  4.081553  0
C  C179  1  0.79655164  0.38043331  0.96885473  1  -0.092046  0  -0.109315  -0.211668  0  4.022235  0
C  C180  1  0.83143603  0.37913541  0.01307011  1  0.004228  0  -0.084161  -0.072126  0  3.997799  0
C  C181  1  0.62630566  0.31918263  0.91746993  1  0.404422  0  -0.060562  -0.02284  0  3.855365  0
C  C182  1  0.63788204  0.29893934  0.86312879  1  0.074187  0  -0.01963  0.048811  0  3.809504  0
C  C183  1  0.63166224  0.38261527  0.83028447  1  0.409608  0  -0.062778  -0.029881  0  3.852827  0
C  C184  1  0.52407397  0.51774310  0.81561119  1  0.385095  0  0.095581  0.280004  0  4.041796  0
C  C185  1  0.58408860  0.55120049  0.78559103  1  -0.022235  0  -0.111729  -0.215648  0  3.993972  0
C  C186  1  0.55703033  0.63527853  0.76426968  1  -0.05446  0  -0.085155  -0.078046  0  4.039649  0
C  C187  1  0.47117493  0.68634488  0.77187968  1  -0.002644  0  -0.035057  -0.106986  0  4.074858  0
C  C188  1  0.41149336  0.65112838  0.80156037  1  -0.044786  0  -0.064838  -0.039283  0  3.937193  0
C  C189  1  0.43761177  0.56776760  0.82338995  1  0.056952  0  -0.094125  -0.193686  0  3.962543  0
C  C190  1  0.43972841  0.77406484  0.74821098  1  1.46785  0  0.233662  0.576619  0  4.103846  0
C  C191  1  0.72740785  0.23506940  0.85220715  1  0.402332  0  -0.058955  -0.025455  0  3.842594  0
C  C192  1  0.78287216  0.08049878  0.87173782  1  0.466074  0  0.098727  0.284872  0  4.047492  0
C  C193  1  0.85010302  0.06826803  0.83405032  1  -0.0218  0  -0.10506  -0.223281  0  3.993129  0
C  C194  1  0.89962358  0.98457522  0.82500404  1  -0.029303  0  -0.067802  -0.038338  0  3.966028  0
C  C195  1  0.88240754  0.91256874  0.85234385  1  0.045591  0  -0.031477  -0.099587  0  4.066568  0
C  C196  1  0.81577920  0.92609967  0.89053912  1  -0.057829  0  -0.08391  -0.089715  0  4.047493  0
C  C197  1  0.76691026  0.00891866  0.90045793  1  -0.022384  0  -0.097727  -0.190831  0  3.987177  0
C  C198  1  0.93557828  0.82508811  0.84068774  1  1.492301  0  0.239016  0.579815  0  4.099723  0
C  C199  1  0.56778055  0.25927575  0.85192289  1  0.359443  0  -0.063625  -0.025681  0  3.863671  0
C  C200  1  0.53905762  0.19451717  0.78268917  1  0.416256  0  0.075385  0.255023  0  4.081887  0
C  C201  1  0.56904934  0.16696329  0.73547400  1  -0.032158  0  -0.114759  -0.220811  0  4.034525  0
C  C202  1  0.52861164  0.11699386  0.71411607  1  -0.083853  0  -0.08434  -0.070689  0  3.99314  0
C  C203  1  0.45768226  0.09390201  0.73924865  1  0.007359  0  -0.028942  -0.044048  0  3.982468  0
C  C204  1  0.42751309  0.12301956  0.78591248  1  -0.024917  0  -0.084529  -0.066804  0  3.990809  0
C  C205  1  0.46748950  0.17330598  0.80794487  1  -0.068917  0  -0.120755  -0.240952  0  4.042227  0
C  C206  1  0.41727286  0.03647426  0.71693949  1  1.550968  0  0.175469  0.55026  0  4.268624  0
C  C207  1  0.64442362  0.17132144  0.39485435  1  1.535373  0  0.183346  0.557032  0  4.262552  0
C  C208  1  0.64081896  0.21150974  0.44196257  1  0.076197  0  -0.029207  -0.049153  0  3.991818  0
C  C209  1  0.65865683  0.29066309  0.44236879  1  -0.087526  0  -0.086326  -0.068224  0  3.995719  0
C  C210  1  0.65942061  0.32582226  0.48668176  1  -0.046298  0  -0.120429  -0.240001  0  4.041969  0
C  C211  1  0.64051737  0.28135341  0.53106814  1  0.422028  0  0.077795  0.259405  0  4.081531  0
C  C212  1  0.61957088  0.20344593  0.53114789  1  -0.092297  0  -0.109267  -0.211839  0  4.022353  0
C  C213  1  0.62087508  0.16855611  0.48693175  1  0.004001  0  -0.084167  -0.072001  0  3.997853  0
C  C214  1  0.68081019  0.37370619  0.58253108  1  0.404745  0  -0.060575  -0.022728  0  3.855489  0
C  C215  1  0.70106195  0.36211957  0.63686736  1  0.074228  0  -0.019629  0.04877  0  3.809617  0
C  C216  1  0.61739029  0.36833944  0.66971607  1  0.410472  0  -0.062777  -0.029841  0  3.852839  0
C  C217  1  0.48226022  0.47592773  0.68438895  1  0.38605  0  0.095478  0.279925  0  4.041635  0
C  C218  1  0.44880212  0.41591267  0.71440752  1  -0.023089  0  -0.111731  -0.21559  0  3.993737  0
C  C219  1  0.36472250  0.44297045  0.73572646  1  -0.054586  0  -0.085129  -0.078037  0  4.039528  0
C  C220  1  0.31365606  0.52882590  0.72811594  1  -0.002522  0  -0.034979  -0.106843  0  4.074786  0
C  C221  1  0.34887581  0.58850895  0.69843552  1  -0.044378  0  -0.06491  -0.039348  0  3.937104  0
C  C222  1  0.43223596  0.56239054  0.67660851  1  0.056657  0  -0.094142  -0.193769  0  3.962755  0
C  C223  1  0.22593561  0.56027786  0.75178263  1  1.467995  0  0.233654  0.576535  0  4.104241  0
C  C224  1  0.76492464  0.27258462  0.64778226  1  0.402954  0  -0.059045  -0.025972  0  3.842948  0
C  C225  1  0.91948890  0.21711468  0.62824315  1  0.466356  0  0.09856  0.284655  0  4.046936  0
C  C226  1  0.93172566  0.14988665  0.66593364  1  -0.022381  0  -0.105056  -0.223238  0  3.993024  0
C  C227  1  0.01541518  0.10038095  0.67498375  1  -0.02857  0  -0.06786  -0.038436  0  3.966323  0
C  C228  1  0.08741833  0.11760417  0.64764446  1  0.045437  0  -0.031499  -0.09957  0  4.066089  0
C  C229  1  0.07388853  0.18422649  0.60944854  1  -0.0563  0  -0.083829  -0.089601  0  4.047476  0
C  C230  1  0.99106559  0.23308253  0.59952544  1  -0.023634  0  -0.097573  -0.19058  0  3.986967  0
C  C231  1  0.17489770  0.06443829  0.65930452  1  1.492673  0  0.238897  0.579556  0  4.099424  0
C  C232  1  0.74072661  0.43222034  0.64807673  1  0.359599  0  -0.063633  -0.02555  0  3.863821  0
C  C233  1  0.80548222  0.46094284  0.71731185  1  0.41625  0  0.075407  0.255096  0  4.08198  0
C  C234  1  0.83303971  0.43094836  0.76452476  1  -0.03213  0  -0.1148  -0.220964  0  4.034697  0
C  C235  1  0.88301076  0.47138592  0.78587999  1  -0.083932  0  -0.084322  -0.070593  0  3.993025  0
C  C236  1  0.90610320  0.54231827  0.76074718  1  0.000968  0  -0.028928  -0.043966  0  3.982391  0
C  C237  1  0.87697981  0.57249018  0.71408721  1  -0.025012  0  -0.084524  -0.066942  0  3.990953  0
C  C238  1  0.82669038  0.53251250  0.69205731  1  -0.068633  0  -0.120703  -0.240799  0  4.042048  0
C  C239  1  0.96353326  0.58272351  0.78305522  1  1.557586  0  0.175726  0.55043  0  4.268094  0
O  O240  1  0.08990394  0.65112118  0.89822979  1  -1.143612  0  -0.349706  -0.5717  0  2.177548  0
O  O241  1  0.21652525  0.64117313  0.85399676  1  -1.166554  0  -0.340036  -0.577459  0  2.131736  0
O  O242  1  0.30841973  0.64041792  0.07685582  1  -1.086874  0  -0.186342  -0.211427  0  2.587832  0
O  O243  1  0.45529734  0.56331203  0.16145975  1  -1.075316  0  -0.171829  -0.192076  0  2.570326  0
O  O244  1  0.63673095  0.18240831  0.24933543  1  -1.114162  0  -0.262349  -0.438161  0  2.183353  0
O  O245  1  0.50253769  0.19014798  0.27886429  1  -1.091606  0  -0.327585  -0.472951  0  2.288574  0
O  O246  1  0.27030565  0.84169920  0.11595556  1  -1.083882  0  -0.170206  -0.191836  0  2.579077  0
O  O247  1  0.09584578  0.24245734  0.14326830  1  -1.088643  0  -0.317054  -0.454556  0  2.280811  0
O  O248  1  0.99315571  0.19002531  0.18274350  1  -1.124122  0  -0.262084  -0.4458  0  2.159582  0
O  O249  1  0.41569903  0.75795549  0.19900554  1  -1.086063  0  -0.186577  -0.214385  0  2.585699  0
O  O250  1  0.64902341  0.98100842  0.25970106  1  -1.145714  0  -0.353381  -0.576628  0  2.144914  0
O  O251  1  0.54908132  0.99401593  0.32385336  1  -1.155215  0  -0.351825  -0.574491  0  2.124289  0
O  O252  1  0.34887071  0.91009501  0.60177791  1  -1.143435  0  -0.349716  -0.571641  0  2.177641  0
O  O253  1  0.35881148  0.78346953  0.64600843  1  -1.166358  0  -0.340085  -0.577474  0  2.132157  0
O  O254  1  0.35957852  0.69158313  0.42314574  1  -1.087286  0  -0.186273  -0.211338  0  2.587283  0
O  O255  1  0.43668745  0.54470418  0.33853690  1  -1.07539  0  -0.171819  -0.191995  0  2.570208  0
O  O256  1  0.81759063  0.36326170  0.25066957  1  -1.11385  0  -0.262245  -0.438093  0  2.183385  0
O  O257  1  0.80985533  0.49745629  0.22114210  1  -1.091544  0  -0.32767  -0.473021  0  2.288612  0
O  O258  1  0.15830754  0.72969818  0.38405724  1  -1.084424  0  -0.170181  -0.191634  0  2.578635  0
O  O259  1  0.75755313  0.90414779  0.35673392  1  -1.088363  0  -0.317069  -0.454498  0  2.280806  0
O  O260  1  0.80999445  0.00683212  0.31725715  1  -1.123948  0  -0.262303  -0.446075  0  2.158936  0
O  O261  1  0.24206269  0.58428701  0.30099363  1  -1.086028  0  -0.186594  -0.214439  0  2.585884  0
O  O262  1  0.01898380  0.35098800  0.24030391  1  -1.14552  0  -0.353502  -0.57668  0  2.144869  0
O  O263  1  0.00598385  0.45092939  0.17615091  1  -1.154864  0  -0.351759  -0.574327  0  2.124141  0
O  O264  1  0.91008492  0.34889015  0.10177717  1  -1.143385  0  -0.34964  -0.571645  0  2.177674  0
O  O265  1  0.78346602  0.35882446  0.14601154  1  -1.16661  0  -0.340008  -0.5774  0  2.132176  0
O  O266  1  0.69158203  0.35958039  0.92314713  1  -1.086631  0  -0.18622  -0.211225  0  2.587465  0
O  O267  1  0.54470709  0.43669107  0.83854170  1  -1.075238  0  -0.171854  -0.191989  0  2.570533  0
O  O268  1  0.36328151  0.81758667  0.75064813  1  -1.11419  0  -0.262333  -0.438255  0  2.183202  0
O  O269  1  0.49748111  0.80984250  0.72112428  1  -1.0912  0  -0.327664  -0.473249  0  2.288423  0
O  O270  1  0.72968776  0.15829983  0.88404379  1  -1.083828  0  -0.170288  -0.191837  0  2.578791  0
O  O271  1  0.90414900  0.75754384  0.85672794  1  -1.088617  0  -0.317081  -0.454606  0  2.280989  0
O  O272  1  0.00684471  0.80997516  0.81726269  1  -1.12396  0  -0.262161  -0.445913  0  2.159499  0
O  O273  1  0.58429704  0.24205078  0.80099437  1  -1.086092  0  -0.186621  -0.214424  0  2.585748  0
O  O274  1  0.35097582  0.01899376  0.74030072  1  -1.145681  0  -0.353386  -0.576586  0  2.144777  0
O  O275  1  0.45091408  0.00598806  0.67614633  1  -1.155113  0  -0.351715  -0.574303  0  2.124455  0
O  O276  1  0.65114204  0.08989880  0.39822358  1  -1.143641  0  -0.349639  -0.571497  0  2.177546  0
O  O277  1  0.64118186  0.21652517  0.35399151  1  -1.166866  0  -0.340006  -0.577386  0  2.132125  0
O  O278  1  0.64041053  0.30843023  0.57685234  1  -1.086726  0  -0.1863  -0.211285  0  2.587182  0
O  O279  1  0.56331186  0.45529808  0.66146086  1  -1.075271  0  -0.171794  -0.192001  0  2.570218  0
O  O280  1  0.18241789  0.63672376  0.74934539  1  -1.11423  0  -0.262376  -0.438265  0  2.18348  0
O  O281  1  0.19015520  0.50252623  0.77886744  1  -1.091628  0  -0.327618  -0.473358  0  2.288417  0
O  O282  1  0.84168587  0.27028804  0.61593477  1  -1.084907  0  -0.17017  -0.191533  0  2.578446  0
O  O283  1  0.24244375  0.09586210  0.64325953  1  -1.08822  0  -0.316907  -0.454368  0  2.280823  0
O  O284  1  0.19000824  0.99317664  0.68273715  1  -1.124225  0  -0.262234  -0.44593  0  2.159228  0
O  O285  1  0.75795199  0.41570071  0.69900554  1  -1.086108  0  -0.186571  -0.214412  0  2.585727  0
O  O286  1  0.98101941  0.64901861  0.75969558  1  -1.145784  0  -0.353526  -0.576662  0  2.144624  0
O  O287  1  0.99401680  0.54908046  0.82384892  1  -1.155405  0  -0.351858  -0.57436  0  2.124088  0
