# generated using pymatgen
data_ZnH18C18(NO)4
_symmetry_space_group_name_H-M   'P 1'
_cell_length_a   10.60115969
_cell_length_b   14.94425871
_cell_length_c   14.94426398
_cell_angle_alpha   119.99617928
_cell_angle_beta   90.00112364
_cell_angle_gamma   90.00113050
_symmetry_Int_Tables_number   1
_chemical_formula_structural   ZnH18C18(NO)4
_chemical_formula_sum   'Zn3 H54 C54 N12 O12'
_cell_volume   2050.45213094
_cell_formula_units_Z   3
loop_
 _symmetry_equiv_pos_site_id
 _symmetry_equiv_pos_as_xyz
  1  'x, y, z'
loop_
 _atom_site_type_symbol
 _atom_site_label
 _atom_site_symmetry_multiplicity
 _atom_site_fract_x
 _atom_site_fract_y
 _atom_site_fract_z
 _atom_site_occupancy
 _atom_site_pbe_bader_charge
 _atom_site_pbe_bader_spin_density
 _atom_site_pbe_cm5_charge
 _atom_site_pbe_ddec_charge
 _atom_site_pbe_ddec_spin_density
 _atom_site_pbe_ddec_sum_bond_order
 _atom_site_pbe_magmom
Zn  Zn0  1  0.66669709  0.18568314  0.37135574  1  1.261978  0  0.71164  0.771713  0  2.429262  0
Zn  Zn1  1  0.99999980  0.18565331  0.81434715  1  1.25619  0  0.71118  0.771329  0  2.429646  0
Zn  Zn2  1  0.33330347  0.62864405  0.81431732  1  1.261979  0  0.711646  0.771724  0  2.429271  0
H  H3  1  0.67293576  0.03437495  0.43661456  1  0.570055  0  0.310673  0.27433  0  1.026506  0
H  H4  1  0.00637591  0.40221385  0.96565430  1  0.570112  0  0.31052  0.274035  0  1.027823  0
H  H5  1  0.99362462  0.03434566  0.59778617  1  0.570121  0  0.31052  0.274054  0  1.027795  0
H  H6  1  0.33962244  0.56343217  0.59781348  1  0.574177  0  0.31055  0.273839  0  1.027384  0
H  H7  1  0.66037907  0.40218708  0.43656764  1  0.574181  0  0.310558  0.273861  0  1.027362  0
H  H8  1  0.32706572  0.56338660  0.96562533  1  0.569982  0  0.310672  0.274337  0  1.026489  0
H  H9  1  0.58095970  0.90601065  0.48923656  1  0.038871  0  0.10341  0.147558  0  0.987614  0
H  H10  1  0.91426416  0.58327498  0.09403766  1  0.050809  0  0.103244  0.147632  0  0.988321  0
H  H11  1  0.08573740  0.90596207  0.41672469  1  0.050781  0  0.103255  0.147634  0  0.98833  0
H  H12  1  0.24754529  0.51076461  0.41674478  1  0.036135  0  0.103057  0.14709  0  0.988458  0
H  H13  1  0.75245623  0.58325546  0.48923561  1  0.036148  0  0.103059  0.147102  0  0.988468  0
H  H14  1  0.41903902  0.51076201  0.09398879  1  0.038872  0  0.103416  0.14757  0  0.987619  0
H  H15  1  0.41544708  0.91164844  0.51266854  1  0.07564  0  0.098758  0.137561  0  0.997841  0
H  H16  1  0.74873433  0.60093280  0.08827612  1  0.064472  0  0.09854  0.137448  0  0.998121  0
H  H17  1  0.25126629  0.91172361  0.39906688  1  0.06446  0  0.098529  0.137422  0  0.998142  0
H  H18  1  0.08202321  0.48733709  0.39899575  1  0.064028  0  0.09873  0.137553  0  0.998021  0
H  H19  1  0.91797737  0.60100450  0.51266311  1  0.063924  0  0.098725  0.137543  0  0.998044  0
H  H20  1  0.58455164  0.48733041  0.08835061  1  0.075668  0  0.098749  0.137572  0  0.997847  0
H  H21  1  0.52085403  0.98436712  0.61566492  1  0.074257  0  0.101858  0.147891  0  0.985615  0
H  H22  1  0.85413636  0.63129164  0.01561347  1  0.06374  0  0.101536  0.147439  0  0.986114  0
H  H23  1  0.14586521  0.98438592  0.36870845  1  0.063754  0  0.101529  0.147437  0  0.986118  0
H  H24  1  0.18743717  0.38434510  0.36872978  1  0.108432  0  0.101726  0.147801  0  0.985546  0
H  H25  1  0.81256340  0.63127007  0.61565545  1  0.108428  0  0.101724  0.147798  0  0.985549  0
H  H26  1  0.47914657  0.38433227  0.01563098  1  0.07422  0  0.101841  0.147893  0  0.985606  0
H  H27  1  0.43569562  0.31902757  0.48551975  1  0.073825  0  0.096331  0.142757  0  1.023693  0
H  H28  1  0.76908709  0.16656139  0.68099502  1  0.075318  0  0.096449  0.14298  0  1.023187  0
H  H29  1  0.23091343  0.31900605  0.83343889  1  0.075333  0  0.096437  0.142958  0  1.023148  0
H  H30  1  0.10243966  0.51440071  0.83350381  1  0.075699  0  0.096393  0.142534  0  1.023725  0
H  H31  1  0.89756089  0.16649662  0.48559901  1  0.075722  0  0.096413  0.142544  0  1.023714  0
H  H32  1  0.56430493  0.51447936  0.68097226  1  0.073848  0  0.096331  0.142752  0  1.023688  0
H  H33  1  0.32674659  0.32104884  0.57731867  1  0.084211  0  0.094115  0.135784  0  1.009254  0
H  H34  1  0.66011345  0.25633381  0.67896997  1  0.042902  0  0.093927  0.135662  0  1.00938  0
H  H35  1  0.33988803  0.32102979  0.74366517  1  0.042883  0  0.093933  0.135669  0  1.009366  0
H  H36  1  0.99344530  0.42257792  0.74370546  1  0.060628  0  0.094328  0.135781  0  1.009402  0
H  H37  1  0.00655524  0.25629526  0.57742286  1  0.060093  0  0.094313  0.135761  0  1.009389  0
H  H38  1  0.67325396  0.42268106  0.67895164  1  0.084198  0  0.094127  0.135797  0  1.009314  0
H  H39  1  0.29574893  0.24410494  0.44355221  1  0.059417  0  0.097907  0.139376  0  0.982781  0
H  H40  1  0.62913315  0.19951592  0.75591259  1  0.029147  0  0.09757  0.139262  0  0.983728  0
H  H41  1  0.37086737  0.24408684  0.80048197  1  0.029134  0  0.097577  0.139269  0  0.98377  0
H  H42  1  0.96245796  0.55631670  0.80053101  1  0.043257  0  0.097814  0.138694  0  0.98313  0
H  H43  1  0.03754353  0.19946943  0.44368308  1  0.043244  0  0.0978  0.138674  0  0.98313  0
H  H44  1  0.70425068  0.55644690  0.75589486  1  0.059423  0  0.097905  0.139362  0  0.982792  0
H  H45  1  0.41196244  0.45161236  0.28940065  1  0.079607  0  0.10229  0.102415  0  1.01267  0
H  H46  1  0.74522744  0.83777253  0.54837656  1  0.076387  0  0.102505  0.102388  0  1.01284  0
H  H47  1  0.25477221  0.45162369  0.16222782  1  0.07638  0  0.102506  0.102421  0  1.012812  0
H  H48  1  0.07857719  0.71064616  0.16224423  1  0.084517  0  0.102116  0.102128  0  1.012944  0
H  H49  1  0.92142343  0.83775541  0.28935498  1  0.084474  0  0.102151  0.102221  0  1.012924  0
H  H50  1  0.58803814  0.71060002  0.54838747  1  0.079622  0  0.102294  0.102404  0  1.012687  0
H  H51  1  0.41163195  0.12028566  0.12341191  1  0.095508  0  0.107927  0.11572  0  0.991568  0
H  H52  1  0.74491946  0.00314096  0.87970644  1  0.10659  0  0.107869  0.115323  0  0.991671  0
H  H53  1  0.25508104  0.12029394  0.99685709  1  0.106576  0  0.107864  0.115295  0  0.991678  0
H  H54  1  0.07825531  0.87661304  0.99686832  1  0.098097  0  0.108008  0.115303  0  0.991721  0
H  H55  1  0.92174054  0.00313375  0.12338921  1  0.098067  0  0.108004  0.11528  0  0.991729  0
H  H56  1  0.58836862  0.87658598  0.87971282  1  0.095532  0  0.107932  0.115739  0  0.991581  0
C  C57  1  0.50287051  0.95705887  0.53353767  1  -0.051528  0  -0.227522  -0.427364  0  3.973245  0
C  C58  1  0.83621435  0.57647642  0.04293558  1  -0.046452  0  -0.226973  -0.42734  0  3.973853  0
C  C59  1  0.16378627  0.95706445  0.42352431  1  -0.046425  0  -0.226963  -0.427298  0  3.973887  0
C  C60  1  0.16945426  0.46647478  0.42352721  1  -0.077554  0  -0.227052  -0.426944  0  3.97358  0
C  C61  1  0.83054632  0.57647302  0.53352541  1  -0.077564  0  -0.227036  -0.426954  0  3.973611  0
C  C62  1  0.49712821  0.46646128  0.04294019  1  -0.05153  0  -0.227522  -0.427408  0  3.973298  0
C  C63  1  0.49193036  0.04467732  0.51344058  1  0.404045  0  0.107996  0.214044  0  3.987795  0
C  C64  1  0.82540030  0.46877623  0.95532431  1  0.424882  0  0.109058  0.21635  0  3.986088  0
C  C65  1  0.17460117  0.04467566  0.53122385  1  0.424694  0  0.10905  0.216312  0  3.986156  0
C  C66  1  0.15859496  0.48659911  0.53125562  1  0.448912  0  0.109097  0.215399  0  3.986794  0
C  C67  1  0.84140466  0.46874495  0.51340068  1  0.448902  0  0.109133  0.215535  0  3.986748  0
C  C68  1  0.50807017  0.48655872  0.95532343  1  0.403481  0  0.107978  0.213995  0  3.987857  0
C  C69  1  0.39438291  0.11636891  0.53543839  1  0.055619  0  -0.036084  -0.142996  0  4.05165  0
C  C70  1  0.72787814  0.41911512  0.88360534  1  0.049683  0  -0.035405  -0.14225  0  4.052178  0
C  C71  1  0.27212428  0.11639504  0.58088457  1  0.04973  0  -0.035426  -0.142245  0  4.052234  0
C  C72  1  0.06108997  0.46454112  0.58093461  1  0.037669  0  -0.035677  -0.141612  0  4.052678  0
C  C73  1  0.93890965  0.41906488  0.53545836  1  0.073202  0  -0.035712  -0.141701  0  4.052794  0
C  C74  1  0.60561763  0.46456265  0.88363281  1  0.056034  0  -0.036073  -0.142938  0  4.051603  0
C  C75  1  0.43768993  0.18280490  0.50009071  1  0.460679  0  0.101012  0.216383  0  4.01111  0
C  C76  1  0.77111446  0.31733643  0.81719793  1  0.428691  0  0.100856  0.215935  0  4.010946  0
C  C77  1  0.22888607  0.18280168  0.68266400  1  0.428745  0  0.100846  0.215897  0  4.011002  0
C  C78  1  0.10435696  0.49986979  0.68270734  1  0.440441  0  0.099825  0.213425  0  4.011218  0
C  C79  1  0.89564265  0.31729211  0.50012968  1  0.440448  0  0.099816  0.21342  0  4.011349  0
C  C80  1  0.56231061  0.49990864  0.81719592  1  0.460802  0  0.100992  0.216363  0  4.011159  0
C  C81  1  0.37126827  0.27156005  0.50190241  1  -0.098266  0  -0.235603  -0.426713  0  3.961163  0
C  C82  1  0.70466268  0.23040364  0.72845553  1  -0.017949  0  -0.235267  -0.426962  0  3.961249  0
C  C83  1  0.29533880  0.27154421  0.76959533  1  -0.018008  0  -0.235278  -0.426952  0  3.961239  0
C  C84  1  0.03799748  0.49799130  0.76965919  1  -0.079568  0  -0.235526  -0.424976  0  3.959746  0
C  C85  1  0.96200401  0.23034166  0.50200804  1  -0.079581  0  -0.235515  -0.424948  0  3.959862  0
C  C86  1  0.62873322  0.49809735  0.72844041  1  -0.09838  0  -0.235593  -0.426693  0  3.961186  0
C  C87  1  0.51014006  0.29018912  0.29316310  1  1.56255  0  0.209309  0.570092  0  4.216588  0
C  C88  1  0.84349216  0.00287262  0.70968123  1  1.55122  0  0.209856  0.569474  0  4.216134  0
C  C89  1  0.15650930  0.29031913  0.99712691  1  1.551219  0  0.209884  0.56947  0  4.216089  0
C  C90  1  0.17680441  0.70683638  0.99703246  1  1.544762  0  0.209218  0.569587  0  4.21723  0
C  C91  1  0.82319330  0.00296745  0.29316523  1  1.544776  0  0.209182  0.56955  0  4.217349  0
C  C92  1  0.48986051  0.70683647  0.70981036  1  1.56254  0  0.209322  0.570003  0  4.216523  0
C  C93  1  0.37647197  0.37990776  0.22488592  1  -0.000621  0  -0.087972  -0.104553  0  4.009863  0
C  C94  1  0.70981449  0.84493669  0.62009866  1  -0.036506  0  -0.087411  -0.104211  0  4.009429  0
C  C95  1  0.29018610  0.37990222  0.15506432  1  -0.036615  0  -0.087435  -0.104308  0  4.009454  0
C  C96  1  0.04313376  0.77516497  0.15501138  1  -0.060051  0  -0.087382  -0.104355  0  4.011126  0
C  C97  1  0.95686404  0.84498733  0.22483447  1  -0.044201  0  -0.087438  -0.104473  0  4.011254  0
C  C98  1  0.62352861  0.77511504  0.62009310  1  -0.000799  0  -0.088006  -0.104603  0  4.009964  0
C  C99  1  0.42001198  0.28639173  0.21400253  1  -0.084112  0  -0.017955  -0.03538  0  3.978411  0
C  C100  1  0.75337916  0.92757014  0.71358137  1  -0.026092  0  -0.01851  -0.034976  0  3.978104  0
C  C101  1  0.24662237  0.28641920  0.07242983  1  -0.026146  0  -0.018473  -0.0349  0  3.978066  0
C  C102  1  0.08669875  0.78602682  0.07238823  1  -0.010117  0  -0.018018  -0.034139  0  3.979466  0
C  C103  1  0.91329811  0.92761080  0.21397370  1  -0.010076  0  -0.018019  -0.03416  0  3.979407  0
C  C104  1  0.57998766  0.78599641  0.71360709  1  -0.084131  0  -0.017936  -0.035313  0  3.978364  0
C  C105  1  0.37666520  0.19253571  0.13140381  1  -0.036434  0  -0.082916  -0.097069  0  3.969138  0
C  C106  1  0.70999480  0.93886775  0.80744593  1  -0.038098  0  -0.082958  -0.096585  0  3.969284  0
C  C107  1  0.29000484  0.19255366  0.06113048  1  -0.038142  0  -0.082948  -0.096542  0  3.969213  0
C  C108  1  0.04331959  0.86859560  0.06112582  1  -0.022231  0  -0.083265  -0.097194  0  3.970146  0
C  C109  1  0.95668106  0.93887679  0.13140543  1  -0.063038  0  -0.083274  -0.097172  0  3.970034  0
C  C110  1  0.62333632  0.86859438  0.80746385  1  -0.036473  0  -0.082889  -0.097056  0  3.969122  0
N  N111  1  0.58493500  0.06940197  0.46846042  1  -0.863035  0  -0.279224  -0.143713  0  3.678744  0
N  N112  1  0.91836145  0.39905148  0.93063019  1  -0.838417  0  -0.279408  -0.145465  0  3.68024  0
N  N113  1  0.08164002  0.06936977  0.60094858  1  -0.8384  0  -0.279374  -0.14545  0  3.680213  0
N  N114  1  0.25159016  0.53160288  0.60097143  1  -0.871417  0  -0.27984  -0.145025  0  3.679384  0
N  N115  1  0.74841041  0.39902911  0.46839691  1  -0.871433  0  -0.279871  -0.145133  0  3.679396  0
N  N116  1  0.41506554  0.53153968  0.93059803  1  -0.862929  0  -0.279188  -0.143668  0  3.678709  0
N  N117  1  0.55408187  0.15249567  0.45933785  1  -0.772233  0  -0.268102  -0.26199  0  3.52899  0
N  N118  1  0.88748314  0.30685391  0.84754030  1  -0.801102  0  -0.269015  -0.261979  0  3.528577  0
N  N119  1  0.11251833  0.15245968  0.69314612  1  -0.801148  0  -0.269003  -0.261946  0  3.528557  0
N  N120  1  0.22074117  0.54067002  0.69316185  1  -0.775959  0  -0.267913  -0.260636  0  3.528695  0
N  N121  1  0.77926033  0.30683866  0.45932975  1  -0.775973  0  -0.267903  -0.260597  0  3.528711  0
N  N122  1  0.44591868  0.54066228  0.84750437  1  -0.772225  0  -0.268096  -0.262  0  3.529007  0
O  O123  1  0.53107971  0.37679827  0.37275857  1  -1.196243  0  -0.322935  -0.554522  0  2.18809  0
O  O124  1  0.86447991  0.99579698  0.62305207  1  -1.183268  0  -0.322531  -0.553774  0  2.187627  0
O  O125  1  0.13552258  0.37694895  0.00420266  1  -1.183302  0  -0.322565  -0.553794  0  2.187617  0
O  O126  1  0.19780889  0.62728647  0.00411712  1  -1.186892  0  -0.322435  -0.554719  0  2.188468  0
O  O127  1  0.80219079  0.99588324  0.37271533  1  -1.186965  0  -0.322422  -0.554684  0  2.188514  0
O  O128  1  0.46892086  0.62724099  0.62320122  1  -1.196296  0  -0.322934  -0.554471  0  2.187999  0
O  O129  1  0.55853329  0.20345070  0.27435002  1  -1.167514  0  -0.329348  -0.535765  0  2.322467  0
O  O130  1  0.89181922  0.07085743  0.79642916  1  -1.168499  0  -0.32965  -0.535604  0  2.322592  0
O  O131  1  0.10818129  0.20357145  0.92914318  1  -1.168472  0  -0.329647  -0.535601  0  2.322569  0
O  O132  1  0.22510694  0.72560057  0.92904021  1  -1.169448  0  -0.329715  -0.535552  0  2.322002  0
O  O133  1  0.77489267  0.07095907  0.27440039  1  -1.169426  0  -0.329696  -0.535542  0  2.322047  0
O  O134  1  0.44146727  0.72564954  0.79654874  1  -1.167494  0  -0.329361  -0.535747  0  2.322447  0
