# generated using pymatgen
data_CuH20C20S2(NO4)2
_symmetry_space_group_name_H-M   'P 1'
_cell_length_a   7.39003574
_cell_length_b   8.11645819
_cell_length_c   9.99261612
_cell_angle_alpha   108.97793445
_cell_angle_beta   94.60796945
_cell_angle_gamma   102.77508989
_symmetry_Int_Tables_number   1
_chemical_formula_structural   CuH20C20S2(NO4)2
_chemical_formula_sum   'Cu1 H20 C20 S2 N2 O8'
_cell_volume   545.17228458
_cell_formula_units_Z   1
loop_
 _symmetry_equiv_pos_site_id
 _symmetry_equiv_pos_as_xyz
  1  'x, y, z'
loop_
 _atom_site_type_symbol
 _atom_site_label
 _atom_site_symmetry_multiplicity
 _atom_site_fract_x
 _atom_site_fract_y
 _atom_site_fract_z
 _atom_site_occupancy
 _atom_site_pbe_cm5_charge
 _atom_site_pbe_ddec_charge
 _atom_site_pbe_ddec_spin_density
 _atom_site_pbe_ddec_sum_bond_order
 _atom_site_pbe_magmom
Cu  Cu0  1  0.49999999  0.49999719  0.50000020  1  0.75638  0.846074  -0.755724  2.124489  -0.602
H  H1  1  0.40591907  0.18817810  0.58714139  1  0.119023  0.094525  -0.001223  1.016901  -0.002
H  H2  1  0.59407599  0.81180851  0.41285234  1  0.118989  0.094424  -0.001223  1.016953  -0.002
H  H3  1  0.23391173  0.85998374  0.47137358  1  0.104871  0.119067  -0.000972  1.038597  -0.001
H  H4  1  0.76608035  0.14000592  0.52861678  1  0.1049  0.119111  -0.000972  1.038571  -0.001
H  H5  1  0.08407229  0.74333797  0.21067385  1  0.113697  0.123796  -0.00018  1.004724  0.0
H  H6  1  0.91591337  0.25665735  0.78931761  1  0.113637  0.123697  -0.00018  1.004692  0.0
H  H7  1  0.11003867  0.96216083  0.08070096  1  0.11065  0.115965  -0.000685  0.998643  -0.001
H  H8  1  0.88995647  0.03783940  0.91929671  1  0.11064  0.115914  -0.000685  0.998753  -0.001
H  H9  1  0.28715055  0.28486738  0.21147446  1  0.123068  0.102015  -0.001186  0.996044  -0.002
H  H10  1  0.71284967  0.71513143  0.78852122  1  0.123082  0.102031  -0.001186  0.995943  -0.002
H  H11  1  0.12459647  0.82158814  0.69741979  1  0.102637  0.105584  -8.3e-05  1.030754  0.0
H  H12  1  0.87540696  0.17840879  0.30258263  1  0.102608  0.105537  -8.3e-05  1.030733  0.0
H  H13  1  0.23136770  0.15776669  0.77403615  1  0.101189  0.099825  2.3e-05  1.030956  0.0
H  H14  1  0.76862778  0.84223158  0.22597101  1  0.101161  0.09972  2.3e-05  1.030853  0.0
H  H15  1  0.48830122  0.33097665  0.97446926  1  0.108143  0.120387  -1.3e-05  1.020983  0.0
H  H16  1  0.51168859  0.66901635  0.02553591  1  0.108144  0.120407  -1.3e-05  1.020944  0.0
H  H17  1  0.80842223  0.44077921  0.45535709  1  0.289915  0.373791  9.4e-05  0.979454  0.0
H  H18  1  0.19158337  0.55922458  0.54464548  1  0.289955  0.373827  9.4e-05  0.979429  0.0
H  H19  1  0.83082482  0.47166566  0.61893900  1  0.311772  0.413546  -0.000814  0.89278  -0.002
H  H20  1  0.16917523  0.52833814  0.38106612  1  0.311768  0.413534  -0.000815  0.892801  -0.002
C  C21  1  0.33727282  0.13109383  0.47549000  1  0.045903  0.087684  0.001071  3.926202  0.0
C  C22  1  0.66272209  0.86890942  0.52450351  1  0.04604  0.087874  0.00107  3.926416  0.0
C  C23  1  0.24067982  0.94992411  0.41037712  1  -0.083669  -0.124212  -0.004813  3.945125  -0.006
C  C24  1  0.75931532  0.05007612  0.58962055  1  -0.083718  -0.124374  -0.004813  3.945327  -0.006
C  C25  1  0.15869433  0.88513583  0.26606427  1  -0.056542  -0.012591  0.004562  3.895858  0.003
C  C26  1  0.84130098  0.11486037  0.73393125  1  -0.056463  -0.012356  0.004562  3.895758  0.003
C  C27  1  0.17255359  0.00629881  0.19305797  1  -0.075311  -0.109887  -0.00432  3.963015  -0.005
C  C28  1  0.82743558  0.99370007  0.80694183  1  -0.075332  -0.10996  -0.004319  3.963055  -0.005
C  C29  1  0.26950854  0.18611812  0.26490129  1  0.046434  0.078847  0.001087  3.936392  0.0
C  C30  1  0.73048864  0.81387949  0.73509278  1  0.046492  0.078952  0.001088  3.93619  0.0
C  C31  1  0.32156051  0.80697832  0.85897106  1  -0.021008  -0.142257  -0.000113  3.941766  0.0
C  C32  1  0.67844763  0.19303782  0.14103229  1  -0.020977  -0.142081  -0.000113  3.941835  0.0
C  C33  1  0.23833092  0.89762816  0.78721443  1  -0.093262  -0.1019  -7.8e-05  4.025582  0.0
C  C34  1  0.76167206  0.10238418  0.21278538  1  -0.093184  -0.101804  -7.8e-05  4.025439  0.0
C  C35  1  0.29902012  0.08718588  0.83021940  1  -0.089742  -0.070482  -6.7e-05  4.005934  0.0
C  C36  1  0.70098491  0.91282575  0.16979140  1  -0.089704  -0.070282  -6.7e-05  4.005419  0.0
C  C37  1  0.44253902  0.18497860  0.94386425  1  -0.082341  -0.113445  -3.8e-05  3.939196  0.0
C  C38  1  0.55746154  0.81502341  0.05614741  1  -0.082318  -0.113606  -3.8e-05  3.93903  0.0
C  C39  1  0.53064860  0.09689420  0.02112189  1  -0.002947  0.05411  -9.3e-05  3.983762  0.0
C  C40  1  0.46935894  0.90311202  0.97888555  1  -0.002928  0.054409  -9.3e-05  3.983558  0.0
S  S41  1  0.24486999  0.56505994  0.79500992  1  0.505601  1.165788  -0.000127  6.18136  0.0
S  S42  1  0.75513869  0.43493575  0.20498757  1  0.505674  1.165907  -0.000127  6.181703  0.0
N  N43  1  0.35182497  0.24629327  0.40330096  1  -0.358204  -0.239876  -0.058149  3.639243  -0.076
N  N44  1  0.64817760  0.75371257  0.59669193  1  -0.358327  -0.240003  -0.058151  3.639352  -0.076
O  O45  1  0.40635213  0.50156753  0.74080661  1  -0.348435  -0.635437  -0.000394  2.231234  -0.002
O  O46  1  0.59365855  0.49842969  0.25918747  1  -0.348447  -0.635471  -0.000395  2.231292  -0.002
O  O47  1  0.08848721  0.51866050  0.67307899  1  -0.349821  -0.6314  -0.001308  2.251503  -0.002
O  O48  1  0.91151142  0.48133393  0.32692130  1  -0.349884  -0.631483  -0.001308  2.251623  -0.002
O  O49  1  0.18287429  0.50886153  0.91129498  1  -0.329926  -0.554495  -0.000263  2.139485  0.0
O  O50  1  0.81713486  0.49113653  0.08870924  1  -0.329915  -0.554503  -0.000263  2.139583  0.0
O  O51  1  0.73531968  0.41481870  0.53093590  1  -0.569954  -0.742216  -0.054054  2.194936  -0.076
O  O52  1  0.26468427  0.58517549  0.46906577  1  -0.570011  -0.742223  -0.054052  2.194953  -0.076
