# generated using pymatgen
data_CdH16C18S2(NO2)4
_symmetry_space_group_name_H-M   'P 1'
_cell_length_a   7.47230509
_cell_length_b   7.71518263
_cell_length_c   10.52418611
_cell_angle_alpha   103.35401364
_cell_angle_beta   96.61217673
_cell_angle_gamma   110.68891246
_symmetry_Int_Tables_number   1
_chemical_formula_structural   CdH16C18S2(NO2)4
_chemical_formula_sum   'Cd1 H16 C18 S2 N4 O8'
_cell_volume   539.19293546
_cell_formula_units_Z   1
loop_
 _symmetry_equiv_pos_site_id
 _symmetry_equiv_pos_as_xyz
  1  'x, y, z'
loop_
 _atom_site_type_symbol
 _atom_site_label
 _atom_site_symmetry_multiplicity
 _atom_site_fract_x
 _atom_site_fract_y
 _atom_site_fract_z
 _atom_site_occupancy
 _atom_site_pbe_bader_charge
 _atom_site_pbe_bader_spin_density
 _atom_site_pbe_cm5_charge
 _atom_site_pbe_ddec_charge
 _atom_site_pbe_ddec_spin_density
 _atom_site_pbe_ddec_sum_bond_order
 _atom_site_pbe_magmom
Cd  Cd0  1  0.00000058  0.00000005  0.99999940  1  1.259299  0  0.790001  0.877613  0  2.224631  0
H  H1  1  0.69695477  0.13530905  0.56753909  1  0.121942  0  0.110584  0.121689  0  1.014206  0
H  H2  1  0.30304508  0.86469254  0.43246061  1  0.121962  0  0.110595  0.121706  0  1.014135  0
H  H3  1  0.63091027  0.08126734  0.32066601  1  0.049629  0  0.103246  0.10202  0  0.99835  0
H  H4  1  0.36908844  0.91873136  0.67933406  1  0.049627  0  0.103222  0.101993  0  0.998392  0
H  H5  1  0.65681804  0.35493443  0.22713342  1  0.065897  0  0.099513  0.100026  0  1.027595  0
H  H6  1  0.34318259  0.64506573  0.77286609  1  0.065936  0  0.0995  0.100004  0  1.027602  0
H  H7  1  0.75289340  0.68879748  0.37752880  1  0.120545  0  0.113751  0.123046  0  0.985159  0
H  H8  1  0.24710799  0.31120123  0.62246958  1  0.120541  0  0.113752  0.123045  0  0.985155  0
H  H9  1  0.59039395  0.74781874  0.05555644  1  0.180768  0  0.126395  0.122066  0  1.008015  0
H  H10  1  0.40960918  0.25218431  0.94444663  1  0.180716  0  0.126394  0.12206  0  1.008053  0
H  H11  1  0.24780794  0.73662781  0.04743952  1  0.127831  0  0.120997  0.095974  0  1.046839  0
H  H12  1  0.75219403  0.26337234  0.95256106  1  0.127821  0  0.121007  0.095981  0  1.046885  0
H  H13  1  0.95139547  0.67386193  0.12435498  1  0.655993  0  0.293671  0.396667  0  0.932712  0
H  H14  1  0.04860516  0.32613822  0.87564549  1  0.655998  0  0.29365  0.396607  0  0.932782  0
H  H15  1  0.99988756  0.88064497  0.22451837  1  0.6574  0  0.280829  0.368003  0  0.984132  0
H  H16  1  0.00011498  0.11935663  0.77548156  1  0.657402  0  0.280816  0.367991  0  0.984152  0
C  C17  1  0.75426377  0.44155802  0.60675300  1  -0.18555  0  -0.013874  -0.113886  0  3.998135  0
C  C18  1  0.24573416  0.55844213  0.39324725  1  -0.185559  0  -0.013891  -0.113899  0  3.998177  0
C  C19  1  0.70427445  0.25427109  0.52629287  1  -0.043712  0  -0.075114  -0.072718  0  3.946612  0
C  C20  1  0.29572213  0.74572906  0.47370727  1  -0.043789  0  -0.075111  -0.072737  0  3.946591  0
C  C21  1  0.66925273  0.22583562  0.38779972  1  0.008188  0  -0.078431  -0.060829  0  3.943644  0
C  C22  1  0.33074713  0.77416598  0.61219998  1  0.008263  0  -0.078416  -0.060797  0  3.943681  0
C  C23  1  0.68465705  0.37995009  0.33484004  1  0.034496  0  -0.082058  -0.068007  0  3.95848  0
C  C24  1  0.31534435  0.62004862  0.66515930  1  0.034475  0  -0.082052  -0.067998  0  3.958559  0
C  C25  1  0.73832085  0.56809451  0.41822029  1  -0.027227  0  -0.070736  -0.068026  0  3.922342  0
C  C26  1  0.26167977  0.43190564  0.58177922  1  -0.02722  0  -0.070735  -0.068005  0  3.922357  0
C  C27  1  0.77334033  0.59753220  0.55574292  1  -0.028442  0  -0.01012  -0.04785  0  4.01896  0
C  C28  1  0.22665895  0.40246796  0.44425554  1  -0.02842  0  -0.010116  -0.047855  0  4.018964  0
C  C29  1  0.83721622  0.78385449  0.66462274  1  1.372821  0  0.231691  0.500121  0  4.170618  0
C  C30  1  0.16278249  0.21614421  0.33537733  1  1.372645  0  0.231693  0.500109  0  4.170708  0
C  C31  1  0.54951440  0.86006393  0.03060127  1  0.532967  0  0.061166  0.055831  0  3.876644  0
C  C32  1  0.45048757  0.13993622  0.96940026  1  0.533045  0  0.061165  0.055857  0  3.876714  0
C  C33  1  0.36073142  0.85489175  0.02681160  1  0.493347  0  0.058996  0.056157  0  3.902925  0
C  C34  1  0.63927056  0.14510840  0.97318993  1  0.493334  0  0.058972  0.056081  0  3.903007  0
S  S35  1  0.80039000  0.53242631  0.78310427  1  2.866815  0  0.554546  1.114781  0  5.923038  0
S  S36  1  0.19960985  0.46757529  0.21689543  1  2.866941  0  0.554538  1.114796  0  5.923099  0
N  N37  1  0.85825665  0.75970936  0.78919181  1  -1.33596  0  -0.404166  -0.62862  0  3.30367  0
N  N38  1  0.14174128  0.24029079  0.21080749  1  -1.335879  0  -0.404171  -0.628664  0  3.303682  0
N  N39  1  0.68761504  0.00578175  0.00385611  1  -1.233351  0  -0.307166  -0.194233  0  3.485808  0
N  N40  1  0.31238693  0.99421840  0.99614542  1  -1.233348  0  -0.307183  -0.194279  0  3.485773  0
O  O41  1  0.62297951  0.45630126  0.83162226  1  -1.299434  0  -0.311056  -0.534818  0  2.153717  0
O  O42  1  0.37702034  0.54370034  0.16837839  1  -1.299429  0  -0.311056  -0.534808  0  2.15374  0
O  O43  1  0.97114965  0.51131530  0.84951623  1  -1.319076  0  -0.31346  -0.563375  0  2.245998  0
O  O44  1  0.02885058  0.48869065  0.15048709  1  -1.319085  0  -0.313444  -0.563393  0  2.246055  0
O  O45  1  0.92043152  0.78943504  0.13383823  1  -1.2958  0  -0.593513  -0.763355  0  2.059811  0
O  O46  1  0.07956911  0.21056511  0.86616128  1  -1.295805  0  -0.593476  -0.763266  0  2.059826  0
O  O47  1  0.87125210  0.94389778  0.64251767  1  -1.149779  0  -0.290674  -0.479422  0  2.165213  0
O  O48  1  0.12874910  0.05610382  0.35748214  1  -1.149779  0  -0.290667  -0.479387  0  2.165374  0
