# generated using pymatgen
data_AlH4C10BrNO7
_symmetry_space_group_name_H-M   'P 1'
_cell_length_a   6.80536148
_cell_length_b   11.13329015
_cell_length_c   11.27903176
_cell_angle_alpha   84.72958128
_cell_angle_beta   70.33333779
_cell_angle_gamma   72.04546977
_symmetry_Int_Tables_number   1
_chemical_formula_structural   AlH4C10BrNO7
_chemical_formula_sum   'Al2 H8 C20 Br2 N2 O14'
_cell_volume   765.46191921
_cell_formula_units_Z   2
loop_
 _symmetry_equiv_pos_site_id
 _symmetry_equiv_pos_as_xyz
  1  'x, y, z'
loop_
 _atom_site_type_symbol
 _atom_site_label
 _atom_site_symmetry_multiplicity
 _atom_site_fract_x
 _atom_site_fract_y
 _atom_site_fract_z
 _atom_site_occupancy
 _atom_site_pbe_bader_charge
 _atom_site_pbe_bader_spin_density
 _atom_site_pbe_cm5_charge
 _atom_site_pbe_ddec_charge
 _atom_site_pbe_ddec_spin_density
 _atom_site_pbe_ddec_sum_bond_order
 _atom_site_pbe_magmom
Al  Al0  1  0.49462021  0.50462948  0.50446515  1  2.504923  0  0.403809  1.640169  0  2.525839  0
Al  Al1  1  0.99605692  0.50351866  0.50273020  1  2.507218  0  0.399627  1.65399  0  2.529527  0
H  H2  1  0.27158195  0.36299743  0.58875521  1  0.623997  0  0.329472  0.409978  0  0.901972  0
H  H3  1  0.78304384  0.58341641  0.35983259  1  0.624032  0  0.327964  0.404724  0  0.917744  0
H  H4  1  0.73049502  0.53991439  0.11483717  1  0.174968  0  0.118582  0.12017  0  1.094162  0
H  H5  1  0.26830601  0.46379475  0.88814722  1  0.19383  0  0.120326  0.123313  0  1.094351  0
H  H6  1  0.21263908  0.23190689  0.31656543  1  0.119339  0  0.10193  0.107253  0  1.041494  0
H  H7  1  0.56973940  0.11092652  0.17471684  1  0.075575  0  0.10461  0.102065  0  0.98527  0
H  H8  1  0.46735341  0.76384298  0.34371781  1  0.060992  0  0.104294  0.10693  0  1.041055  0
H  H9  1  0.69845474  0.87563231  0.18948333  1  0.070744  0  0.1046  0.10463  0  0.989009  0
C  C10  1  0.85219859  0.27811979  0.49557489  1  1.589775  0  0.268475  0.660901  0  4.087144  0
C  C11  1  0.63065315  0.50859736  0.72710808  1  1.608237  0  0.274662  0.644674  0  4.083055  0
C  C12  1  0.13448106  0.72798459  0.51449510  1  1.604203  0  0.274378  0.665428  0  4.078384  0
C  C13  1  0.36420037  0.49937903  0.27676540  1  1.614036  0  0.276754  0.649686  0  4.074065  0
C  C14  1  0.56661721  0.50122742  0.86794381  1  0.117799  0  0.009606  -0.046902  0  3.905506  0
C  C15  1  0.43058047  0.50449415  0.13564652  1  0.044264  0  0.007367  -0.052547  0  3.911504  0
C  C16  1  0.69573851  0.51925892  0.93437353  1  0.188  0  0.096474  0.072  0  3.924353  0
C  C17  1  0.30268723  0.48497433  0.06895043  1  0.120727  0  0.093459  0.064412  0  3.928754  0
C  C18  1  0.63002029  0.52317539  0.06481702  1  0.047394  0  -0.067422  -0.124697  0  3.926592  0
C  C19  1  0.36786487  0.48116734  0.93861423  1  0.083555  0  -0.066499  -0.123864  0  3.923532  0
C  C20  1  0.92269617  0.13638427  0.49914728  1  0.022007  0  -0.009947  -0.112383  0  3.922648  0
C  C21  1  0.13054442  0.06787615  0.41547051  1  0.034247  0  0.001169  0.069846  0  3.95175  0
C  C22  1  0.79039853  0.07291315  0.58470865  1  -0.005181  0  -0.016238  0.037402  0  3.946003  0
C  C23  1  0.26695407  0.12966828  0.32375796  1  -0.101784  0  -0.089885  -0.124652  0  3.960513  0
C  C24  1  0.46708816  0.06182361  0.24418159  1  -0.079992  0  -0.087374  -0.074215  0  4.026935  0
C  C25  1  0.06169879  0.86991285  0.51136154  1  0.081216  0  -0.00724  -0.111525  0  3.908928  0
C  C26  1  0.85945030  0.93890568  0.59034778  1  -0.093778  0  -0.016595  0.039772  0  3.960094  0
C  C27  1  0.20234887  0.93273615  0.42247713  1  -0.003063  0  0.003111  0.070569  0  3.949693  0
C  C28  1  0.40965533  0.86604500  0.33853590  1  0.006137  0  -0.08996  -0.126922  0  3.958765  0
C  C29  1  0.53943769  0.92901811  0.25212391  1  0.011469  0  -0.08818  -0.073554  0  4.024174  0
Br  Br30  1  0.67792861  0.85570453  0.71120855  1  -0.001282  0  0.054664  -0.0097  0  1.559398  0
Br  Br31  1  0.52008579  0.16452334  0.70211337  1  -0.025107  0  0.058046  -0.021087  0  1.564062  0
N  N32  1  0.92067106  0.52244072  0.86861172  1  0.405734  0  0.059341  0.516808  0  4.209263  0
N  N33  1  0.08021237  0.47900223  0.13664745  1  0.405354  0  0.063104  0.521042  0  4.206233  0
O  O34  1  0.67460242  0.33155677  0.47296593  1  -1.257056  0  -0.235896  -0.59462  0  2.359127  0
O  O35  1  0.81008576  0.53311237  0.67231814  1  -1.250325  0  -0.222665  -0.585148  0  2.425191  0
O  O36  1  0.01670370  0.67179377  0.48880281  1  -1.257333  0  -0.232055  -0.589003  0  2.356216  0
O  O37  1  0.48765003  0.52198805  0.32906750  1  -1.239272  0  -0.222346  -0.56591  0  2.340057  0
O  O38  1  0.31266280  0.67535973  0.53682475  1  -1.254897  0  -0.225979  -0.57159  0  2.325674  0
O  O39  1  0.18712280  0.47139116  0.33089941  1  -1.251038  0  -0.2296  -0.593245  0  2.401996  0
O  O40  1  0.97745217  0.33237779  0.51651363  1  -1.255443  0  -0.231398  -0.58953  0  2.333405  0
O  O41  1  0.50242902  0.49134393  0.67552398  1  -1.240978  0  -0.216715  -0.557982  0  2.365939  0
O  O42  1  0.24628288  0.44759060  0.55416832  1  -1.426838  0  -0.450147  -0.984018  0  2.180172  0
O  O43  1  0.74964035  0.55646389  0.44730545  1  -1.429901  0  -0.453985  -0.984577  0  2.151049  0
O  O44  1  0.96211441  0.62344567  0.86301723  1  -0.42131  0  -0.100085  -0.290062  0  1.938531  0
O  O45  1  0.05510267  0.41761042  0.83279957  1  -0.449541  0  -0.104612  -0.293186  0  1.975516  0
O  O46  1  0.94300200  0.58288255  0.17614643  1  -0.476496  0  -0.104215  -0.312442  0  1.986959  0
O  O47  1  0.04094678  0.37740367  0.14324042  1  -0.419162  0  -0.086784  -0.272403  0  1.910617  0
