# generated using pymatgen
data_TbH8C12(NO3)3
_symmetry_space_group_name_H-M   'P 1'
_cell_length_a   10.15197609
_cell_length_b   11.31639571
_cell_length_c   17.41880171
_cell_angle_alpha   89.99987004
_cell_angle_beta   90.00013016
_cell_angle_gamma   109.80557599
_symmetry_Int_Tables_number   1
_chemical_formula_structural   TbH8C12(NO3)3
_chemical_formula_sum   'Tb4 H32 C48 N12 O36'
_cell_volume   1882.76605784
_cell_formula_units_Z   4
loop_
 _symmetry_equiv_pos_site_id
 _symmetry_equiv_pos_as_xyz
  1  'x, y, z'
loop_
 _atom_site_type_symbol
 _atom_site_label
 _atom_site_symmetry_multiplicity
 _atom_site_fract_x
 _atom_site_fract_y
 _atom_site_fract_z
 _atom_site_occupancy
 _atom_site_pbe_bader_charge
 _atom_site_pbe_bader_spin_density
 _atom_site_pbe_cm5_charge
 _atom_site_pbe_ddec_charge
 _atom_site_pbe_ddec_spin_density
 _atom_site_pbe_ddec_sum_bond_order
 _atom_site_pbe_magmom
Tb  Tb0  1  0.01508271  0.18291316  0.50683095  1  2.169579  0  1.514807  2.031031  0  2.216072  0
Tb  Tb1  1  0.98491934  0.31708877  0.00683039  1  2.169457  0  1.514792  2.031107  0  2.216132  0
Tb  Tb2  1  0.98491987  0.81708901  0.49317060  1  2.169528  0  1.514811  2.031076  0  2.216082  0
Tb  Tb3  1  0.01508262  0.68291434  0.99317058  1  2.16962  0  1.514852  2.03103  0  2.216097  0
H  H4  1  0.89337715  0.29244892  0.81975194  1  0.177757  0  0.123077  0.14187  0  1.031766  0
H  H5  1  0.10662026  0.20755315  0.31975039  1  0.177755  0  0.123068  0.141882  0  1.03179  0
H  H6  1  0.10661809  0.70754951  0.18024961  1  0.177955  0  0.12308  0.141866  0  1.031756  0
H  H7  1  0.89337910  0.79245091  0.68024829  1  0.177753  0  0.12309  0.141868  0  1.03176  0
H  H8  1  0.10404129  0.65484021  0.71548853  1  0.099823  0  0.119998  0.137728  0  0.985719  0
H  H9  1  0.89595672  0.84516199  0.21548896  1  0.099838  0  0.119998  0.137744  0  0.985756  0
H  H10  1  0.89595565  0.34516009  0.28451359  1  0.099807  0  0.120007  0.137749  0  0.985709  0
H  H11  1  0.10404192  0.15484019  0.78451316  1  0.099834  0  0.120007  0.137746  0  0.985719  0
H  H12  1  0.84181675  0.20352382  0.68620834  1  0.159899  0  0.142564  0.131036  0  0.970382  0
H  H13  1  0.15818349  0.29647671  0.18620730  1  0.159919  0  0.142576  0.131038  0  0.970459  0
H  H14  1  0.15818413  0.79647647  0.31379263  1  0.159939  0  0.142564  0.131024  0  0.970444  0
H  H15  1  0.84181247  0.70352360  0.81379195  1  0.160109  0  0.142565  0.131024  0  0.970414  0
H  H16  1  0.04897749  0.54920955  0.58699006  1  0.183045  0  0.136967  0.120336  0  1.019096  0
H  H17  1  0.95102435  0.95079110  0.08699041  1  0.183021  0  0.136973  0.120346  0  1.019189  0
H  H18  1  0.95102375  0.45079168  0.41301034  1  0.183026  0  0.136967  0.120336  0  1.019204  0
H  H19  1  0.04897349  0.04920638  0.91301114  1  0.183033  0  0.136976  0.120339  0  1.01919  0
H  H20  1  0.42704789  0.94401340  0.38644293  1  0.141146  0  0.121336  0.135161  0  0.976405  0
H  H21  1  0.57295455  0.55598835  0.88644384  1  0.141103  0  0.121351  0.135239  0  0.976489  0
H  H22  1  0.57295003  0.05598690  0.61355287  1  0.141204  0  0.121318  0.135154  0  0.976451  0
H  H23  1  0.42705214  0.44400910  0.11355599  1  0.141117  0  0.121356  0.135208  0  0.976468  0
H  H24  1  0.47563084  0.29606950  0.49875025  1  0.151697  0  0.126191  0.148722  0  0.975185  0
H  H25  1  0.52436933  0.20393022  0.99875030  1  0.151703  0  0.126194  0.148723  0  0.975179  0
H  H26  1  0.52437263  0.70392985  0.50124843  1  0.151626  0  0.126216  0.148768  0  0.975362  0
H  H27  1  0.47562618  0.79606633  0.00125068  1  0.151713  0  0.126193  0.148714  0  0.975167  0
H  H28  1  0.69148691  0.02170339  0.36774101  1  0.141809  0  0.142397  0.135751  0  0.958077  0
H  H29  1  0.30851664  0.47830135  0.86774152  1  0.141845  0  0.142402  0.135694  0  0.958174  0
H  H30  1  0.30851191  0.97829408  0.63225538  1  0.142091  0  0.142429  0.135716  0  0.958134  0
H  H31  1  0.69148934  0.52170456  0.13225888  1  0.141792  0  0.142401  0.135727  0  0.958122  0
H  H32  1  0.73518313  0.35614599  0.47902399  1  0.162115  0  0.13322  0.124944  0  1.024474  0
H  H33  1  0.26481770  0.14385566  0.97902321  1  0.162124  0  0.133234  0.124964  0  1.024435  0
H  H34  1  0.26481756  0.64384866  0.52097526  1  0.162038  0  0.133193  0.124931  0  1.024443  0
H  H35  1  0.73517933  0.85614747  0.02097604  1  0.162107  0  0.133221  0.12498  0  1.024368  0
C  C36  1  0.03366660  0.54171171  0.85576687  1  1.5772  0  0.217398  0.617831  0  4.18752  0
C  C37  1  0.96632931  0.95829390  0.35576666  1  1.577182  0  0.217354  0.617713  0  4.187615  0
C  C38  1  0.96633052  0.45829424  0.14423410  1  1.577467  0  0.217379  0.617773  0  4.187683  0
C  C39  1  0.03366942  0.04171110  0.64423489  1  1.577203  0  0.217494  0.617929  0  4.187458  0
C  C40  1  0.00631233  0.48163214  0.77846365  1  -0.01785  0  -0.00162  -0.013277  0  3.947297  0
C  C41  1  0.99368424  0.01836815  0.27846182  1  -0.017924  0  -0.001645  -0.01327  0  3.947375  0
C  C42  1  0.99368255  0.51836534  0.22153962  1  -0.018077  0  -0.001686  -0.013389  0  3.947462  0
C  C43  1  0.00631377  0.98163497  0.72153743  1  -0.018143  0  -0.001669  -0.013336  0  3.947215  0
C  C44  1  0.93086366  0.35322482  0.77022211  1  -0.007154  0  -0.06268  -0.109278  0  3.931425  0
C  C45  1  0.06913325  0.14677644  0.27022289  1  -0.00726  0  -0.062654  -0.109308  0  3.931257  0
C  C46  1  0.06913293  0.64677454  0.22977887  1  -0.007321  0  -0.062669  -0.109236  0  3.931388  0
C  C47  1  0.93086476  0.85322668  0.72977751  1  -0.00712  0  -0.062623  -0.109149  0  3.931316  0
C  C48  1  0.04894827  0.55411525  0.71208018  1  0.112328  0  -0.063298  -0.102846  0  3.937233  0
C  C49  1  0.95105000  0.94588508  0.21208226  1  0.112348  0  -0.06329  -0.10284  0  3.937178  0
C  C50  1  0.95104894  0.44588317  0.28792022  1  0.11252  0  -0.063223  -0.102766  0  3.937112  0
C  C51  1  0.04894596  0.05411523  0.78792216  1  0.112623  0  -0.0633  -0.102883  0  3.937109  0
C  C52  1  0.90069511  0.30144412  0.69785894  1  0.34891  0  0.054124  -0.01652  0  3.825793  0
C  C53  1  0.09930588  0.19855825  0.19785624  1  0.349072  0  0.054101  -0.016511  0  3.825655  0
C  C54  1  0.09930442  0.69855523  0.30214318  1  0.348963  0  0.054108  -0.016532  0  3.825793  0
C  C55  1  0.90069115  0.80144487  0.80214072  1  0.348839  0  0.054062  -0.01662  0  3.825792  0
C  C56  1  0.01969455  0.49850355  0.64065393  1  0.368552  0  0.052815  -0.008734  0  3.814767  0
C  C57  1  0.98030457  0.00149709  0.14065096  1  0.368546  0  0.052786  -0.00877  0  3.814732  0
C  C58  1  0.98030498  0.50149580  0.35935048  1  0.368449  0  0.052745  -0.008791  0  3.814757  0
C  C59  1  0.01969336  0.99850320  0.85934771  1  0.368453  0  0.05278  -0.008732  0  3.814832  0
C  C60  1  0.27732308  0.06948115  0.46335060  1  1.607747  0  0.227161  0.634272  0  4.175197  0
C  C61  1  0.72267681  0.43052335  0.96334886  1  1.607811  0  0.227111  0.634214  0  4.17505  0
C  C62  1  0.72267753  0.93052102  0.53664980  1  1.607785  0  0.227131  0.634204  0  4.175229  0
C  C63  1  0.27732219  0.56947976  0.03664982  1  1.608142  0  0.22718  0.634218  0  4.175193  0
C  C64  1  0.43088259  0.11397531  0.44451872  1  -0.00783  0  -0.004431  -0.01905  0  3.949214  0
C  C65  1  0.56911876  0.38602548  0.94451914  1  -0.007543  0  -0.00442  -0.018928  0  3.949121  0
C  C66  1  0.56911828  0.88602498  0.55547766  1  -0.008284  0  -0.004415  -0.018935  0  3.949038  0
C  C67  1  0.43088033  0.61397012  0.05548011  1  -0.007513  0  -0.004411  -0.018903  0  3.949013  0
C  C68  1  0.49186660  0.03687972  0.40603856  1  -0.037485  0  -0.069533  -0.115401  0  3.988924  0
C  C69  1  0.50813500  0.46312211  0.90603821  1  -0.037806  0  -0.069552  -0.11563  0  3.989019  0
C  C70  1  0.50813159  0.96311870  0.59395667  1  -0.037477  0  -0.069548  -0.115487  0  3.988945  0
C  C71  1  0.49186749  0.53687724  0.09395989  1  -0.037809  0  -0.069545  -0.115486  0  3.989015  0
C  C72  1  0.51819545  0.23221130  0.46922361  1  0.089042  0  -0.060705  -0.097905  0  3.924562  0
C  C73  1  0.48180634  0.26779036  0.96922293  1  0.089075  0  -0.06072  -0.097941  0  3.924586  0
C  C74  1  0.48180668  0.76778710  0.53077335  1  0.08956  0  -0.060729  -0.09803  0  3.924749  0
C  C75  1  0.51819221  0.73220899  0.03077689  1  0.089113  0  -0.060718  -0.098003  0  3.924527  0
C  C76  1  0.63509414  0.07624366  0.39545064  1  0.356569  0  0.0464  -0.037441  0  3.839255  0
C  C77  1  0.36490547  0.42375821  0.89545073  1  0.356544  0  0.046464  -0.037204  0  3.839296  0
C  C78  1  0.36490307  0.92375476  0.60454574  1  0.356378  0  0.0464  -0.037314  0  3.839245  0
C  C79  1  0.63509541  0.57624208  0.10454909  1  0.356566  0  0.046387  -0.037384  0  3.83926  0
C  C80  1  0.66122826  0.26807400  0.45872525  1  0.360186  0  0.051354  -0.022679  0  3.816416  0
C  C81  1  0.33877215  0.23192675  0.95872501  1  0.360225  0  0.051369  -0.022689  0  3.816375  0
C  C82  1  0.33877387  0.73192440  0.54127228  1  0.360355  0  0.051377  -0.022621  0  3.816401  0
C  C83  1  0.66122443  0.76807261  0.04127424  1  0.360363  0  0.051346  -0.022607  0  3.81629  0
N  N84  1  0.94660397  0.37370918  0.63418978  1  -0.638775  0  -0.101352  0.35837  0  3.942915  0
N  N85  1  0.05339872  0.12629053  0.13419057  1  -0.638806  0  -0.101288  0.358454  0  3.942865  0
N  N86  1  0.05339790  0.62629110  0.36581062  1  -0.638766  0  -0.101286  0.358445  0  3.942852  0
N  N87  1  0.94659948  0.87370789  0.86581040  1  -0.63884  0  -0.101309  0.358418  0  3.942929  0
N  N88  1  0.71838261  0.18962969  0.42333887  1  -0.635035  0  -0.104355  0.351253  0  3.961867  0
N  N89  1  0.28161940  0.31037303  0.92333844  1  -0.635077  0  -0.104463  0.351178  0  3.961881  0
N  N90  1  0.28161817  0.81036778  0.57665809  1  -0.635292  0  -0.104384  0.351188  0  3.961928  0
N  N91  1  0.71838256  0.68963008  0.07666138  1  -0.635258  0  -0.104366  0.351127  0  3.961982  0
N  N92  1  0.23268774  0.41194546  0.45859971  1  0.818928  0  0.081811  0.72632  0  4.422135  0
N  N93  1  0.76731187  0.08805059  0.95860083  1  0.819007  0  0.081765  0.726281  0  4.422124  0
N  N94  1  0.76731474  0.58805388  0.54139954  1  0.819325  0  0.081744  0.726185  0  4.422165  0
N  N95  1  0.23268374  0.91194877  0.04139900  1  0.819068  0  0.081817  0.726189  0  4.422298  0
O  O96  1  0.91770041  0.32324195  0.56541756  1  -0.656011  0  -0.309771  -0.588907  0  2.106493  0
O  O97  1  0.08230109  0.17675794  0.06541717  1  -0.655934  0  -0.309773  -0.588936  0  2.106463  0
O  O98  1  0.08230208  0.67675739  0.43458284  1  -0.656006  0  -0.309758  -0.588919  0  2.106478  0
O  O99  1  0.91769612  0.82324048  0.93458266  1  -0.656015  0  -0.309759  -0.588923  0  2.106601  0
O  O100  1  0.02003982  0.47278464  0.91524689  1  -1.204405  0  -0.417601  -0.729203  0  2.48822  0
O  O101  1  0.97995805  0.02721248  0.41524561  1  -1.204405  0  -0.417571  -0.729118  0  2.488465  0
O  O102  1  0.97995533  0.52721097  0.08475638  1  -1.204613  0  -0.417543  -0.729077  0  2.488494  0
O  O103  1  0.02004542  0.97278686  0.58475479  1  -1.204364  0  -0.417629  -0.729224  0  2.488284  0
O  O104  1  0.06503479  0.66017891  0.86099851  1  -1.177719  0  -0.373282  -0.616031  0  2.207667  0
O  O105  1  0.93496283  0.83981821  0.36099670  1  -1.177672  0  -0.373266  -0.616046  0  2.207421  0
O  O106  1  0.93495803  0.33981576  0.13900361  1  -1.177681  0  -0.3733  -0.616083  0  2.207408  0
O  O107  1  0.06503903  0.16018207  0.63900370  1  -1.177728  0  -0.373312  -0.616085  0  2.207513  0
O  O108  1  0.23023968  0.15116641  0.49032539  1  -1.181106  0  -0.387671  -0.648561  0  2.33863  0
O  O109  1  0.76976288  0.34882673  0.99032612  1  -1.181103  0  -0.387673  -0.648601  0  2.338245  0
O  O110  1  0.76976406  0.84883105  0.50967501  1  -1.181131  0  -0.387656  -0.648534  0  2.338455  0
O  O111  1  0.23023531  0.65116134  0.00967657  1  -1.181533  0  -0.387689  -0.648527  0  2.33868  0
O  O112  1  0.20907868  0.95330028  0.45276480  1  -1.194143  0  -0.38817  -0.671549  0  2.312994  0
O  O113  1  0.79092145  0.54669472  0.95276658  1  -1.194233  0  -0.388139  -0.671504  0  2.313276  0
O  O114  1  0.79092211  0.04669719  0.54723503  1  -1.19416  0  -0.388147  -0.671526  0  2.31324  0
O  O115  1  0.20907487  0.45329618  0.04723727  1  -1.194164  0  -0.388188  -0.671576  0  2.312957  0
O  O116  1  0.85513105  0.22335017  0.41589124  1  -0.646763  0  -0.292339  -0.560586  0  2.084818  0
O  O117  1  0.14486933  0.27665352  0.91589125  1  -0.646729  0  -0.292309  -0.560587  0  2.084727  0
O  O118  1  0.14486839  0.77664636  0.58410572  1  -0.646713  0  -0.292357  -0.560567  0  2.084789  0
O  O119  1  0.85513075  0.72335242  0.08410857  1  -0.646747  0  -0.292333  -0.560528  0  2.084865  0
O  O120  1  0.21125184  0.38800816  0.53027284  1  -0.547134  0  -0.231457  -0.510491  0  1.974879  0
O  O121  1  0.78875358  0.11199463  0.03027749  1  -0.546582  0  -0.231445  -0.51052  0  1.974583  0
O  O122  1  0.78875208  0.61199494  0.46972469  1  -0.547195  0  -0.231435  -0.510489  0  1.974786  0
O  O123  1  0.21125231  0.88800846  0.96972578  1  -0.54719  0  -0.231449  -0.510456  0  1.974915  0
O  O124  1  0.14460154  0.33493285  0.41230031  1  -0.600322  0  -0.264399  -0.548395  0  2.076294  0
O  O125  1  0.85540366  0.16506801  0.91230315  1  -0.600505  0  -0.264413  -0.548433  0  2.076252  0
O  O126  1  0.85540327  0.66506742  0.58769722  1  -0.600226  0  -0.264435  -0.548413  0  2.076319  0
O  O127  1  0.14460062  0.83493603  0.08769954  1  -0.600363  0  -0.264404  -0.548362  0  2.076443  0
O  O128  1  0.32954876  0.50290239  0.43408424  1  -0.474631  0  -0.158987  -0.377813  0  1.890933  0
O  O129  1  0.67045892  0.99710486  0.93408865  1  -0.475021  0  -0.158915  -0.377714  0  1.891297  0
O  O130  1  0.67045677  0.49709977  0.56591271  1  -0.475021  0  -0.158893  -0.377661  0  1.891041  0
O  O131  1  0.32954634  0.00290952  0.06591462  1  -0.47466  0  -0.158996  -0.377758  0  1.890928  0
