# generated using pymatgen
data_ZnH10C5NClO5
_symmetry_space_group_name_H-M   'P 1'
_cell_length_a   6.01214315
_cell_length_b   8.35991808
_cell_length_c   17.72241424
_cell_angle_alpha   90.00037838
_cell_angle_beta   89.99966504
_cell_angle_gamma   105.47466175
_symmetry_Int_Tables_number   1
_chemical_formula_structural   ZnH10C5NClO5
_chemical_formula_sum   'Zn4 H40 C20 N4 Cl4 O20'
_cell_volume   858.45582484
_cell_formula_units_Z   4
loop_
 _symmetry_equiv_pos_site_id
 _symmetry_equiv_pos_as_xyz
  1  'x, y, z'
loop_
 _atom_site_type_symbol
 _atom_site_label
 _atom_site_symmetry_multiplicity
 _atom_site_fract_x
 _atom_site_fract_y
 _atom_site_fract_z
 _atom_site_occupancy
 _atom_site_hle17_bader_spin_density
 _atom_site_hle17_ddec_charge
 _atom_site_hle17_ddec_spin_density
 _atom_site_hle17_ddec_sum_bond_order
 _atom_site_hle17_magmom
 _atom_site_hse06_10hf_bader_spin_density
 _atom_site_hse06_10hf_ddec_charge
 _atom_site_hse06_10hf_ddec_spin_density
 _atom_site_hse06_10hf_ddec_sum_bond_order
 _atom_site_hse06_10hf_magmom
 _atom_site_hse06_bader_spin_density
 _atom_site_hse06_ddec_charge
 _atom_site_hse06_ddec_spin_density
 _atom_site_hse06_ddec_sum_bond_order
 _atom_site_hse06_magmom
 _atom_site_pbe_bader_spin_density
 _atom_site_pbe_cm5_charge
 _atom_site_pbe_ddec_charge
 _atom_site_pbe_ddec_spin_density
 _atom_site_pbe_ddec_sum_bond_order
 _atom_site_pbe_magmom
Zn  Zn0  1  0.00862241  0.83490790  0.64424863  1  0  1.073355  0  1.836473  0  0  0.902462  0  2.31676  0  0  0.951649  0  2.255057  0  0  0.604524  0.867849  0  2.359269  0
Zn  Zn1  1  0.99137868  0.66509736  0.14424393  1  0  1.073358  0  1.836379  0  0  0.902558  0  2.316656  0  0  0.951757  0  2.254957  0  0  0.604583  0.867952  0  2.359145  0
Zn  Zn2  1  0.99138988  0.16510687  0.35575311  1  0  1.073268  0  1.836501  0  0  0.902447  0  2.316796  0  0  0.951632  0  2.255093  0  0  0.604564  0.867836  0  2.35931  0
Zn  Zn3  1  0.00861356  0.33489145  0.85575274  1  0  1.073216  0  1.836433  0  0  0.902464  0  2.316702  0  0  0.951645  0  2.254999  0  0  0.604532  0.867842  0  2.359225  0
H  H4  1  0.10095237  0.32597093  0.60235376  1  0  0.131801  0  0.930452  0  0  0.145475  0  0.987754  0  0  0.148234  0  0.986673  0  0  0.10501  0.143492  0  0.988623  0
H  H5  1  0.89906391  0.17403469  0.10234755  1  0  0.131835  0  0.930278  0  0  0.145452  0  0.987655  0  0  0.148209  0  0.986579  0  0  0.105015  0.143473  0  0.988526  0
H  H6  1  0.89905852  0.67404883  0.39764516  1  0  0.131884  0  0.930377  0  0  0.145571  0  0.987707  0  0  0.148332  0  0.986622  0  0  0.105018  0.143587  0  0.988577  0
H  H7  1  0.10092615  0.82594417  0.89764911  1  0  0.131927  0  0.930415  0  0  0.145573  0  0.987764  0  0  0.148333  0  0.986682  0  0  0.105034  0.143591  0  0.988622  0
H  H8  1  0.25306095  0.42665054  0.52417975  1  0  0.136162  0  0.921196  0  0  0.151369  0  0.97779  0  0  0.153888  0  0.977013  0  0  0.111132  0.149519  0  0.978513  0
H  H9  1  0.74695483  0.07335445  0.02417153  1  0  0.136075  0  0.921228  0  0  0.151341  0  0.977756  0  0  0.153863  0  0.976971  0  0  0.111107  0.149498  0  0.978472  0
H  H10  1  0.74696085  0.57337162  0.47581974  1  0  0.13615  0  0.921202  0  0  0.151441  0  0.977764  0  0  0.153966  0  0.976976  0  0  0.111153  0.149596  0  0.978485  0
H  H11  1  0.25301603  0.92662209  0.97582570  1  0  0.136139  0  0.921049  0  0  0.151441  0  0.977559  0  0  0.153965  0  0.976773  0  0  0.111123  0.149583  0  0.978296  0
H  H12  1  0.62129433  0.50394889  0.60611043  1  0  0.056994  0  0.928616  0  0  0.068182  0  0.992629  0  0  0.069447  0  0.991706  0  0  0.114573  0.067135  0  0.993543  0
H  H13  1  0.37872468  0.99605131  0.10610415  1  0  0.056995  0  0.928626  0  0  0.068222  0  0.992742  0  0  0.069469  0  0.991814  0  0  0.114596  0.067199  0  0.993642  0
H  H14  1  0.37872576  0.49606457  0.39389357  1  0  0.056955  0  0.928732  0  0  0.068113  0  0.992812  0  0  0.069371  0  0.991888  0  0  0.114563  0.067076  0  0.993714  0
H  H15  1  0.62125382  0.00393637  0.89390042  1  0  0.056987  0  0.928586  0  0  0.068125  0  0.99271  0  0  0.069366  0  0.991769  0  0  0.114504  0.067083  0  0.993638  0
H  H16  1  0.56773852  0.26750958  0.52239935  1  0  0.120728  0  0.932057  0  0  0.134769  0  0.989721  0  0  0.136528  0  0.989714  0  0  0.106298  0.133473  0  0.989852  0
H  H17  1  0.43226307  0.23248475  0.02239768  1  0  0.120947  0  0.932121  0  0  0.134913  0  0.989839  0  0  0.136671  0  0.989834  0  0  0.106362  0.133621  0  0.989953  0
H  H18  1  0.43225575  0.73250163  0.47759957  1  0  0.120928  0  0.932131  0  0  0.134931  0  0.989761  0  0  0.136692  0  0.989753  0  0  0.106355  0.13364  0  0.989878  0
H  H19  1  0.56773100  0.76749158  0.97759955  1  0  0.12094  0  0.932101  0  0  0.134924  0  0.989794  0  0  0.136682  0  0.989789  0  0  0.106344  0.133628  0  0.989918  0
H  H20  1  0.68445411  0.22415145  0.60912114  1  0  0.136484  0  0.941366  0  0  0.147759  0  1.002311  0  0  0.150827  0  1.000686  0  0  0.103538  0.145542  0  1.003616  0
H  H21  1  0.31555353  0.27584398  0.10912065  1  0  0.136402  0  0.941453  0  0  0.147708  0  1.002376  0  0  0.150776  0  1.00075  0  0  0.10352  0.145488  0  1.00368  0
H  H22  1  0.31555341  0.77585963  0.39087778  1  0  0.136531  0  0.941337  0  0  0.147805  0  1.002254  0  0  0.150872  0  1.00063  0  0  0.10357  0.145595  0  1.003559  0
H  H23  1  0.68444940  0.72415095  0.89087545  1  0  0.136495  0  0.941396  0  0  0.147796  0  1.002307  0  0  0.150862  0  1.000687  0  0  0.103572  0.145579  0  1.00361  0
H  H24  1  0.44825477  0.49221317  0.72505684  1  0  0.348914  0  0.836456  0  0  0.324055  0  0.90545  0  0  0.331948  0  0.898984  0  0  0.315499  0.318368  0  0.910209  0
H  H25  1  0.55175489  0.00778662  0.22505347  1  0  0.348894  0  0.836388  0  0  0.324003  0  0.905432  0  0  0.331895  0  0.898968  0  0  0.315454  0.318324  0  0.910176  0
H  H26  1  0.55174110  0.50778930  0.27494659  1  0  0.3489  0  0.836416  0  0  0.324015  0  0.905443  0  0  0.331909  0  0.898976  0  0  0.315494  0.318335  0  0.910192  0
H  H27  1  0.44825687  0.99221820  0.77495166  1  0  0.348904  0  0.836481  0  0  0.323987  0  0.90552  0  0  0.33188  0  0.899058  0  0  0.315491  0.318308  0  0.91025  0
H  H28  1  0.32022591  0.28728652  0.71840871  1  0  0.339453  0  0.854346  0  0  0.314411  0  0.926003  0  0  0.321991  0  0.919915  0  0  0.306588  0.309  0  0.930404  0
H  H29  1  0.67978072  0.21271482  0.21840319  1  0  0.339341  0  0.854389  0  0  0.314319  0  0.925986  0  0  0.321898  0  0.919902  0  0  0.306601  0.308907  0  0.930389  0
H  H30  1  0.67978205  0.71271708  0.28159191  1  0  0.339354  0  0.854304  0  0  0.314345  0  0.925909  0  0  0.321922  0  0.919828  0  0  0.306564  0.308934  0  0.93031  0
H  H31  1  0.32021873  0.78729259  0.78159178  1  0  0.339386  0  0.854344  0  0  0.314343  0  0.926013  0  0  0.321923  0  0.919925  0  0  0.306578  0.308929  0  0.93042  0
H  H32  1  0.73461849  0.93287773  0.54728225  1  0  0.435784  0  0.869973  0  0  0.401675  0  0.937554  0  0  0.41348  0  0.920845  0  0  0.289638  0.393362  0  0.949297  0
H  H33  1  0.26537998  0.56711506  0.04727905  1  0  0.435751  0  0.870003  0  0  0.401644  0  0.937588  0  0  0.413443  0  0.920891  0  0  0.289621  0.393333  0  0.949328  0
H  H34  1  0.26538711  0.06712839  0.45272231  1  0  0.435679  0  0.870076  0  0  0.401566  0  0.937679  0  0  0.413367  0  0.920977  0  0  0.289591  0.393258  0  0.949414  0
H  H35  1  0.73461633  0.43287993  0.95271366  1  0  0.43572  0  0.870052  0  0  0.401614  0  0.93763  0  0  0.413412  0  0.920936  0  0  0.289661  0.393303  0  0.949372  0
H  H36  1  0.60844588  0.35353712  0.72244711  1  0  0.327261  0  0.880047  0  0  0.306657  0  0.945453  0  0  0.314215  0  0.939984  0  0  0.288823  0.301243  0  0.949451  0
H  H37  1  0.39156294  0.14646078  0.22244044  1  0  0.327286  0  0.880118  0  0  0.306688  0  0.945473  0  0  0.314242  0  0.940012  0  0  0.288855  0.301275  0  0.949476  0
H  H38  1  0.39156069  0.64647148  0.27755633  1  0  0.327381  0  0.88001  0  0  0.306695  0  0.945506  0  0  0.314248  0  0.940048  0  0  0.288863  0.301282  0  0.949507  0
H  H39  1  0.60843813  0.85353791  0.77755904  1  0  0.327302  0  0.88016  0  0  0.306725  0  0.945477  0  0  0.314281  0  0.940012  0  0  0.28887  0.301313  0  0.949479  0
H  H40  1  0.58761717  0.82490367  0.61812633  1  0  0.425462  0  0.881014  0  0  0.393216  0  0.94722  0  0  0.403238  0  0.932882  0  0  0.289868  0.386148  0  0.957331  0
H  H41  1  0.41238383  0.67510014  0.11811995  1  0  0.425482  0  0.88098  0  0  0.393282  0  0.94714  0  0  0.403311  0  0.932787  0  0  0.289943  0.386212  0  0.95725  0
H  H42  1  0.41239373  0.17511609  0.38187992  1  0  0.425403  0  0.881115  0  0  0.393162  0  0.947331  0  0  0.40319  0  0.93298  0  0  0.289859  0.386094  0  0.957441  0
H  H43  1  0.58760392  0.32488995  0.88187727  1  0  0.42536  0  0.881179  0  0  0.393158  0  0.947336  0  0  0.403185  0  0.932988  0  0  0.289899  0.386089  0  0.957449  0
C  C44  1  0.20955808  0.58963421  0.61260979  1  0  0.710474  0  3.842761  0  0  0.658453  0  4.146689  0  0  0.692345  0  4.139366  0  0  0.208371  0.635451  0  4.150864  0
C  C45  1  0.79045380  0.91036829  0.11259906  1  0  0.710034  0  3.843015  0  0  0.658339  0  4.146537  0  0  0.692226  0  4.139224  0  0  0.208327  0.635332  0  4.150708  0
C  C46  1  0.79044426  0.41038065  0.38739195  1  0  0.710044  0  3.843182  0  0  0.658299  0  4.146795  0  0  0.692165  0  4.139517  0  0  0.20832  0.635298  0  4.150962  0
C  C47  1  0.20952514  0.08961192  0.88739760  1  0  0.709914  0  3.843212  0  0  0.658399  0  4.146514  0  0  0.692279  0  4.139212  0  0  0.208311  0.635395  0  4.150696  0
C  C48  1  0.25169274  0.42734462  0.58627064  1  0  -0.345699  0  3.627369  0  0  -0.384392  0  3.871845  0  0  -0.392063  0  3.879486  0  0  -0.165935  -0.379091  0  3.86652  0
C  C49  1  0.74832061  0.07265105  0.08626632  1  0  -0.345662  0  3.627379  0  0  -0.384242  0  3.87175  0  0  -0.391913  0  3.879374  0  0  -0.165808  -0.378923  0  3.866432  0
C  C50  1  0.74832783  0.57267008  0.41373167  1  0  -0.345567  0  3.627254  0  0  -0.384503  0  3.871903  0  0  -0.392175  0  3.879564  0  0  -0.165877  -0.379192  0  3.866566  0
C  C51  1  0.25165117  0.92731926  0.91373147  1  0  -0.345727  0  3.627499  0  0  -0.38451  0  3.871847  0  0  -0.392213  0  3.879464  0  0  -0.165885  -0.379177  0  3.866525  0
C  C52  1  0.47380380  0.39671232  0.61711957  1  0  0.250002  0  3.516635  0  0  0.220957  0  3.76654  0  0  0.226412  0  3.780517  0  0  0.011944  0.21727  0  3.756986  0
C  C53  1  0.52620590  0.10328747  0.11711214  1  0  0.250352  0  3.516341  0  0  0.220935  0  3.766792  0  0  0.226433  0  3.78071  0  0  0.011952  0.217173  0  3.757355  0
C  C54  1  0.52619827  0.60329757  0.38288556  1  0  0.250167  0  3.516432  0  0  0.221089  0  3.766461  0  0  0.226554  0  3.78043  0  0  0.012016  0.217376  0  3.756961  0
C  C55  1  0.47378586  0.89670009  0.88288791  1  0  0.250145  0  3.516644  0  0  0.221018  0  3.766701  0  0  0.2266  0  3.780479  0  0  0.012027  0.217266  0  3.757265  0
C  C56  1  0.52893551  0.24404465  0.58239972  1  0  -0.335198  0  3.624145  0  0  -0.373724  0  3.867757  0  0  -0.380738  0  3.874734  0  0  -0.163388  -0.368937  0  3.863089  0
C  C57  1  0.47106892  0.25593704  0.08239506  1  0  -0.335481  0  3.624367  0  0  -0.373913  0  3.868075  0  0  -0.380928  0  3.875036  0  0  -0.163421  -0.369097  0  3.863413  0
C  C58  1  0.47106320  0.75595655  0.41760315  1  0  -0.335572  0  3.624317  0  0  -0.373974  0  3.867787  0  0  -0.380989  0  3.874759  0  0  -0.163476  -0.36917  0  3.863079  0
C  C59  1  0.52893065  0.74404920  0.91760329  1  0  -0.335531  0  3.624184  0  0  -0.373974  0  3.867838  0  0  -0.38102  0  3.87478  0  0  -0.163444  -0.369164  0  3.863171  0
C  C60  1  0.33768988  0.08592653  0.59177073  1  0  0.71073  0  3.818604  0  0  0.660068  0  4.116354  0  0  0.693732  0  4.109911  0  0  0.209465  0.637246  0  4.119987  0
C  C61  1  0.66230783  0.41406676  0.09177206  1  0  0.710898  0  3.818281  0  0  0.660303  0  4.115961  0  0  0.693969  0  4.10952  0  0  0.209578  0.637477  0  4.119589  0
C  C62  1  0.66231738  0.91407957  0.40822819  1  0  0.710909  0  3.818233  0  0  0.660286  0  4.115898  0  0  0.693947  0  4.109467  0  0  0.209601  0.637468  0  4.119517  0
C  C63  1  0.33768009  0.58591087  0.90822855  1  0  0.710972  0  3.817982  0  0  0.66029  0  4.115806  0  0  0.693957  0  4.109371  0  0  0.209525  0.637475  0  4.119433  0
N  N64  1  0.46080704  0.38184314  0.70158626  1  0  -0.516892  0  3.167974  0  0  -0.466736  0  3.36805  0  0  -0.481848  0  3.365278  0  0  -0.606634  -0.456323  0  3.370244  0
N  N65  1  0.53919888  0.11815836  0.20158011  1  0  -0.5169  0  3.167801  0  0  -0.466585  0  3.368016  0  0  -0.481704  0  3.365239  0  0  -0.606601  -0.45615  0  3.370231  0
N  N66  1  0.53918862  0.61816307  0.29841604  1  0  -0.517009  0  3.167759  0  0  -0.466746  0  3.367972  0  0  -0.481859  0  3.3652  0  0  -0.606677  -0.456324  0  3.370174  0
N  N67  1  0.46080267  0.88184157  0.79841881  1  0  -0.516888  0  3.167939  0  0  -0.466603  0  3.3681  0  0  -0.481748  0  3.365297  0  0  -0.60666  -0.45617  0  3.370311  0
Cl  Cl68  1  0.88382743  0.73395866  0.76074415  1  0  -0.575099  0  0.96482  0  0  -0.515427  0  1.246639  0  0  -0.53143  0  1.221259  0  0  -0.273507  -0.503973  0  1.26422  0
Cl  Cl69  1  0.11617089  0.76604714  0.26074205  1  0  -0.575184  0  0.964826  0  0  -0.51547  0  1.246581  0  0  -0.531472  0  1.221203  0  0  -0.273511  -0.504012  0  1.264166  0
Cl  Cl70  1  0.11617630  0.26605121  0.23925646  1  0  -0.575071  0  0.964817  0  0  -0.515447  0  1.246641  0  0  -0.531446  0  1.22126  0  0  -0.273502  -0.503982  0  1.264229  0
Cl  Cl71  1  0.88382943  0.23394533  0.73925517  1  0  -0.575128  0  0.964897  0  0  -0.515464  0  1.246686  0  0  -0.531463  0  1.2213  0  0  -0.273503  -0.504009  0  1.264274  0
O  O72  1  0.02463665  0.62340213  0.59040407  1  0  -0.636056  0  2.017111  0  0  -0.568375  0  2.281878  0  0  -0.597258  0  2.268281  0  0  -0.320115  -0.548296  0  2.290577  0
O  O73  1  0.97538780  0.87660538  0.09039661  1  0  -0.635751  0  2.016586  0  0  -0.568407  0  2.281458  0  0  -0.59729  0  2.267856  0  0  -0.320197  -0.548319  0  2.290145  0
O  O74  1  0.97537611  0.37661389  0.40959654  1  0  -0.63585  0  2.016755  0  0  -0.568288  0  2.281434  0  0  -0.597162  0  2.267847  0  0  -0.320157  -0.548199  0  2.290117  0
O  O75  1  0.02458616  0.12337487  0.90960005  1  0  -0.635711  0  2.016602  0  0  -0.568399  0  2.281354  0  0  -0.597278  0  2.267757  0  0  -0.320169  -0.548318  0  2.290057  0
O  O76  1  0.73752873  0.90111506  0.60260846  1  0  -0.845481  0  1.942084  0  0  -0.774784  0  2.171475  0  0  -0.798705  0  2.134464  0  0  -0.581793  -0.758019  0  2.197102  0
O  O77  1  0.26247006  0.59888489  0.10260480  1  0  -0.845525  0  1.942095  0  0  -0.774885  0  2.171371  0  0  -0.79881  0  2.134359  0  0  -0.581867  -0.758117  0  2.196991  0
O  O78  1  0.26247645  0.09889854  0.39739610  1  0  -0.845374  0  1.942186  0  0  -0.774696  0  2.171497  0  0  -0.79862  0  2.134491  0  0  -0.581774  -0.75792  0  2.197101  0
O  O79  1  0.73751678  0.40111144  0.89738847  1  0  -0.845372  0  1.942285  0  0  -0.774678  0  2.171513  0  0  -0.798598  0  2.134504  0  0  -0.581865  -0.757901  0  2.197117  0
O  O80  1  0.35685775  0.68475409  0.65527697  1  0  -0.675887  0  2.003587  0  0  -0.613112  0  2.238915  0  0  -0.637579  0  2.228373  0  0  -0.324721  -0.595972  0  2.245645  0
O  O81  1  0.64316484  0.81524096  0.15526168  1  0  -0.675629  0  2.003747  0  0  -0.612987  0  2.238927  0  0  -0.637434  0  2.228342  0  0  -0.324669  -0.595853  0  2.24567  0
O  O82  1  0.64316261  0.31526435  0.34472760  1  0  -0.675621  0  2.003914  0  0  -0.612982  0  2.239192  0  0  -0.63742  0  2.22862  0  0  -0.32468  -0.595839  0  2.245909  0
O  O83  1  0.35682286  0.18474041  0.84473780  1  0  -0.675545  0  2.003834  0  0  -0.613001  0  2.238983  0  0  -0.637463  0  2.228431  0  0  -0.324661  -0.59586  0  2.245713  0
O  O84  1  0.24487304  0.00053618  0.53575269  1  0  -0.617107  0  1.977726  0  0  -0.551082  0  2.197256  0  0  -0.577059  0  2.187844  0  0  -0.303751  -0.533085  0  2.203256  0
O  O85  1  0.75514010  0.49946493  0.03574103  1  0  -0.617395  0  1.977086  0  0  -0.551352  0  2.196538  0  0  -0.577332  0  2.187132  0  0  -0.303951  -0.533335  0  2.202524  0
O  O86  1  0.75515599  0.99946599  0.46425920  1  0  -0.617489  0  1.977243  0  0  -0.551391  0  2.196666  0  0  -0.577376  0  2.187259  0  0  -0.303956  -0.533376  0  2.202651  0
O  O87  1  0.24485690  0.50052757  0.96425055  1  0  -0.617402  0  1.977637  0  0  -0.551283  0  2.197124  0  0  -0.57726  0  2.18771  0  0  -0.303877  -0.533286  0  2.203126  0
O  O88  1  0.27171391  0.04185826  0.65973853  1  0  -0.656185  0  2.020787  0  0  -0.581874  0  2.286525  0  0  -0.611259  0  2.273503  0  0  -0.325449  -0.561442  0  2.29479  0
O  O89  1  0.72829565  0.45814041  0.15973101  1  0  -0.656147  0  2.021269  0  0  -0.581836  0  2.286916  0  0  -0.611252  0  2.273952  0  0  -0.325441  -0.561409  0  2.295166  0
O  O90  1  0.72829885  0.95815776  0.34026773  1  0  -0.65598  0  2.020998  0  0  -0.581783  0  2.286828  0  0  -0.611156  0  2.273802  0  0  -0.325416  -0.561368  0  2.295107  0
O  O91  1  0.27170676  0.54184456  0.84026058  1  0  -0.656101  0  2.020497  0  0  -0.581932  0  2.286453  0  0  -0.611309  0  2.273389  0  0  -0.325443  -0.56151  0  2.29474  0
