# generated using pymatgen
data_CoH14C20SN2O7
_symmetry_space_group_name_H-M   'P 1'
_cell_length_a   8.93176228
_cell_length_b   10.08901269
_cell_length_c   12.75820416
_cell_angle_alpha   110.60007126
_cell_angle_beta   93.83433385
_cell_angle_gamma   111.10681626
_symmetry_Int_Tables_number   1
_chemical_formula_structural   CoH14C20SN2O7
_chemical_formula_sum   'Co2 H28 C40 S2 N4 O14'
_cell_volume   978.98901905
_cell_formula_units_Z   2
loop_
 _symmetry_equiv_pos_site_id
 _symmetry_equiv_pos_as_xyz
  1  'x, y, z'
loop_
 _atom_site_type_symbol
 _atom_site_label
 _atom_site_symmetry_multiplicity
 _atom_site_fract_x
 _atom_site_fract_y
 _atom_site_fract_z
 _atom_site_occupancy
 _atom_site_hle17_ddec_charge
 _atom_site_hle17_ddec_spin_density
 _atom_site_hle17_ddec_sum_bond_order
 _atom_site_hle17_magmom
 _atom_site_hse06_10hf_ddec_charge
 _atom_site_hse06_10hf_ddec_spin_density
 _atom_site_hse06_10hf_ddec_sum_bond_order
 _atom_site_hse06_10hf_magmom
 _atom_site_hse06_ddec_charge
 _atom_site_hse06_ddec_spin_density
 _atom_site_hse06_ddec_sum_bond_order
 _atom_site_hse06_magmom
 _atom_site_pbe_cm5_charge
 _atom_site_pbe_ddec_charge
 _atom_site_pbe_ddec_spin_density
 _atom_site_pbe_ddec_sum_bond_order
 _atom_site_pbe_magmom
Co  Co0  1  0.66030341  0.10607165  0.20136281  1  0.984638  2.885957  1.957195  2.594  0.943108  2.868918  2.360415  2.654  1.014704  2.896699  2.291171  2.72  0.673308  0.886339  2.850347  2.419434  2.597
Co  Co1  1  0.33969835  0.89393305  0.79863978  1  0.984636  2.885955  1.95717  2.594  0.943047  2.868915  2.360455  2.654  1.014667  2.896699  2.291192  2.72  0.673296  0.886293  2.850348  2.419465  2.597
H  H2  1  0.32342819  0.03318268  0.28096187  1  0.094943  0.000614  0.917131  0.002  0.103959  0.000393  0.976103  0.001  0.107679  0.000262  0.972125  0.001  0.12313  0.100492  0.000552  0.980004  0.002
H  H3  1  0.67657590  0.96681963  0.71903626  1  0.094916  0.000614  0.917162  0.002  0.103949  0.000393  0.976117  0.001  0.107669  0.000262  0.972139  0.001  0.123135  0.100481  0.000552  0.980017  0.002
H  H4  1  0.24319234  0.07810613  0.47195189  1  0.103809  0.000261  0.934769  0.0  0.117547  0.000445  0.98492  0.0  0.120716  0.000322  0.984739  0.0  0.10797  0.114971  0.000563  0.985796  0.0
H  H5  1  0.75681247  0.92189270  0.52804612  1  0.103862  0.000261  0.934662  0.0  0.117597  0.000445  0.984809  0.0  0.120765  0.000322  0.984627  0.0  0.108013  0.115022  0.000563  0.985682  0.0
H  H6  1  0.46314716  0.20776180  0.65103982  1  0.096146  4.6e-05  0.991166  0.001  0.102633  -0.000315  1.061262  0.0  0.10593  -0.000234  1.058642  0.0  0.098222  0.099806  -0.000448  1.063623  0.0
H  H7  1  0.53685560  0.79223238  0.34895682  1  0.096218  4.6e-05  0.991242  0.001  0.102719  -0.000315  1.061293  0.0  0.106014  -0.000234  1.058674  0.0  0.09827  0.099892  -0.000448  1.063652  0.0
H  H8  1  0.77350024  0.33875682  0.74204357  1  0.107449  0.000105  0.9631  0.0  0.116515  8e-05  1.025168  0.0  0.119295  4.9e-05  1.025106  0.0  0.104045  0.114115  0.000111  1.025624  0.0
H  H9  1  0.22649885  0.66123161  0.25795526  1  0.107451  0.000105  0.963065  0.0  0.116515  8e-05  1.025152  0.0  0.119296  4.9e-05  1.025089  0.0  0.104043  0.114115  0.000111  1.025608  0.0
H  H10  1  0.06116239  0.42299381  0.71597169  1  0.123189  0.000142  0.959642  0.0  0.132029  0.000158  1.02049  0.0  0.136797  7.5e-05  1.016971  0.0  0.105956  0.128147  0.000299  1.023344  0.0
H  H11  1  0.93884038  0.57700045  0.28403046  1  0.123196  0.000142  0.95965  0.0  0.132051  0.000158  1.020481  0.0  0.136818  7.5e-05  1.016958  0.0  0.105954  0.128169  0.000299  1.023335  0.0
H  H12  1  0.25763430  0.43319778  0.58173482  1  0.108682  0.000153  0.943096  0.001  0.117908  -8.7e-05  1.005654  0.0  0.121358  -5.7e-05  1.002937  0.0  0.107753  0.114993  -0.000136  1.008107  0.0
H  H13  1  0.74236909  0.56680810  0.41826972  1  0.108649  0.000153  0.943121  0.001  0.117903  -8.7e-05  1.005663  0.0  0.12136  -5.7e-05  1.00294  0.0  0.107746  0.114987  -0.000136  1.008117  0.0
H  H14  1  0.29284505  0.36085882  0.37688186  1  0.107458  0.000306  0.933733  0.0  0.120677  0.00034  0.985196  0.0  0.123676  0.000243  0.985146  0.0  0.109143  0.118306  0.000419  0.985885  0.001
H  H15  1  0.70716160  0.63914935  0.62312190  1  0.107448  0.000306  0.933684  0.0  0.120644  0.00034  0.985176  0.0  0.123644  0.000243  0.985125  0.0  0.109129  0.118274  0.000419  0.985864  0.001
H  H16  1  0.04354400  0.21907894  0.21654285  1  0.088579  0.000512  0.938604  0.002  0.092714  0.000451  1.008132  0.001  0.096274  0.000304  1.003998  0.001  0.121216  0.089743  0.00062  1.011636  0.002
H  H17  1  0.95646275  0.78092688  0.78345871  1  0.088607  0.000512  0.938553  0.002  0.092729  0.000451  1.008105  0.001  0.096293  0.000305  1.003963  0.001  0.121235  0.089755  0.00062  1.011612  0.002
H  H18  1  0.96991254  0.08120804  0.95019805  1  0.095374  8.4e-05  0.922318  0.0  0.109668  0.000101  0.981559  0.0  0.110887  5.2e-05  0.980582  0.0  0.11765  0.108615  0.00016  0.982416  0.0
H  H19  1  0.03008270  0.91879206  0.04980531  1  0.095342  8.4e-05  0.92234  0.0  0.109668  0.000101  0.981563  0.0  0.110888  5.2e-05  0.980585  0.0  0.117667  0.108617  0.00016  0.98242  0.0
H  H20  1  0.12032041  0.17740759  0.88403707  1  0.074858  -2.8e-05  0.927114  0.0  0.084875  -3.2e-05  0.994537  0.0  0.085964  -5.3e-05  0.993252  0.0  0.102266  0.084191  1e-06  0.99532  0.0
H  H21  1  0.87967116  0.82258668  0.11596218  1  0.074804  -2.7e-05  0.927137  0.0  0.084871  -3.2e-05  0.994526  0.0  0.085961  -5.3e-05  0.99324  0.0  0.102263  0.084189  1e-06  0.995308  0.0
H  H22  1  0.92413856  0.30976731  0.93916369  1  0.103036  1.1e-05  0.939974  0.0  0.112861  8e-06  1.001958  0.0  0.11478  3e-06  0.999903  0.0  0.115481  0.111547  1.6e-05  1.003394  0.0
H  H23  1  0.07585566  0.69023043  0.06083584  1  0.103035  1.1e-05  0.939961  0.0  0.11289  8e-06  1.001934  0.0  0.114808  3e-06  0.999878  0.0  0.115498  0.11158  1.6e-05  1.003369  0.0
H  H24  1  0.97985814  0.33429924  0.08265530  1  0.080194  -9.4e-05  0.911114  0.0  0.093881  -0.000117  0.971519  0.0  0.09401  -0.000117  0.971287  0.0  0.109501  0.0938  -0.000117  0.971609  0.0
H  H25  1  0.02013649  0.66570198  0.91734442  1  0.08019  -9.4e-05  0.911099  0.0  0.0939  -0.000117  0.971497  0.0  0.094027  -0.000117  0.971263  0.0  0.109506  0.09382  -0.000117  0.971586  0.0
H  H26  1  0.67684249  0.97127974  0.98775457  1  0.427738  -8.2e-05  0.864423  0.0  0.395908  0.00039  0.939775  0.001  0.407797  0.000155  0.922539  0.001  0.296454  0.387393  0.000646  0.951986  0.001
H  H27  1  0.32314887  0.02871918  0.01224593  1  0.427757  -8.2e-05  0.864376  0.0  0.395913  0.00039  0.939765  0.001  0.407802  0.000155  0.92253  0.001  0.296444  0.387399  0.000646  0.951975  0.001
H  H28  1  0.69310136  0.13627873  0.00706528  1  0.432678  -5.4e-05  0.871501  0.0  0.404469  0.000346  0.932136  0.001  0.415126  0.000163  0.916946  0.001  0.298198  0.396698  0.000483  0.943307  0.001
H  H29  1  0.30689714  0.86372368  0.99293809  1  0.432687  -5.4e-05  0.87149  0.0  0.404484  0.000347  0.932116  0.001  0.415141  0.000164  0.916926  0.001  0.298211  0.396714  0.000483  0.943287  0.001
C  C30  1  0.41566281  0.08953064  0.36115070  1  0.143765  -0.028053  3.678732  -0.018  0.11281  -0.011587  3.942078  -0.007  0.123629  -0.009654  3.95451  -0.006  0.054965  0.104894  -0.014316  3.934967  -0.008
C  C31  1  0.58434078  0.91047052  0.63884787  1  0.143781  -0.028042  3.678564  -0.018  0.112824  -0.011587  3.941905  -0.007  0.123643  -0.009654  3.954335  -0.006  0.054923  0.104906  -0.014315  3.934798  -0.008
C  C32  1  0.37265228  0.11581299  0.46824382  1  -0.122763  0.009058  3.755936  0.013  -0.136505  0.00306  4.013493  0.005  -0.143793  0.003072  4.03307  0.005  -0.086585  -0.132097  0.002664  4.001853  0.005
C  C33  1  0.62735028  0.88418585  0.53175408  1  -0.122786  0.009049  3.755855  0.013  -0.136534  0.00306  4.013421  0.005  -0.143821  0.003071  4.032998  0.005  -0.086592  -0.132126  0.002663  4.001785  0.005
C  C34  1  0.49471852  0.18855951  0.56758892  1  -0.050876  -0.030379  3.683913  -0.019  -0.076378  -0.013243  3.932538  -0.007  -0.071357  -0.009617  3.947789  -0.005  -0.070774  -0.081117  -0.019102  3.92427  -0.011
C  C35  1  0.50528516  0.81143931  0.43240824  1  -0.050957  -0.030359  3.68409  -0.019  -0.076471  -0.013243  3.932719  -0.007  -0.071447  -0.009615  3.947966  -0.005  -0.07083  -0.081211  -0.019101  3.924453  -0.011
C  C36  1  0.66141854  0.23734392  0.55975917  1  0.025914  0.00517  3.803425  0.008  0.044081  0.001655  4.032402  0.003  0.041155  0.001655  4.056396  0.003  -0.003172  0.046125  0.001599  4.017111  0.004
C  C37  1  0.33858636  0.76265259  0.44023900  1  0.025875  0.005162  3.803326  0.008  0.044061  0.001655  4.032287  0.003  0.041135  0.001655  4.056279  0.003  -0.00319  0.046105  0.001599  4.016997  0.004
C  C38  1  0.79836631  0.31494241  0.65633335  1  -0.104831  -0.000826  3.731341  -0.001  -0.126215  -7.6e-05  3.984191  0.0  -0.130517  -0.000534  4.007911  0.0  -0.085653  -0.123302  8.3e-05  3.96901  0.0
C  C39  1  0.20163371  0.68505066  0.34366599  1  -0.104834  -0.000822  3.73132  -0.001  -0.126235  -7.6e-05  3.984192  0.0  -0.13054  -0.000534  4.007912  0.0  -0.085654  -0.123321  8.3e-05  3.969011  0.0
C  C40  1  0.95702956  0.35928133  0.64231081  1  -0.096833  0.002443  3.710995  0.003  -0.119382  0.000915  3.960943  0.001  -0.121664  0.000915  3.981554  0.001  -0.082959  -0.118218  0.001037  3.94827  0.001
C  C41  1  0.04297209  0.64071291  0.35768971  1  -0.096802  0.002442  3.710993  0.003  -0.119368  0.000915  3.960937  0.001  -0.121646  0.000914  3.981544  0.001  -0.08295  -0.118204  0.001037  3.948264  0.001
C  C42  1  0.99169593  0.32742856  0.52993853  1  0.030008  0.002733  3.782516  0.005  0.047372  0.000826  4.01309  0.002  0.044193  0.000506  4.036493  0.001  -0.000611  0.049367  0.000977  3.998396  0.002
C  C43  1  0.00830715  0.67257148  0.47006285  1  0.029902  0.002733  3.78241  0.005  0.047273  0.000826  4.012974  0.002  0.044094  0.000506  4.036376  0.001  -0.000672  0.049267  0.000977  3.998281  0.002
C  C44  1  0.15213476  0.37006739  0.50900904  1  -0.043595  -0.018863  3.670554  -0.012  -0.070744  -0.006986  3.922858  -0.004  -0.065316  -0.003655  3.937535  -0.002  -0.063259  -0.075157  -0.011509  3.914426  -0.006
C  C45  1  0.84787025  0.62993963  0.49099511  1  -0.04353  -0.01887  3.670574  -0.012  -0.070721  -0.006987  3.922871  -0.004  -0.065301  -0.003654  3.937547  -0.002  -0.063219  -0.075135  -0.01151  3.914444  -0.006
C  C46  1  0.17123113  0.33138792  0.39665295  1  -0.121997  0.005732  3.742395  0.009  -0.135716  0.001921  3.998515  0.004  -0.1431  0.001638  4.018102  0.003  -0.084569  -0.1316  0.001582  3.987284  0.004
C  C47  1  0.82877603  0.66862142  0.60335115  1  -0.121987  0.005735  3.742425  0.009  -0.135681  0.001921  3.998543  0.004  -0.143066  0.001637  4.018133  0.003  -0.08458  -0.131568  0.001581  3.987316  0.004
C  C48  1  0.03152973  0.25162324  0.30565301  1  0.145084  -0.016305  3.664496  -0.01  0.116367  -0.004593  3.92399  -0.002  0.127514  -0.00307  3.936941  -0.001  0.059062  0.107967  -0.006008  3.916398  -0.002
C  C49  1  0.96847752  0.74838373  0.69434810  1  0.145056  -0.016309  3.664515  -0.01  0.116351  -0.004593  3.92401  -0.002  0.127497  -0.003069  3.936962  -0.001  0.05909  0.107956  -0.006008  3.916416  -0.002
C  C50  1  0.85835439  0.24858678  0.43292850  1  0.132557  -0.009492  3.749011  -0.006  0.126648  -0.004023  3.989518  -0.002  0.132544  -0.002019  4.009387  -0.001  0.117617  0.121945  -0.006595  3.976735  -0.003
C  C51  1  0.14165256  0.75141439  0.56707182  1  0.132597  -0.009495  3.74874  -0.006  0.126745  -0.004024  3.989163  -0.002  0.132641  -0.002021  4.00903  -0.001  0.117621  0.122043  -0.006596  3.976381  -0.003
C  C52  1  0.69285470  0.20498015  0.44810482  1  0.127212  -0.015582  3.76433  -0.01  0.120945  -0.007151  4.006099  -0.004  0.12598  -0.005417  4.026134  -0.003  0.113941  0.116723  -0.010239  3.993718  -0.006
C  C53  1  0.30714940  0.79502216  0.55189331  1  0.127138  -0.015568  3.764303  -0.01  0.120859  -0.007152  4.006043  -0.004  0.125894  -0.005417  4.026078  -0.003  0.11395  0.116636  -0.010239  3.993662  -0.006
C  C54  1  0.55461751  0.30161529  0.17558910  1  0.645186  -0.007779  3.962461  -0.007  0.598237  -0.001727  4.262632  -0.002  0.63466  -0.001763  4.256535  -0.002  0.184547  0.571296  -0.003506  4.265482  -0.004
C  C55  1  0.44538098  0.69838710  0.82441348  1  0.64501  -0.007778  3.962685  -0.007  0.598051  -0.001726  4.262856  -0.002  0.634474  -0.001762  4.256764  -0.002  0.184492  0.571112  -0.003505  4.265705  -0.004
C  C56  1  0.48323718  0.39936838  0.15045202  1  -0.250608  0.001152  3.75513  0.001  -0.242195  0.000925  4.039003  0.001  -0.249826  0.000484  4.055283  0.0  -0.045663  -0.237061  0.001375  4.028618  0.002
C  C57  1  0.51675856  0.60063285  0.84954853  1  -0.250399  0.001154  3.755223  0.001  -0.241962  0.000925  4.039062  0.001  -0.249592  0.000483  4.055341  0.0  -0.045603  -0.236829  0.001375  4.028677  0.002
C  C58  1  0.32498348  0.35703855  0.09228450  1  0.163594  -0.000934  3.813266  0.0  0.137336  -0.000153  4.089465  0.0  0.147452  -0.000254  4.104297  0.0  0.068575  0.130524  -0.000401  4.079685  0.0
C  C59  1  0.67501023  0.64295799  0.90771156  1  0.163451  -0.000937  3.813383  0.0  0.137164  -0.000153  4.089582  0.0  0.147291  -0.000255  4.104419  0.0  0.068515  0.130348  -0.000401  4.079801  0.0
C  C60  1  0.07325990  0.18929556  0.96289628  1  0.041983  0.000115  3.587005  0.0  -0.023637  0.000172  3.86252  0.0  -0.01706  9e-05  3.866637  0.0  -0.071209  -0.027852  0.000256  3.85958  0.0
C  C61  1  0.92673594  0.81070335  0.03710523  1  0.042111  0.000116  3.586937  0.0  -0.023586  0.000172  3.862523  0.0  -0.016998  9e-05  3.866646  0.0  -0.071213  -0.027812  0.000256  3.85959  0.0
C  C62  1  0.02319697  0.32332152  0.00257896  1  0.041726  1.5e-05  3.592468  0.0  -0.019527  3.6e-05  3.866443  0.0  -0.011898  5e-06  3.869285  0.0  -0.071164  -0.024688  8.7e-05  3.864263  0.0
C  C63  1  0.97679776  0.67667737  0.99742013  1  0.041672  1.3e-05  3.59242  0.0  -0.019674  3.6e-05  3.866555  0.0  -0.012039  4e-06  3.869384  0.0  -0.071226  -0.024837  8.7e-05  3.864381  0.0
C  C64  1  0.30411846  0.48318739  0.07614241  1  0.151448  -0.001267  3.857965  -0.001  0.126889  -0.000155  4.137277  0.0  0.137311  -0.000147  4.152187  0.0  0.06855  0.11963  -0.000355  4.127437  0.0
C  C65  1  0.69587799  0.51681029  0.92385330  1  0.151644  -0.001266  3.857983  -0.001  0.127115  -0.000155  4.13722  0.0  0.137542  -0.000147  4.152121  0.0  0.068628  0.119855  -0.000356  4.127383  0.0
C  C66  1  0.44796157  0.61925863  0.12102031  1  -0.259406  0.003535  3.734601  0.005  -0.250999  0.002074  4.016757  0.003  -0.25998  0.00132  4.03487  0.002  -0.043085  -0.244773  0.002491  4.004885  0.004
C  C67  1  0.55203539  0.38074020  0.87897495  1  -0.259493  0.003535  3.734554  0.005  -0.25106  0.002074  4.016658  0.003  -0.260051  0.001321  4.034782  0.002  -0.043061  -0.244834  0.002492  4.004788  0.004
C  C68  1  0.47411958  0.77325578  0.12300723  1  0.666048  -0.004936  3.955219  -0.004  0.617155  -0.000171  4.264446  0.0  0.65306  -0.000217  4.256095  0.0  0.194591  0.591  -0.001565  4.270016  -0.001
C  C69  1  0.52587617  0.22674545  0.87699412  1  0.665917  -0.004937  3.955143  -0.004  0.616999  -0.000171  4.264381  0.0  0.652905  -0.000217  4.256033  0.0  0.19447  0.590844  -0.001565  4.269948  -0.001
S  S70  1  0.60622341  0.59172952  0.18310501  1  0.16863  0.000899  2.680135  0.001  0.153013  0.001336  3.022561  0.001  0.153653  0.000859  3.029111  0.001  0.086089  0.153461  0.001072  3.017098  0.0
S  S71  1  0.39377508  0.40827281  0.81689206  1  0.168625  0.000899  2.680124  0.001  0.152987  0.001336  3.022529  0.001  0.153628  0.000859  3.029082  0.001  0.086092  0.153436  0.001072  3.017067  0.0
N  N72  1  0.57191546  0.13210733  0.35119141  1  -0.334063  0.036731  3.325238  0.072  -0.291644  0.025541  3.60814  0.048  -0.312393  0.021651  3.622025  0.042  -0.32277  -0.277778  0.028626  3.600172  0.052
N  N73  1  0.42808752  0.86789502  0.64880903  1  -0.334038  0.036725  3.325138  0.072  -0.29163  0.02554  3.608061  0.048  -0.312382  0.02165  3.621947  0.042  -0.322769  -0.277769  0.028624  3.600096  0.052
N  N74  1  0.87861618  0.21177414  0.32304863  1  -0.322417  0.039277  3.286156  0.066  -0.279328  0.028803  3.570829  0.044  -0.301261  0.023178  3.583481  0.036  -0.318688  -0.262965  0.034114  3.561102  0.051
N  N75  1  0.12139016  0.78822819  0.67695197  1  -0.322343  0.03928  3.286096  0.066  -0.27928  0.028804  3.570753  0.044  -0.301217  0.023178  3.583409  0.036  -0.318694  -0.26292  0.034115  3.561027  0.051
O  O76  1  0.46168449  0.15739853  0.14921485  1  -0.632183  0.041337  2.052905  0.07  -0.589009  0.030727  2.309612  0.049  -0.625475  0.022097  2.300909  0.035  -0.310777  -0.558086  0.041454  2.314032  0.066
O  O77  1  0.53831238  0.84260270  0.85078655  1  -0.632119  0.041337  2.052987  0.07  -0.588948  0.030727  2.309706  0.049  -0.625421  0.022097  2.301009  0.035  -0.310775  -0.55802  0.041453  2.314106  0.066
O  O78  1  0.70633358  0.35711097  0.22220301  1  -0.605837  0.027006  1.943331  0.051  -0.573891  0.021829  2.190474  0.039  -0.605733  0.015818  2.182884  0.03  -0.311069  -0.546647  0.029444  2.193682  0.052
O  O79  1  0.29366624  0.64288676  0.77779759  1  -0.605793  0.027003  1.943395  0.051  -0.573835  0.021827  2.190537  0.039  -0.605668  0.015817  2.182922  0.03  -0.311047  -0.546595  0.029441  2.193741  0.052
O  O80  1  0.20266561  0.21149918  0.05176013  1  -0.252815  0.00025  2.283652  0.0  -0.182535  0.000294  2.521984  0.0  -0.199774  0.000109  2.524128  0.0  -0.175239  -0.170779  0.000414  2.520066  0.0
O  O81  1  0.79733024  0.78849971  0.94823901  1  -0.252864  0.00025  2.283648  0.0  -0.182548  0.000294  2.521978  0.0  -0.199825  0.000109  2.524148  0.0  -0.175258  -0.170779  0.000414  2.520057  0.0
O  O82  1  0.15983839  0.46878097  0.02229849  1  -0.239725  -0.000202  2.313497  0.0  -0.174695  -1.4e-05  2.551519  0.0  -0.19243  -4.1e-05  2.554328  0.0  -0.169576  -0.162195  -0.000112  2.549133  0.0
O  O83  1  0.84015602  0.53121204  0.97769429  1  -0.239792  -0.000201  2.313634  0.0  -0.174761  -1.4e-05  2.551693  0.0  -0.192483  -4.1e-05  2.554478  0.0  -0.169632  -0.16226  -0.000112  2.549308  0.0
O  O84  1  0.35434175  0.78951996  0.07950680  1  -0.616527  -0.001143  1.976123  0.0  -0.568994  0.000277  2.209015  0.001  -0.591963  -0.000233  2.198067  0.0  -0.314397  -0.552934  -3.3e-05  2.217633  0.001
O  O85  1  0.64565450  0.21048241  0.92049253  1  -0.616488  -0.001143  1.976073  0.0  -0.568895  0.000278  2.208926  0.001  -0.591862  -0.000233  2.197981  0.0  -0.31433  -0.552833  -3.2e-05  2.217541  0.001
O  O86  1  0.61955736  0.88189995  0.17308028  1  -0.635852  0.041682  2.038372  0.073  -0.603512  0.03099  2.314732  0.05  -0.638631  0.023729  2.302541  0.038  -0.332574  -0.574081  0.039398  2.321031  0.063
O  O87  1  0.38043788  0.11810010  0.82691836  1  -0.635774  0.041685  2.038393  0.073  -0.603429  0.030991  2.314759  0.05  -0.638562  0.023731  2.302594  0.038  -0.332531  -0.573998  0.039401  2.321056  0.063
O  O88  1  0.72791875  0.07917049  0.04735165  1  -0.821559  0.030686  1.960351  0.052  -0.784689  0.027423  2.181362  0.041  -0.81397  0.021629  2.146211  0.032  -0.574406  -0.760755  0.033554  2.205986  0.049
O  O89  1  0.27207659  0.92082725  0.95264873  1  -0.821618  0.030687  1.960373  0.052  -0.784696  0.027423  2.181352  0.041  -0.813984  0.021629  2.146202  0.032  -0.574397  -0.760766  0.033554  2.205978  0.049
