# generated using pymatgen
data_EuH20C24NO10
_symmetry_space_group_name_H-M   'P 1'
_cell_length_a   10.60826129
_cell_length_b   16.78490864
_cell_length_c   18.73701385
_cell_angle_alpha   89.99934668
_cell_angle_beta   90.00048649
_cell_angle_gamma   90.00352013
_symmetry_Int_Tables_number   1
_chemical_formula_structural   EuH20C24NO10
_chemical_formula_sum   'Eu4 H80 C96 N4 O40'
_cell_volume   3336.28825901
_cell_formula_units_Z   4
loop_
 _symmetry_equiv_pos_site_id
 _symmetry_equiv_pos_as_xyz
  1  'x, y, z'
loop_
 _atom_site_type_symbol
 _atom_site_label
 _atom_site_symmetry_multiplicity
 _atom_site_fract_x
 _atom_site_fract_y
 _atom_site_fract_z
 _atom_site_occupancy
 _atom_site_pbe_bader_charge
 _atom_site_pbe_bader_spin_density
 _atom_site_pbe_cm5_charge
 _atom_site_pbe_ddec_charge
 _atom_site_pbe_ddec_spin_density
 _atom_site_pbe_ddec_sum_bond_order
 _atom_site_pbe_magmom
Eu  Eu0  1  0.29829240  0.25000758  0.70144043  1  2.196416  0  1.524968  2.096649  0  2.172815  0
Eu  Eu1  1  0.20170115  0.74999367  0.20144599  1  2.196227  0  1.524955  2.096863  0  2.172753  0
Eu  Eu2  1  0.70170842  0.74999335  0.29855924  1  2.196472  0  1.524985  2.096695  0  2.172705  0
Eu  Eu3  1  0.79829873  0.25000666  0.79855421  1  2.196279  0  1.524959  2.096806  0  2.172844  0
H  H4  1  0.35673765  0.24999617  0.23393331  1  0.604387  0  0.344552  0.380633  0  0.851177  0
H  H5  1  0.14326864  0.75000050  0.73393678  1  0.604597  0  0.344573  0.380728  0  0.850995  0
H  H6  1  0.64326506  0.75000297  0.76606636  1  0.604517  0  0.344579  0.380645  0  0.851213  0
H  H7  1  0.85673218  0.24999864  0.26606289  1  0.604586  0  0.344597  0.380774  0  0.85099  0
H  H8  1  0.95062756  0.25000081  0.97389148  1  0.123743  0  0.118527  0.12628  0  0.996975  0
H  H9  1  0.54939261  0.75000177  0.47388510  1  0.124449  0  0.118466  0.126365  0  0.996777  0
H  H10  1  0.04937420  0.74999953  0.02610872  1  0.123717  0  0.118509  0.126301  0  0.996922  0
H  H11  1  0.45060444  0.24999618  0.52611456  1  0.124415  0  0.118464  0.126376  0  0.996699  0
H  H12  1  0.01470323  0.24999862  0.10285078  1  0.087552  0  0.105898  0.108237  0  1.003382  0
H  H13  1  0.48529543  0.74999970  0.60284413  1  0.08777  0  0.105888  0.108307  0  1.003257  0
H  H14  1  0.98529854  0.74999933  0.89714943  1  0.08753  0  0.105949  0.108303  0  1.003278  0
H  H15  1  0.51470445  0.24999885  0.39715500  1  0.087593  0  0.105918  0.108316  0  1.003274  0
H  H16  1  0.34065817  0.24999575  0.91556537  1  0.086733  0  0.105817  0.099903  0  1.052696  0
H  H17  1  0.15934899  0.75000758  0.41556592  1  0.075141  0  0.105771  0.099878  0  1.052771  0
H  H18  1  0.65934171  0.75000577  0.08443483  1  0.086745  0  0.105828  0.099922  0  1.052665  0
H  H19  1  0.84064995  0.24999275  0.58443428  1  0.075115  0  0.105784  0.099906  0  1.052737  0
H  H20  1  0.49512785  0.17439550  0.95587191  1  0.004281  0  0.088657  0.052903  0  1.018765  0
H  H21  1  0.00486484  0.82560554  0.45587307  1  0.004322  0  0.088641  0.052869  0  1.018833  0
H  H22  1  0.50487607  0.67438566  0.04412908  1  0.004295  0  0.088616  0.052901  0  1.018862  0
H  H23  1  0.99512817  0.32562111  0.54412848  1  0.004329  0  0.0886  0.052894  0  1.018841  0
H  H24  1  0.50487297  0.82560543  0.04412829  1  0.004274  0  0.088645  0.052883  0  1.018796  0
H  H25  1  0.99513410  0.17439479  0.54412659  1  0.004326  0  0.088669  0.052929  0  1.018806  0
H  H26  1  0.49512475  0.32561527  0.95587112  1  0.004298  0  0.088622  0.052917  0  1.018852  0
H  H27  1  0.00487171  0.67437982  0.45587119  1  0.004313  0  0.088619  0.0529  0  1.018819  0
H  H28  1  0.60321059  0.18317561  0.02748406  1  0.043967  0  0.112431  0.098399  0  0.96463  0
H  H29  1  0.89679246  0.81682661  0.52748804  1  0.043957  0  0.112428  0.098406  0  0.964683  0
H  H30  1  0.39678475  0.68315763  0.97251310  1  0.043925  0  0.112431  0.098363  0  0.964728  0
H  H31  1  0.10320725  0.31684261  0.47250880  1  0.043976  0  0.112445  0.098413  0  0.964746  0
H  H32  1  0.39679023  0.81682472  0.97251561  1  0.043959  0  0.112424  0.098362  0  0.964666  0
H  H33  1  0.10320742  0.18317313  0.47251269  1  0.043972  0  0.11243  0.09842  0  0.964695  0
H  H34  1  0.60321419  0.31684271  0.02748657  1  0.0439  0  0.112434  0.098369  0  0.964743  0
H  H35  1  0.89679358  0.68315773  0.52749194  1  0.043982  0  0.11243  0.098377  0  0.964758  0
H  H36  1  0.55188602  0.11659620  0.14571550  1  0.07374  0  0.107202  0.114768  0  0.982871  0
H  H37  1  0.94810562  0.88340335  0.64571904  1  0.073602  0  0.107208  0.114777  0  0.982809  0
H  H38  1  0.44811989  0.61658469  0.85428021  1  0.073571  0  0.107213  0.114802  0  0.982948  0
H  H39  1  0.05188823  0.38342239  0.35427444  1  0.073296  0  0.107172  0.114775  0  0.982866  0
H  H40  1  0.44811291  0.88340473  0.85428417  1  0.07374  0  0.107206  0.114768  0  0.982898  0
H  H41  1  0.05189143  0.11659758  0.35428063  1  0.073628  0  0.107203  0.114772  0  0.982806  0
H  H42  1  0.55188282  0.38341683  0.14571892  1  0.073534  0  0.107207  0.114806  0  0.982992  0
H  H43  1  0.94811071  0.61657914  0.64572469  1  0.07344  0  0.107177  0.114787  0  0.982863  0
H  H44  1  0.47204536  0.98986268  0.19795230  1  0.056121  0  0.106841  0.11133  0  1.003557  0
H  H45  1  0.02795474  0.01013802  0.69795862  1  0.056205  0  0.106794  0.11131  0  1.003485  0
H  H46  1  0.52797192  0.48985608  0.80203954  1  0.054942  0  0.106749  0.111268  0  1.003697  0
H  H47  1  0.97202963  0.51014687  0.30203339  1  0.055637  0  0.10677  0.111297  0  1.003642  0
H  H48  1  0.52795358  0.01013825  0.80204736  1  0.055808  0  0.106851  0.111343  0  1.003585  0
H  H49  1  0.97204137  0.98986172  0.30204212  1  0.056008  0  0.106805  0.111305  0  1.003539  0
H  H50  1  0.47203173  0.51014545  0.19795959  1  0.054946  0  0.106764  0.111297  0  1.003638  0
H  H51  1  0.02797025  0.48985466  0.69796467  1  0.054945  0  0.106771  0.111308  0  1.00363  0
H  H52  1  0.24540453  0.95050918  0.01084424  1  0.102948  0  0.109245  0.114642  0  0.984878  0
H  H53  1  0.25460499  0.04949149  0.51083842  1  0.102796  0  0.109246  0.114629  0  0.98479  0
H  H54  1  0.75460613  0.45051032  0.98915762  1  0.102847  0  0.109251  0.114698  0  0.984649  0
H  H55  1  0.74537845  0.54948790  0.48916332  1  0.102905  0  0.109189  0.114605  0  0.984572  0
H  H56  1  0.75459723  0.04949115  0.98915596  1  0.102891  0  0.109239  0.114625  0  0.984865  0
H  H57  1  0.74539395  0.95050825  0.48916338  1  0.102782  0  0.109236  0.114606  0  0.984804  0
H  H58  1  0.24539469  0.54948883  0.01084312  1  0.102861  0  0.109245  0.11467  0  0.984687  0
H  H59  1  0.25461860  0.45051303  0.51083634  1  0.1029  0  0.109217  0.114616  0  0.984642  0
H  H60  1  0.33055892  0.07563390  0.95700828  1  0.057736  0  0.096737  0.095065  0  1.009992  0
H  H61  1  0.16943473  0.92436772  0.45700494  1  0.057747  0  0.096708  0.095013  0  1.010016  0
H  H62  1  0.66943269  0.57563054  0.04298892  1  0.057915  0  0.096746  0.095105  0  1.01004  0
H  H63  1  0.83056211  0.42436969  0.54299399  1  0.057764  0  0.09673  0.095041  0  1.010048  0
H  H64  1  0.66944285  0.92436703  0.04299085  1  0.057745  0  0.096741  0.095094  0  1.00997  0
H  H65  1  0.83056421  0.07563321  0.54299633  1  0.057711  0  0.096733  0.095034  0  1.00997  0
H  H66  1  0.33056625  0.42436860  0.95701128  1  0.057915  0  0.096763  0.095134  0  1.010019  0
H  H67  1  0.16943777  0.57563183  0.45700514  1  0.057739  0  0.096705  0.09501  0  1.010043  0
H  H68  1  0.48990549  0.14227178  0.78458917  1  0.659173  0  0.299847  0.414997  0  0.916827  0
H  H69  1  0.01009874  0.85772367  0.28458629  1  0.659202  0  0.299848  0.41501  0  0.916832  0
H  H70  1  0.51008874  0.64226179  0.21541429  1  0.659131  0  0.299883  0.414998  0  0.916787  0
H  H71  1  0.98990584  0.35773510  0.71541440  1  0.659109  0  0.299906  0.414987  0  0.916805  0
H  H72  1  0.51009721  0.85772915  0.21541103  1  0.659181  0  0.299848  0.414976  0  0.916856  0
H  H73  1  0.98990020  0.14227548  0.71541551  1  0.6592  0  0.299851  0.415021  0  0.916813  0
H  H74  1  0.48991396  0.35773855  0.78458538  1  0.659099  0  0.299883  0.414983  0  0.916799  0
H  H75  1  0.01009499  0.64226524  0.28458580  1  0.659117  0  0.299876  0.414935  0  0.916876  0
H  H76  1  0.35003237  0.13612284  0.81520474  1  0.614986  0  0.324124  0.407673  0  0.889042  0
H  H77  1  0.14996008  0.86387222  0.31520086  1  0.615073  0  0.32413  0.407711  0  0.88896  0
H  H78  1  0.64994526  0.63611754  0.18478811  1  0.615025  0  0.324114  0.407625  0  0.889119  0
H  H79  1  0.85006866  0.36388331  0.68478642  1  0.615075  0  0.324113  0.40758  0  0.889143  0
H  H80  1  0.64996846  0.86387511  0.18479547  1  0.614916  0  0.32409  0.407578  0  0.889165  0
H  H81  1  0.85003980  0.13612752  0.68480041  1  0.615084  0  0.324135  0.407708  0  0.888972  0
H  H82  1  0.35005557  0.36388399  0.81521103  1  0.615048  0  0.324136  0.407651  0  0.889086  0
H  H83  1  0.14993405  0.63611822  0.31521485  1  0.615003  0  0.324091  0.407555  0  0.889181  0
C  C84  1  0.11417670  0.25000298  0.85824673  1  1.592635  0  0.248479  0.678033  0  4.126817  0
C  C85  1  0.38584184  0.75000047  0.35825049  1  1.592597  0  0.2484  0.677825  0  4.127011  0
C  C86  1  0.88582506  0.75000093  0.14175347  1  1.59262  0  0.248469  0.678151  0  4.126663  0
C  C87  1  0.61415710  0.24999867  0.64174917  1  1.592867  0  0.248492  0.677942  0  4.126935  0
C  C88  1  0.14331402  0.24999949  0.93664456  1  -0.065321  0  -0.009418  -0.021539  0  3.967529  0
C  C89  1  0.35669628  0.75000179  0.43664765  1  -0.06494  0  -0.009436  -0.021565  0  3.967634  0
C  C90  1  0.85668680  0.75000025  0.06335510  1  -0.065439  0  -0.009477  -0.021717  0  3.967543  0
C  C91  1  0.64330360  0.24999675  0.56335308  1  -0.064942  0  -0.009454  -0.021608  0  3.967646  0
C  C92  1  0.04962612  0.25000447  0.98935338  1  0.008799  0  -0.071559  -0.082214  0  3.939362  0
C  C93  1  0.45038875  0.74999794  0.48936012  1  0.007949  0  -0.071729  -0.082666  0  3.939226  0
C  C94  1  0.95037565  0.74999527  0.01064629  1  0.008861  0  -0.071504  -0.082142  0  3.939215  0
C  C95  1  0.54961018  0.25000239  0.51064061  1  0.007985  0  -0.071674  -0.082604  0  3.939025  0
C  C96  1  0.08541384  0.24999312  0.06070389  1  -0.042208  0  -0.075529  -0.078128  0  3.962371  0
C  C97  1  0.41456533  0.75000513  0.56070865  1  -0.042142  0  -0.075495  -0.078174  0  3.962051  0
C  C98  1  0.91458793  0.75000661  0.93929578  1  -0.042299  0  -0.075612  -0.07826  0  3.962334  0
C  C99  1  0.58543455  0.24999282  0.43929155  1  -0.041952  0  -0.075572  -0.078258  0  3.961976  0
C  C100  1  0.21297496  0.25000264  0.08206031  1  -0.05259  0  -0.005301  -0.097376  0  3.886997  0
C  C101  1  0.28700264  0.74999892  0.58206180  1  -0.052925  0  -0.005089  -0.097001  0  3.886588  0
C  C102  1  0.78702775  0.74999650  0.91793882  1  -0.052569  0  -0.005233  -0.097197  0  3.886824  0
C  C103  1  0.71299724  0.25000082  0.41793680  1  -0.052947  0  -0.005064  -0.096997  0  3.886525  0
C  C104  1  0.30692586  0.24999768  0.02866622  1  0.448832  0  0.096694  0.176975  0  3.963097  0
C  C105  1  0.19306225  0.75000039  0.52866246  1  0.448715  0  0.096619  0.176549  0  3.963521  0
C  C106  1  0.69307590  0.75000266  0.97133344  1  0.449031  0  0.096685  0.17679  0  3.963176  0
C  C107  1  0.80693669  0.24999935  0.47133667  1  0.448929  0  0.096605  0.176615  0  3.963457  0
C  C108  1  0.26931126  0.24999826  0.95740377  1  -0.081694  0  -0.089813  -0.199014  0  4.000839  0
C  C109  1  0.23070030  0.75000395  0.45740306  1  -0.070133  0  -0.089727  -0.198816  0  4.00098  0
C  C110  1  0.73069050  0.75000267  0.04259643  1  -0.081908  0  -0.089829  -0.19896  0  4.000903  0
C  C111  1  0.76929958  0.24999638  0.54259607  1  -0.070339  0  -0.089724  -0.198848  0  4.000954  0
C  C112  1  0.23436172  0.24999899  0.16113753  1  1.478453  0  0.231541  0.588445  0  4.109211  0
C  C113  1  0.26563782  0.74999502  0.66114052  1  1.478668  0  0.231613  0.588394  0  4.109113  0
C  C114  1  0.76563816  0.74999896  0.83886267  1  1.478458  0  0.231523  0.588432  0  4.10898  0
C  C115  1  0.73436489  0.25000353  0.33885968  1  1.478288  0  0.231622  0.588491  0  4.109058  0
C  C116  1  0.50216354  0.17811976  0.01497598  1  0.316905  0  -0.060044  -0.106289  0  3.965092  0
C  C117  1  0.99783084  0.82188083  0.51497666  1  0.317089  0  -0.060003  -0.106374  0  3.965108  0
C  C118  1  0.49783415  0.67811393  0.98502336  1  0.317211  0  -0.060063  -0.106508  0  3.965294  0
C  C119  1  0.00216652  0.32188675  0.48502226  1  0.317037  0  -0.060003  -0.106519  0  3.965086  0
C  C120  1  0.49783729  0.82187879  0.98502422  1  0.31692  0  -0.060053  -0.106296  0  3.965209  0
C  C121  1  0.00216810  0.17811891  0.48502354  1  0.317086  0  -0.060014  -0.106425  0  3.965172  0
C  C122  1  0.50216573  0.32188700  0.01497684  1  0.317255  0  -0.060028  -0.106469  0  3.965123  0
C  C123  1  0.99783336  0.67811359  0.51497687  1  0.317025  0  -0.059968  -0.10642  0  3.96495  0
C  C124  1  0.44873956  0.10330785  0.04735493  1  -0.009624  0  -0.002356  0.107153  0  3.967565  0
C  C125  1  0.05124978  0.89669533  0.54735324  1  -0.009172  0  -0.002341  0.107162  0  3.967505  0
C  C126  1  0.55126131  0.60330750  0.95263932  1  -0.009777  0  -0.002237  0.107544  0  3.967351  0
C  C127  1  0.94874818  0.39669951  0.45264330  1  -0.009327  0  -0.002373  0.107296  0  3.96729  0
C  C128  1  0.55125844  0.89669188  0.95264527  1  -0.009609  0  -0.002339  0.107179  0  3.967576  0
C  C129  1  0.94874822  0.10330500  0.45264803  1  -0.009179  0  -0.002303  0.107214  0  3.967448  0
C  C130  1  0.44873951  0.39669462  0.04736088  1  -0.009668  0  -0.002331  0.107493  0  3.967311  0
C  C131  1  0.05125170  0.60330083  0.54735636  1  -0.009248  0  -0.002424  0.107209  0  3.967179  0
C  C132  1  0.48640108  0.07929671  0.11574224  1  -0.04578  0  -0.085977  -0.126392  0  3.968975  0
C  C133  1  0.01359872  0.92069906  0.61574653  1  -0.045179  0  -0.085958  -0.126454  0  3.968911  0
C  C134  1  0.51360408  0.57928859  0.88425279  1  -0.045551  0  -0.085969  -0.126513  0  3.968961  0
C  C135  1  0.98639683  0.42070855  0.38425083  1  -0.045183  0  -0.085925  -0.126435  0  3.968842  0
C  C136  1  0.51359880  0.92070362  0.88425796  1  -0.045778  0  -0.085947  -0.126357  0  3.968987  0
C  C137  1  0.98639833  0.07930187  0.38425420  1  -0.045502  0  -0.085961  -0.126405  0  3.968767  0
C  C138  1  0.48639674  0.42071234  0.11574741  1  -0.045669  0  -0.086003  -0.126593  0  3.969142  0
C  C139  1  0.01360399  0.57929059  0.61574990  1  -0.045438  0  -0.085905  -0.126442  0  3.968805  0
C  C140  1  0.44128401  0.00873524  0.14510524  1  -0.022069  0  -0.085244  -0.095142  0  3.979853  0
C  C141  1  0.05871151  0.99126196  0.64510848  1  -0.022663  0  -0.085171  -0.094948  0  3.979645  0
C  C142  1  0.55872756  0.50873164  0.85488892  1  -0.020837  0  -0.085102  -0.094922  0  3.979583  0
C  C143  1  0.94127950  0.49126707  0.35488709  1  -0.021628  0  -0.085122  -0.094917  0  3.9796  0
C  C144  1  0.55871493  0.99126510  0.85489443  1  -0.021771  0  -0.085272  -0.095177  0  3.979879  0
C  C145  1  0.94128460  0.00873778  0.35489279  1  -0.021988  0  -0.085208  -0.095037  0  3.979679  0
C  C146  1  0.44127421  0.49126989  0.14510968  1  -0.020798  0  -0.085095  -0.094927  0  3.979654  0
C  C147  1  0.05872320  0.50873148  0.64511204  1  -0.020803  0  -0.085096  -0.094906  0  3.979656  0
C  C148  1  0.35548415  0.96159212  0.10670818  1  -0.0161  0  -0.02253  -0.044942  0  3.993724  0
C  C149  1  0.14451174  0.03840436  0.60670675  1  -0.015899  0  -0.022537  -0.045074  0  3.993486  0
C  C150  1  0.64453135  0.46159789  0.89328983  1  -0.015758  0  -0.022576  -0.045259  0  3.993786  0
C  C151  1  0.85547346  0.53840153  0.39329138  1  -0.016081  0  -0.022556  -0.045303  0  3.993664  0
C  C152  1  0.64451479  0.03840821  0.89329256  1  -0.016065  0  -0.02254  -0.044919  0  3.993727  0
C  C153  1  0.85548626  0.96159299  0.39329452  1  -0.015951  0  -0.022505  -0.045019  0  3.993654  0
C  C154  1  0.35547041  0.53840364  0.10670983  1  -0.015906  0  -0.022593  -0.045301  0  3.993741  0
C  C155  1  0.14452547  0.46159582  0.60670829  1  -0.016154  0  -0.022595  -0.0453  0  3.993713  0
C  C156  1  0.31354020  0.98706222  0.03953128  1  -0.123549  0  -0.07703  -0.073397  0  3.958576  0
C  C157  1  0.18646316  0.01293749  0.53952712  1  -0.123516  0  -0.07698  -0.073308  0  3.958338  0
C  C158  1  0.68646833  0.48706521  0.96047073  1  -0.123572  0  -0.076994  -0.073391  0  3.958284  0
C  C159  1  0.81352619  0.51293515  0.46047447  1  -0.123204  0  -0.076871  -0.073184  0  3.958038  0
C  C160  1  0.68646157  0.01293692  0.96046892  1  -0.12354  0  -0.076978  -0.073317  0  3.958586  0
C  C161  1  0.81353672  0.98706105  0.46047415  1  -0.123556  0  -0.076969  -0.073264  0  3.958369  0
C  C162  1  0.31353155  0.51293453  0.03952947  1  -0.123422  0  -0.076955  -0.073254  0  3.95825  0
C  C163  1  0.18647369  0.48706399  0.53952573  1  -0.123356  0  -0.076871  -0.073185  0  3.957987  0
C  C164  1  0.36090927  0.05701597  0.01008008  1  0.046384  0  -0.089264  -0.134231  0  3.990633  0
C  C165  1  0.13909364  0.94298113  0.51007993  1  0.045798  0  -0.089272  -0.134181  0  3.990618  0
C  C166  1  0.63908431  0.55701562  0.98991732  1  0.046406  0  -0.089416  -0.134444  0  3.990554  0
C  C167  1  0.86090594  0.44298079  0.48991881  1  0.046137  0  -0.089361  -0.13434  0  3.990574  0
C  C168  1  0.63909155  0.94298377  0.98991959  1  0.046394  0  -0.089297  -0.134324  0  3.990659  0
C  C169  1  0.86090436  0.05701861  0.48992080  1  0.045823  0  -0.089285  -0.134229  0  3.990543  0
C  C170  1  0.36091368  0.44298352  0.01008342  1  0.046416  0  -0.089379  -0.134471  0  3.9906  0
C  C171  1  0.13909488  0.55701895  0.51008086  1  0.046154  0  -0.089331  -0.134271  0  3.990406  0
C  C172  1  0.31034319  0.88428947  0.13547132  1  1.495982  0  0.196075  0.571655  0  4.232944  0
C  C173  1  0.18966350  0.11570784  0.63547251  1  1.496117  0  0.19604  0.571584  0  4.232895  0
C  C174  1  0.68967337  0.38429856  0.86452375  1  1.495297  0  0.19616  0.57197  0  4.232495  0
C  C175  1  0.81032064  0.61570300  0.36452481  1  1.494993  0  0.196143  0.571842  0  4.232513  0
C  C176  1  0.68965857  0.11570967  0.86452728  1  1.495767  0  0.196045  0.571533  0  4.232991  0
C  C177  1  0.81033355  0.88429309  0.36452716  1  1.496284  0  0.195953  0.571401  0  4.233072  0
C  C178  1  0.31032746  0.61570237  0.13547752  1  1.495293  0  0.196192  0.571962  0  4.232369  0
C  C179  1  0.18968112  0.38429793  0.63547592  1  1.495017  0  0.196092  0.571696  0  4.232656  0
N  N180  1  0.44053033  0.25000021  0.04305731  1  -0.990187  0  -0.319104  -0.160656  0  3.449594  0
N  N181  1  0.05946365  0.75000005  0.54306465  1  -0.990531  0  -0.319129  -0.160281  0  3.449281  0
N  N182  1  0.55946954  0.74999953  0.95694236  1  -0.990156  0  -0.319043  -0.160489  0  3.449696  0
N  N183  1  0.94053435  0.25000028  0.45693555  1  -0.990522  0  -0.319137  -0.16032  0  3.449343  0
O  O184  1  0.20838787  0.25000152  0.81610203  1  -1.20161  0  -0.409365  -0.697358  0  2.338718  0
O  O185  1  0.29162250  0.74999770  0.31609360  1  -1.201393  0  -0.409476  -0.697419  0  2.338338  0
O  O186  1  0.79161484  0.75000000  0.18389924  1  -1.20143  0  -0.409328  -0.697363  0  2.33869  0
O  O187  1  0.70837361  0.25000085  0.68390660  1  -1.201601  0  -0.409528  -0.697467  0  2.338369  0
O  O188  1  0.00047649  0.25001696  0.83842473  1  -1.201402  0  -0.413514  -0.652846  0  2.315274  0
O  O189  1  0.49951159  0.74998555  0.33842316  1  -1.201552  0  -0.413319  -0.652528  0  2.315652  0
O  O190  1  0.99952622  0.74998218  0.16157334  1  -1.201425  0  -0.413504  -0.652891  0  2.315201  0
O  O191  1  0.50048735  0.25001359  0.66157543  1  -1.201564  0  -0.413366  -0.652569  0  2.315643  0
O  O192  1  0.35670520  0.25000067  0.18156798  1  -1.089457  0  -0.31824  -0.468708  0  2.308038  0
O  O193  1  0.14329276  0.75000202  0.68157091  1  -1.089723  0  -0.318341  -0.468888  0  2.307866  0
O  O194  1  0.64329373  0.75000145  0.81843116  1  -1.089586  0  -0.318279  -0.468745  0  2.308021  0
O  O195  1  0.85670901  0.25000129  0.31842822  1  -1.089407  0  -0.318387  -0.468947  0  2.307846  0
O  O196  1  0.14783986  0.24999523  0.20476915  1  -1.128282  0  -0.312986  -0.517637  0  2.05604  0
O  O197  1  0.35216411  0.74999704  0.70476614  1  -1.128308  0  -0.312958  -0.517504  0  2.056081  0
O  O198  1  0.85216473  0.75000033  0.79523105  1  -1.128308  0  -0.31298  -0.517638  0  2.055849  0
O  O199  1  0.64783483  0.24999436  0.29523406  1  -1.12827  0  -0.312969  -0.517606  0  2.056092  0
O  O200  1  0.36369300  0.85332187  0.19142343  1  -1.205425  0  -0.383382  -0.66537  0  2.254364  0
O  O201  1  0.13631454  0.14668427  0.69142031  1  -1.205397  0  -0.383356  -0.66528  0  2.254404  0
O  O202  1  0.63633095  0.35332600  0.80856983  1  -1.205612  0  -0.383394  -0.665413  0  2.254246  0
O  O203  1  0.86367070  0.64668283  0.30857616  1  -1.205508  0  -0.383369  -0.665268  0  2.254245  0
O  O204  1  0.63630594  0.14667965  0.80857677  1  -1.20519  0  -0.383342  -0.665275  0  2.254371  0
O  O205  1  0.86368534  0.85331547  0.30858150  1  -1.20558  0  -0.383329  -0.665174  0  2.254477  0
O  O206  1  0.36367364  0.64667493  0.19142930  1  -1.205601  0  -0.383441  -0.665414  0  2.254226  0
O  O207  1  0.13632918  0.35331870  0.69142297  1  -1.205642  0  -0.383336  -0.66522  0  2.254318  0
O  O208  1  0.21939887  0.84758586  0.10588867  1  -1.175262  0  -0.379068  -0.628224  0  2.174774  0
O  O209  1  0.28060172  0.15241719  0.60589418  1  -1.175301  0  -0.379137  -0.628228  0  2.174861  0
O  O210  1  0.78061510  0.34759517  0.89410358  1  -1.174951  0  -0.379207  -0.628434  0  2.174691  0
O  O211  1  0.71938030  0.65240841  0.39410222  1  -1.174712  0  -0.379235  -0.628419  0  2.174772  0
O  O212  1  0.78059912  0.15241627  0.89411206  1  -1.175255  0  -0.379088  -0.628214  0  2.17478  0
O  O213  1  0.71940005  0.84758135  0.39410922  1  -1.175362  0  -0.379143  -0.628221  0  2.174791  0
O  O214  1  0.21938478  0.65240398  0.10589502  1  -1.174941  0  -0.379189  -0.628443  0  2.174639  0
O  O215  1  0.28061392  0.34759014  0.60589424  1  -1.17444  0  -0.37923  -0.628322  0  2.174815  0
O  O216  1  0.39754350  0.14397873  0.77139633  1  -1.261886  0  -0.632062  -0.8545  0  2.017176  0
O  O217  1  0.10245111  0.85601390  0.27139071  1  -1.261904  0  -0.63206  -0.85455  0  2.017159  0
O  O218  1  0.60244713  0.64397041  0.22859856  1  -1.261921  0  -0.632059  -0.854376  0  2.017265  0
O  O219  1  0.89755519  0.35602690  0.72860305  1  -1.261939  0  -0.6321  -0.85434  0  2.01741  0
O  O220  1  0.60245544  0.85602161  0.22860280  1  -1.261834  0  -0.632026  -0.854372  0  2.017285  0
O  O221  1  0.89754877  0.14398464  0.72860949  1  -1.261929  0  -0.632073  -0.854556  0  2.017184  0
O  O222  1  0.39755274  0.35602993  0.77139950  1  -1.261909  0  -0.6321  -0.854405  0  2.017289  0
O  O223  1  0.10244658  0.64397224  0.27139661  1  -1.261882  0  -0.632054  -0.854274  0  2.017503  0
