# generated using pymatgen
data_Zn3H68C78(N4O7)2
_symmetry_space_group_name_H-M   'P 1'
_cell_length_a   13.15052186
_cell_length_b   13.72991828
_cell_length_c   13.99677693
_cell_angle_alpha   97.24214142
_cell_angle_beta   108.30696996
_cell_angle_gamma   112.34186230
_symmetry_Int_Tables_number   1
_chemical_formula_structural   Zn3H68C78(N4O7)2
_chemical_formula_sum   'Zn3 H68 C78 N8 O14'
_cell_volume   2130.71204553
_cell_formula_units_Z   1
loop_
 _symmetry_equiv_pos_site_id
 _symmetry_equiv_pos_as_xyz
  1  'x, y, z'
loop_
 _atom_site_type_symbol
 _atom_site_label
 _atom_site_symmetry_multiplicity
 _atom_site_fract_x
 _atom_site_fract_y
 _atom_site_fract_z
 _atom_site_occupancy
 _atom_site_pbe_bader_charge
 _atom_site_pbe_bader_spin_density
 _atom_site_pbe_cm5_charge
 _atom_site_pbe_ddec_charge
 _atom_site_pbe_ddec_spin_density
 _atom_site_pbe_ddec_sum_bond_order
 _atom_site_pbe_magmom
Zn  Zn0  1  0.69633676  0.61713167  0.37784830  1  1.310104  0  0.683959  0.907683  0  2.292489  0
Zn  Zn1  1  0.30366341  0.38286713  0.62215129  1  1.310097  0  0.683931  0.907616  0  2.292531  0
Zn  Zn2  1  0.50000028  0.50000063  0.50000072  1  1.440726  0  0.704172  1.051931  0  2.276984  0
H  H3  1  0.34692518  0.59513157  0.16514009  1  0.072147  0  0.103236  0.123258  0  0.980552  0
H  H4  1  0.65307618  0.40486804  0.83486138  1  0.072214  0  0.103235  0.123252  0  0.980556  0
H  H5  1  0.32411723  0.60568067  0.28321881  1  0.044067  0  0.111194  0.132973  0  0.983286  0
H  H6  1  0.67588454  0.39431976  0.71678288  1  0.044055  0  0.111189  0.13296  0  0.983311  0
H  H7  1  0.23991333  0.39106465  0.11929656  1  0.026478  0  0.106274  0.079242  0  0.965879  0
H  H8  1  0.76008524  0.60893579  0.88070275  1  0.026465  0  0.106253  0.07922  0  0.965881  0
H  H9  1  0.25172454  0.39786503  0.24964586  1  0.090842  0  0.113935  0.096697  0  1.001866  0
H  H10  1  0.74827523  0.60213459  0.75035514  1  0.090867  0  0.113915  0.096653  0  1.001877  0
H  H11  1  0.16197580  0.39215267  0.35939542  1  0.068913  0  0.097911  0.112594  0  1.042059  0
H  H12  1  0.83802477  0.60784694  0.64060511  1  0.06911  0  0.097922  0.112622  0  1.042031  0
H  H13  1  0.03768134  0.40473565  0.45601379  1  0.079018  0  0.096326  0.093766  0  1.02782  0
H  H14  1  0.96232121  0.59526478  0.54398957  1  0.079021  0  0.096345  0.093761  0  1.027813  0
H  H15  1  0.87497422  0.46012221  0.38447520  1  0.069679  0  0.091997  0.094046  0  1.070249  0
H  H16  1  0.12502914  0.53987822  0.61552840  1  0.069639  0  0.092023  0.094068  0  1.07021  0
H  H17  1  0.83270798  0.50118108  0.21456563  1  0.057724  0  0.098811  0.104357  0  1.009834  0
H  H18  1  0.16729057  0.49881772  0.78543776  1  0.057695  0  0.098818  0.10434  0  1.009819  0
H  H19  1  0.17003453  0.46730194  0.97833829  1  0.068258  0  0.103058  0.112921  0  1.006989  0
H  H20  1  0.82996364  0.53269768  0.02166223  1  0.068418  0  0.10309  0.112945  0  1.006997  0
H  H21  1  0.72086612  0.30666608  0.38122317  1  0.0555  0  0.104361  0.124964  0  0.984744  0
H  H22  1  0.27913285  0.69333354  0.61877688  1  0.055492  0  0.104357  0.12494  0  0.984736  0
H  H23  1  0.57924436  0.25278796  0.38999742  1  0.057436  0  0.108107  0.126572  0  0.976872  0
H  H24  1  0.42075421  0.74721084  0.61000169  1  0.057453  0  0.108089  0.126552  0  0.976869  0
H  H25  1  0.82261483  0.34666465  0.57557281  1  0.106148  0  0.110323  0.090191  0  0.992403  0
H  H26  1  0.17738454  0.65333578  0.42442674  1  0.10614  0  0.110321  0.090194  0  0.992398  0
H  H27  1  0.68524682  0.31428266  0.58857785  1  0.073686  0  0.106882  0.079941  0  1.016925  0
H  H28  1  0.31475335  0.68571778  0.41142194  1  0.073597  0  0.10687  0.079924  0  1.016947  0
H  H29  1  0.92827017  0.27556663  0.50694827  1  0.050664  0  0.100813  0.107261  0  1.033526  0
H  H30  1  0.07172881  0.72443299  0.49305035  1  0.050674  0  0.100821  0.107276  0  1.033528  0
H  H31  1  0.01752616  0.15971554  0.45246419  1  0.101187  0  0.094696  0.105032  0  1.035029  0
H  H32  1  0.98247321  0.84028490  0.54753464  1  0.101183  0  0.094688  0.105021  0  1.035066  0
H  H33  1  0.91119836  0.95699649  0.40860301  1  0.041152  0  0.090048  0.085495  0  1.050345  0
H  H34  1  0.08880142  0.04300313  0.59139584  1  0.041126  0  0.090041  0.085476  0  1.050359  0
H  H35  1  0.71087946  0.86455059  0.41580087  1  0.061595  0  0.095318  0.099973  0  1.0291  0
H  H36  1  0.28911911  0.13544821  0.58419895  1  0.061611  0  0.095321  0.099962  0  1.029082  0
H  H37  1  0.49927212  0.18378783  0.55280216  1  0.062908  0  0.105316  0.12445  0  1.005811  0
H  H38  1  0.50072765  0.81621343  0.44719761  1  0.062977  0  0.105313  0.124453  0  1.005829  0
H  H39  1  0.87761732  0.85179786  0.70048734  1  0.053332  0  0.104444  0.122672  0  0.979848  0
H  H40  1  0.12238325  0.14820340  0.29951196  1  0.053316  0  0.104455  0.122665  0  0.979893  0
H  H41  1  0.79311863  0.91146440  0.62922773  1  0.082293  0  0.107038  0.131763  0  0.981386  0
H  H42  1  0.20688275  0.08853686  0.37077181  1  0.082334  0  0.107053  0.131778  0  0.98132  0
H  H43  1  0.63475138  0.83094180  0.69842183  1  0.072608  0  0.112886  0.091005  0  0.987732  0
H  H44  1  0.36524999  0.16905945  0.30157842  1  0.072558  0  0.112902  0.090983  0  0.987801  0
H  H45  1  0.71231329  0.76505233  0.76713381  1  0.055648  0  0.107776  0.084084  0  0.97961  0
H  H46  1  0.28768809  0.23494893  0.23286572  1  0.055632  0  0.107759  0.084083  0  0.979599  0
H  H47  1  0.61150091  0.98377882  0.69414486  1  0.07323  0  0.095184  0.100332  0  1.056418  0
H  H48  1  0.38850086  0.01622161  0.30585612  1  0.073203  0  0.095204  0.100358  0  1.056373  0
H  H49  1  0.60559286  0.15950289  0.74573070  1  0.079575  0  0.092694  0.090336  0  1.026368  0
H  H50  1  0.39440691  0.84049673  0.25426959  1  0.079581  0  0.092688  0.09034  0  1.026368  0
H  H51  1  0.75697073  0.30119303  0.91307134  1  0.069399  0  0.086696  0.081642  0  1.058371  0
H  H52  1  0.24302784  0.69880741  0.08692869  1  0.069414  0  0.086723  0.081681  0  1.058363  0
H  H53  1  0.91775238  0.26855579  0.03213608  1  0.095727  0  0.0957  0.096036  0  1.052603  0
H  H54  1  0.08224659  0.73144547  0.96786345  1  0.095731  0  0.095731  0.096066  0  1.052553  0
H  H55  1  0.92270133  0.81095646  0.87859984  1  0.062887  0  0.102827  0.119005  0  1.01863  0
H  H56  1  0.07730205  0.18904726  0.12139988  1  0.063403  0  0.102814  0.118976  0  1.018648  0
H  H57  1  0.72611959  0.77427238  0.24791346  1  0.116059  0  0.13182  0.06341  0  0.980471  0
H  H58  1  0.27387859  0.22572395  0.75208452  1  0.116257  0  0.131847  0.063464  0  0.980414  0
H  H59  1  0.03305846  0.82660355  0.19300541  1  0.072076  0  0.106569  0.123337  0  1.029436  0
H  H60  1  0.96694131  0.17339607  0.80699416  1  0.072096  0  0.106577  0.123324  0  1.029444  0
H  H61  1  0.03374692  0.79568992  0.31384906  1  0.075192  0  0.105041  0.124085  0  1.020638  0
H  H62  1  0.96625245  0.20430888  0.68615029  1  0.075175  0  0.105055  0.124113  0  1.020651  0
H  H63  1  0.94748417  0.69033759  0.19359091  1  0.086828  0  0.105142  0.119544  0  1.015216  0
H  H64  1  0.05251721  0.30966203  0.80640771  1  0.086851  0  0.105148  0.119546  0  1.015203  0
H  H65  1  0.93536787  0.91952692  0.14093181  1  0.092508  0  0.107118  0.12444  0  1.045929  0
H  H66  1  0.06463150  0.08047187  0.85906754  1  0.092505  0  0.107117  0.124429  0  1.045951  0
H  H67  1  0.77757680  0.84747780  0.09631758  1  0.061937  0  0.10854  0.123665  0  0.972803  0
H  H68  1  0.22242258  0.15252100  0.90368105  1  0.061969  0  0.108523  0.123605  0  0.972827  0
H  H69  1  0.86227265  0.95089233  0.21949384  1  0.072638  0  0.107633  0.123724  0  0.998529  0
H  H70  1  0.13772632  0.04910565  0.78050458  1  0.072597  0  0.107623  0.123714  0  0.99852  0
C  C71  1  0.46070647  0.55934373  0.28942566  1  1.569965  0  0.215238  0.657381  0  4.116371  0
C  C72  1  0.53929249  0.44065424  0.71057561  1  1.569948  0  0.215278  0.657483  0  4.116195  0
C  C73  1  0.34134508  0.55567295  0.22798683  1  -0.037603  0  -0.159906  -0.314825  0  3.884907  0
C  C74  1  0.65865709  0.44432666  0.77201346  1  -0.0377  0  -0.159923  -0.314857  0  3.884943  0
C  C75  1  0.23861860  0.43905016  0.18783072  1  0.348988  0  -0.051491  -0.029304  0  3.924782  0
C  C76  1  0.76138157  0.56094863  0.81216958  1  0.348976  0  -0.051507  -0.029287  0  3.924885  0
C  C77  1  0.06694756  0.43975752  0.23017987  1  0.322857  0  0.089617  0.124577  0  4.035783  0
C  C78  1  0.93305421  0.56024455  0.76982202  1  0.322509  0  0.089576  0.124517  0  4.035604  0
C  C79  1  0.09033537  0.41470762  0.32603984  1  -0.019925  0  -0.1091  -0.185195  0  4.010799  0
C  C80  1  0.90966800  0.58529445  0.67396110  1  -0.020307  0  -0.109114  -0.185233  0  4.010917  0
C  C81  1  0.02004355  0.42261300  0.38048299  1  -0.10706  0  -0.10109  -0.08002  0  4.03794  0
C  C82  1  0.97995421  0.57738416  0.61951854  1  -0.10685  0  -0.101135  -0.079987  0  4.038068  0
C  C83  1  0.92856319  0.45398146  0.34067872  1  -0.005914  0  -0.115231  -0.12872  0  4.059098  0
C  C84  1  0.07143737  0.54601815  0.65932323  1  -0.005811  0  -0.115246  -0.128786  0  4.05898  0
C  C85  1  0.90427108  0.47729681  0.24427187  1  -0.061554  0  -0.094767  -0.110821  0  4.010636  0
C  C86  1  0.09572907  0.52270527  0.75573240  1  -0.062029  0  -0.094809  -0.110828  0  4.010653  0
C  C87  1  0.97370818  0.47063245  0.18798832  1  0.016509  0  -0.026192  -0.034677  0  4.057502  0
C  C88  1  0.02629159  0.52936716  0.81201267  1  0.017093  0  -0.026153  -0.034564  0  4.057751  0
C  C89  1  0.97450048  0.48957120  0.08896692  1  -0.056069  0  -0.019143  -0.006354  0  4.057827  0
C  C90  1  0.02549809  0.51043088  0.91103188  1  -0.055891  0  -0.019112  -0.006375  0  4.057739  0
C  C91  1  0.06962444  0.47046523  0.07541136  1  0.339598  0  0.085475  0.109852  0  4.057691  0
C  C92  1  0.93037173  0.52953193  0.92458684  1  0.339628  0  0.085491  0.109809  0  4.057831  0
C  C93  1  0.09681226  0.48099369  0.98765067  1  0.01491  0  -0.101773  -0.219009  0  4.018864  0
C  C94  1  0.90318589  0.51900429  0.01235179  1  0.014839  0  -0.101718  -0.218891  0  4.01889  0
C  C95  1  0.67029129  0.42484056  0.44246972  1  1.577683  0  0.227349  0.669636  0  4.102328  0
C  C96  1  0.32970848  0.57515906  0.55753128  1  1.577703  0  0.227297  0.669523  0  4.102417  0
C  C97  1  0.67328046  0.31503281  0.43115208  1  -0.030535  0  -0.15969  -0.31819  0  3.891894  0
C  C98  1  0.32671891  0.68496762  0.56884747  1  -0.030533  0  -0.159634  -0.318075  0  3.89181  0
C  C99  1  0.72576491  0.29399427  0.53633391  1  0.297129  0  -0.049841  -0.024877  0  3.911942  0
C  C100  1  0.27423446  0.70600617  0.46366564  1  0.297221  0  -0.049808  -0.024846  0  3.911947  0
C  C101  1  0.76960847  0.13462583  0.49338927  1  0.319183  0  0.09413  0.132284  0  4.032408  0
C  C102  1  0.23038930  0.86537297  0.50660960  1  0.319186  0  0.094144  0.132287  0  4.032487  0
C  C103  1  0.88074204  0.18657884  0.48721239  1  -0.008133  0  -0.105127  -0.187804  0  4.027494  0
C  C104  1  0.11925773  0.81342242  0.51278595  1  -0.008195  0  -0.105151  -0.187838  0  4.027704  0
C  C105  1  0.92988606  0.12075506  0.45602338  1  -0.018876  0  -0.102246  -0.082738  0  4.027641  0
C  C106  1  0.07011211  0.87924456  0.54397500  1  -0.018816  0  -0.102239  -0.082738  0  4.027654  0
C  C107  1  0.86895361  0.00567522  0.43056945  1  -0.107378  0  -0.117574  -0.13341  0  4.081852  0
C  C108  1  0.13104536  0.99432604  0.56943008  1  -0.107421  0  -0.117597  -0.133449  0  4.081825  0
C  C109  1  0.75768593  0.95377497  0.43605210  1  -0.030763  0  -0.101174  -0.123819  0  4.030187  0
C  C110  1  0.24231184  0.04622383  0.56394677  1  -0.030856  0  -0.101075  -0.123661  0  4.030143  0
C  C111  1  0.70696564  0.01804751  0.46806999  1  -0.010438  0  -0.027382  -0.033197  0  4.057577  0
C  C112  1  0.29303372  0.98195457  0.53193047  1  -0.01037  0  -0.027443  -0.033241  0  4.057565  0
C  C113  1  0.59609770  0.99336394  0.48143117  1  0.010136  0  -0.021929  -0.01215  0  4.065183  0
C  C114  1  0.40390168  0.00663650  0.51856696  1  0.010321  0  -0.021963  -0.012244  0  4.065124  0
C  C115  1  0.59542286  0.09666350  0.51307537  1  0.305987  0  0.085596  0.108367  0  4.055259  0
C  C116  1  0.40457571  0.90333694  0.48692394  1  0.306053  0  0.085642  0.108476  0  4.055315  0
C  C117  1  0.49999328  0.10505881  0.53068960  1  0.003401  0  -0.103141  -0.221092  0  4.004311  0
C  C118  1  0.50000610  0.89494162  0.46930923  1  0.003459  0  -0.103174  -0.221167  0  4.004506  0
C  C119  1  0.71877932  0.73862312  0.56907057  1  1.594376  0  0.218794  0.647277  0  4.144994  0
C  C120  1  0.28122206  0.26137649  0.43092734  1  1.594356  0  0.218709  0.647087  0  4.145213  0
C  C121  1  0.78559145  0.84080233  0.66127514  1  -0.080436  0  -0.162479  -0.324255  0  3.911138  0
C  C122  1  0.21440793  0.15919975  0.33872390  1  -0.080463  0  -0.162427  -0.324094  0  3.911128  0
C  C123  1  0.72463004  0.83792126  0.73821180  1  0.357583  0  -0.052124  -0.018318  0  3.917321  0
C  C124  1  0.27537093  0.16207918  0.26178894  1  0.35764  0  -0.052148  -0.018395  0  3.917422  0
C  C125  1  0.76828845  0.02601791  0.83624868  1  0.32144  0  0.089549  0.126951  0  4.041148  0
C  C126  1  0.23171533  0.97398498  0.16375106  1  0.321127  0  0.089587  0.126977  0  4.040984  0
C  C127  1  0.67763977  0.04402496  0.76833250  1  -0.037302  0  -0.110668  -0.192452  0  4.020133  0
C  C128  1  0.32236079  0.95597630  0.23166822  1  -0.037296  0  -0.110727  -0.192529  0  4.020051  0
C  C129  1  0.67547847  0.14394882  0.79783842  1  -0.028877  0  -0.10082  -0.072224  0  4.036015  0
C  C130  1  0.32452291  0.85605244  0.20216040  1  -0.028888  0  -0.100802  -0.072192  0  4.035946  0
C  C131  1  0.76081135  0.22389203  0.89224616  1  -0.069654  0  -0.113726  -0.116819  0  4.054835  0
C  C132  1  0.23918883  0.77610840  0.10775292  1  -0.06967  0  -0.113791  -0.116907  0  4.054891  0
C  C133  1  0.85161116  0.20617942  0.95931438  1  -0.06909  0  -0.095966  -0.107686  0  3.999283  0
C  C134  1  0.14839022  0.79382184  0.04068515  1  -0.068884  0  -0.095969  -0.107683  0  3.999349  0
C  C135  1  0.85692699  0.10724540  0.93128826  1  -0.046613  0  -0.031052  -0.040588  0  4.069001  0
C  C136  1  0.14307559  0.89275667  0.06871102  1  -0.046744  0  -0.031059  -0.040581  0  4.068799  0
C  C137  1  0.93919000  0.06433092  0.97865776  1  0.025232  0  -0.026539  -0.019202  0  4.079681  0
C  C138  1  0.06080815  0.93566870  0.02134561  1  0.025443  0  -0.026537  -0.019257  0  4.079693  0
C  C139  1  0.89565633  0.95708433  0.91061861  1  0.320991  0  0.080065  0.098708  0  4.074443  0
C  C140  1  0.10434423  0.04291693  0.08938283  1  0.321019  0  0.080086  0.098727  0  4.074488  0
C  C141  1  0.95525321  0.89195103  0.93068098  1  -0.040183  0  -0.107891  -0.227546  0  4.009591  0
C  C142  1  0.04474857  0.10805104  0.06931877  1  -0.040543  0  -0.107867  -0.227545  0  4.009604  0
C  C143  1  0.79954551  0.75093001  0.25842726  1  1.353363  0  0.182989  0.29319  0  4.069385  0
C  C144  1  0.20045347  0.24906797  0.74157116  1  1.353144  0  0.182907  0.293023  0  4.069295  0
C  C145  1  0.97901096  0.77752162  0.23046719  1  0.247158  0  -0.13192  -0.258619  0  3.839314  0
C  C146  1  0.02098922  0.22247718  0.76953098  1  0.247177  0  -0.131948  -0.258628  0  3.839401  0
C  C147  1  0.86177238  0.88467853  0.16608043  1  0.240542  0  -0.129482  -0.280893  0  3.885095  0
C  C148  1  0.13822580  0.11531945  0.83391775  1  0.240545  0  -0.129466  -0.28082  0  3.885036  0
N  N149  1  0.12275373  0.43848823  0.16063488  1  -1.235438  0  -0.270428  -0.096555  0  3.713664  0
N  N150  1  0.87724603  0.56151139  0.83936826  1  -1.235115  0  -0.270371  -0.096509  0  3.713756  0
N  N151  1  0.70278879  0.18040919  0.52288279  1  -1.232611  0  -0.264327  -0.079834  0  3.709635  0
N  N152  1  0.29721138  0.81959125  0.47711700  1  -1.232615  0  -0.264376  -0.079927  0  3.709661  0
N  N153  1  0.79143218  0.93537870  0.82651815  1  -1.2447  0  -0.265954  -0.084554  0  3.712307  0
N  N154  1  0.20856919  0.06462256  0.17348281  1  -1.244433  0  -0.265976  -0.084519  0  3.712216  0
N  N155  1  0.87746828  0.80238957  0.21881500  1  -1.19696  0  -0.270949  0.038145  0  3.688333  0
N  N156  1  0.12253149  0.19760841  0.78118295  1  -1.196975  0  -0.270931  0.038195  0  3.688286  0
O  O157  1  0.55511818  0.63399703  0.28766084  1  -1.167864  0  -0.329957  -0.571875  0  2.249373  0
O  O158  1  0.44488118  0.36600013  0.71234188  1  -1.167919  0  -0.329908  -0.571862  0  2.249291  0
O  O159  1  0.46323257  0.48973133  0.34027944  1  -1.199899  0  -0.320902  -0.594083  0  2.351963  0
O  O160  1  0.53676400  0.51026501  0.65972092  1  -1.199833  0  -0.320951  -0.594106  0  2.351855  0
O  O161  1  0.70229077  0.47833056  0.37970200  1  -1.164552  0  -0.31859  -0.549258  0  2.327358  0
O  O162  1  0.29770940  0.52166988  0.62029850  1  -1.164569  0  -0.318554  -0.549188  0  2.327425  0
O  O163  1  0.63674845  0.45570215  0.51100534  1  -1.197673  0  -0.318618  -0.588883  0  2.356117  0
O  O164  1  0.36325172  0.54429829  0.48899445  1  -1.197667  0  -0.318615  -0.588857  0  2.35606  0
O  O165  1  0.77782748  0.72854509  0.51368650  1  -1.182356  0  -0.324469  -0.570447  0  2.34838  0
O  O166  1  0.22217069  0.27145288  0.48631239  1  -1.182297  0  -0.324467  -0.570392  0  2.348313  0
O  O167  1  0.61276866  0.67336685  0.55182310  1  -1.188674  0  -0.311049  -0.570661  0  2.32004  0
O  O168  1  0.38723031  0.32663441  0.44817643  1  -1.188689  0  -0.310999  -0.570576  0  2.320131  0
O  O169  1  0.80755468  0.67922905  0.30485630  1  -1.150271  0  -0.29588  -0.44187  0  2.370889  0
O  O170  1  0.19244470  0.32076974  0.69514162  1  -1.150258  0  -0.295843  -0.441799  0  2.370874  0
