# generated using pymatgen
data_NdH8C6NO7
_symmetry_space_group_name_H-M   'P 1'
_cell_length_a   6.71374418
_cell_length_b   6.91309249
_cell_length_c   19.76270194
_cell_angle_alpha   93.56339171
_cell_angle_beta   90.00010778
_cell_angle_gamma   89.99991987
_symmetry_Int_Tables_number   1
_chemical_formula_structural   NdH8C6NO7
_chemical_formula_sum   'Nd4 H32 C24 N4 O28'
_cell_volume   915.46768342
_cell_formula_units_Z   4
loop_
 _symmetry_equiv_pos_site_id
 _symmetry_equiv_pos_as_xyz
  1  'x, y, z'
loop_
 _atom_site_type_symbol
 _atom_site_label
 _atom_site_symmetry_multiplicity
 _atom_site_fract_x
 _atom_site_fract_y
 _atom_site_fract_z
 _atom_site_occupancy
 _atom_site_hle17_bader_spin_density
 _atom_site_hle17_ddec_charge
 _atom_site_hle17_ddec_spin_density
 _atom_site_hle17_ddec_sum_bond_order
 _atom_site_hle17_magmom
 _atom_site_hse06_10hf_bader_spin_density
 _atom_site_hse06_10hf_ddec_charge
 _atom_site_hse06_10hf_ddec_spin_density
 _atom_site_hse06_10hf_ddec_sum_bond_order
 _atom_site_hse06_10hf_magmom
 _atom_site_hse06_bader_spin_density
 _atom_site_hse06_ddec_charge
 _atom_site_hse06_ddec_spin_density
 _atom_site_hse06_ddec_sum_bond_order
 _atom_site_hse06_magmom
 _atom_site_pbe_bader_spin_density
 _atom_site_pbe_cm5_charge
 _atom_site_pbe_ddec_charge
 _atom_site_pbe_ddec_spin_density
 _atom_site_pbe_ddec_sum_bond_order
 _atom_site_pbe_magmom
Nd  Nd0  1  0.76271812  0.26888879  0.89968194  1  0  2.258379  0  1.6805  0  0  2.085183  0  2.15884  0  0  2.185821  0  2.005335  0  0  1.509033  2.051537  0  2.193142  0
Nd  Nd1  1  0.26270875  0.23110377  0.60032205  1  0  2.258347  0  1.680634  0  0  2.085074  0  2.159135  0  0  2.185765  0  2.005507  0  0  1.508976  2.051321  0  2.193548  0
Nd  Nd2  1  0.23729203  0.73110381  0.10031813  1  0  2.258393  0  1.680516  0  0  2.085198  0  2.15888  0  0  2.185835  0  2.005363  0  0  1.509007  2.051506  0  2.193204  0
Nd  Nd3  1  0.73728056  0.76889752  0.39967719  1  0  2.258382  0  1.680538  0  0  2.0852  0  2.158868  0  0  2.185826  0  2.005374  0  0  1.508992  2.051504  0  2.193242  0
H  H4  1  0.92537618  0.36628442  0.04527389  1  0  0.438151  0  0.854781  0  0  0.405182  0  0.92232  0  0  0.416582  0  0.905722  0  0  0.306064  0.396898  0  0.934626  0
H  H5  1  0.42534049  0.13371285  0.45472924  1  0  0.437988  0  0.854943  0  0  0.405119  0  0.922383  0  0  0.416518  0  0.905782  0  0  0.30604  0.396837  0  0.934689  0
H  H6  1  0.07465781  0.63370527  0.95472612  1  0  0.437999  0  0.854949  0  0  0.405097  0  0.92243  0  0  0.416497  0  0.905827  0  0  0.306059  0.396814  0  0.934736  0
H  H7  1  0.57463540  0.86628700  0.54527149  1  0  0.438093  0  0.854862  0  0  0.40521  0  0.922302  0  0  0.41661  0  0.9057  0  0  0.306061  0.396926  0  0.934608  0
H  H8  1  0.72337254  0.48241466  0.03578867  1  0  0.436856  0  0.857847  0  0  0.404964  0  0.923416  0  0  0.416578  0  0.906547  0  0  0.306163  0.396593  0  0.935755  0
H  H9  1  0.22333261  0.01758719  0.46421593  1  0  0.436866  0  0.857875  0  0  0.404939  0  0.923436  0  0  0.416544  0  0.906587  0  0  0.306144  0.396571  0  0.935771  0
H  H10  1  0.27666592  0.51757940  0.96421497  1  0  0.436842  0  0.857923  0  0  0.404914  0  0.923483  0  0  0.416518  0  0.906635  0  0  0.306153  0.396545  0  0.935819  0
H  H11  1  0.77664329  0.98240830  0.53578572  1  0  0.43689  0  0.857837  0  0  0.404946  0  0.923452  0  0  0.416556  0  0.906591  0  0  0.306146  0.396577  0  0.935786  0
H  H12  1  0.72468053  0.81576074  0.79126968  1  0  0.109843  0  0.917925  0  0  0.124577  0  0.978513  0  0  0.127065  0  0.976231  0  0  0.121318  0.122909  0  0.980082  0
H  H13  1  0.22467625  0.68424874  0.70872789  1  0  0.109875  0  0.917967  0  0  0.124622  0  0.978548  0  0  0.127112  0  0.976268  0  0  0.121329  0.122941  0  0.980131  0
H  H14  1  0.27532516  0.18424925  0.20873177  1  0  0.109914  0  0.91785  0  0  0.124644  0  0.978418  0  0  0.127136  0  0.97613  0  0  0.121329  0.122968  0  0.979994  0
H  H15  1  0.77532348  0.31575253  0.29126831  1  0  0.10989  0  0.917859  0  0  0.124637  0  0.978435  0  0  0.127131  0  0.976142  0  0  0.121316  0.12296  0  0.980011  0
H  H16  1  0.52973287  0.68581894  0.82812254  1  0  0.122745  0  0.95083  0  0  0.134818  0  1.008958  0  0  0.138916  0  1.00558  0  0  0.113782  0.13186  0  1.011587  0
H  H17  1  0.02972970  0.81418352  0.67187475  1  0  0.122865  0  0.950754  0  0  0.134937  0  1.008887  0  0  0.139037  0  1.005511  0  0  0.113827  0.131967  0  1.011515  0
H  H18  1  0.47026835  0.31418379  0.17187623  1  0  0.122773  0  0.950782  0  0  0.134835  0  1.008905  0  0  0.138931  0  1.005531  0  0  0.113784  0.131866  0  1.011538  0
H  H19  1  0.97026705  0.18582500  0.32812262  1  0  0.122778  0  0.950823  0  0  0.134867  0  1.008923  0  0  0.138952  0  1.005561  0  0  0.113804  0.131903  0  1.011546  0
H  H20  1  0.39064963  0.90273252  0.93167412  1  0  0.126057  0  0.926572  0  0  0.137781  0  0.987811  0  0  0.140325  0  0.98669  0  0  0.130531  0.135851  0  0.989136  0
H  H21  1  0.89063520  0.59725070  0.56832756  1  0  0.126043  0  0.926646  0  0  0.137769  0  0.987807  0  0  0.140313  0  0.98669  0  0  0.130535  0.135832  0  0.989132  0
H  H22  1  0.60936500  0.09727457  0.06832676  1  0  0.126029  0  0.926484  0  0  0.137787  0  0.987733  0  0  0.14033  0  0.986613  0  0  0.130506  0.13585  0  0.989057  0
H  H23  1  0.10935113  0.40273899  0.43167245  1  0  0.126093  0  0.926463  0  0  0.137821  0  0.987733  0  0  0.140364  0  0.986614  0  0  0.130537  0.135893  0  0.989049  0
H  H24  1  0.21735270  0.91760198  0.86450453  1  0  0.103412  0  0.908293  0  0  0.116183  0  0.9663  0  0  0.118964  0  0.964096  0  0  0.112889  0.114263  0  0.967774  0
H  H25  1  0.71734162  0.58239014  0.63549672  1  0  0.103439  0  0.908181  0  0  0.116152  0  0.966225  0  0  0.118933  0  0.96402  0  0  0.11288  0.114218  0  0.967701  0
H  H26  1  0.78265597  0.08240222  0.13549882  1  0  0.103355  0  0.908234  0  0  0.116114  0  0.96632  0  0  0.118895  0  0.964119  0  0  0.112855  0.11419  0  0.967786  0
H  H27  1  0.28265066  0.41760535  0.36450341  1  0  0.103414  0  0.90823  0  0  0.116208  0  0.966237  0  0  0.118989  0  0.964032  0  0  0.112893  0.114287  0  0.967712  0
H  H28  1  0.29786856  0.00461637  0.76295400  1  0  0.10537  0  0.938676  0  0  0.116582  0  1.004921  0  0  0.119094  0  1.003649  0  0  0.116679  0.114743  0  1.00612  0
H  H29  1  0.79787377  0.49539931  0.73704798  1  0  0.105325  0  0.938747  0  0  0.116562  0  1.004897  0  0  0.119071  0  1.003624  0  0  0.116704  0.114733  0  1.006097  0
H  H30  1  0.70211478  0.99539218  0.23705046  1  0  0.105323  0  0.938853  0  0  0.11655  0  1.005032  0  0  0.119058  0  1.003768  0  0  0.116712  0.114715  0  1.006231  0
H  H31  1  0.20212150  0.50460487  0.26295234  1  0  0.105313  0  0.938817  0  0  0.116521  0  1.005001  0  0  0.119031  0  1.003728  0  0  0.116676  0.114683  0  1.006201  0
H  H32  1  0.54751979  0.98696366  0.73512560  1  0  0.113121  0  0.913355  0  0  0.129003  0  0.96929  0  0  0.131418  0  0.967926  0  0  0.126692  0.127177  0  0.970725  0
H  H33  1  0.04752203  0.51304896  0.76487697  1  0  0.113121  0  0.913273  0  0  0.128969  0  0.969226  0  0  0.131381  0  0.967864  0  0  0.126675  0.127146  0  0.970682  0
H  H34  1  0.45247398  0.01303473  0.26487358  1  0  0.113123  0  0.913354  0  0  0.128985  0  0.96929  0  0  0.131398  0  0.967928  0  0  0.126674  0.127159  0  0.970742  0
H  H35  1  0.95247472  0.48695958  0.23512343  1  0  0.113132  0  0.913287  0  0  0.128987  0  0.969217  0  0  0.1314  0  0.967856  0  0  0.12668  0.127163  0  0.970655  0
C  C36  1  0.62683509  0.81338250  0.83593660  1  0  -0.203891  0  3.665353  0  0  -0.261433  0  3.925266  0  0  -0.263692  0  3.932382  0  0  -0.070863  -0.260203  0  3.922016  0
C  C37  1  0.12682314  0.68661550  0.66406015  1  0  -0.204139  0  3.665358  0  0  -0.261779  0  3.925318  0  0  -0.264051  0  3.932421  0  0  -0.070978  -0.260539  0  3.922061  0
C  C38  1  0.37316911  0.18661587  0.16406055  1  0  -0.204069  0  3.665489  0  0  -0.261537  0  3.925315  0  0  -0.263798  0  3.932427  0  0  -0.070888  -0.260302  0  3.922061  0
C  C39  1  0.87315872  0.31337563  0.33593786  1  0  -0.20398  0  3.665213  0  0  -0.26153  0  3.925099  0  0  -0.263779  0  3.932209  0  0  -0.070892  -0.260289  0  3.921844  0
C  C40  1  0.76698210  0.78891451  0.89552103  1  0  0.741212  0  3.80994  0  0  0.693402  0  4.113058  0  0  0.727214  0  4.107154  0  0  0.2367  0.670235  0  4.119282  0
C  C41  1  0.26697129  0.71107462  0.60447411  1  0  0.74147  0  3.809943  0  0  0.693712  0  4.112992  0  0  0.727527  0  4.107088  0  0  0.236808  0.670538  0  4.11922  0
C  C42  1  0.23302359  0.21108242  0.10447812  1  0  0.741276  0  3.809952  0  0  0.693442  0  4.11308  0  0  0.727255  0  4.107172  0  0  0.236763  0.670276  0  4.119302  0
C  C43  1  0.73302100  0.28891794  0.39551988  1  0  0.741412  0  3.810315  0  0  0.693571  0  4.113462  0  0  0.727385  0  4.10755  0  0  0.236783  0.6704  0  4.119686  0
C  C44  1  0.34742022  0.98899009  0.88918798  1  0  -0.188221  0  3.616706  0  0  -0.238405  0  3.86162  0  0  -0.241324  0  3.870196  0  0  -0.062412  -0.236624  0  3.857031  0
C  C45  1  0.84741806  0.51100333  0.61081389  1  0  -0.188302  0  3.616887  0  0  -0.238373  0  3.861575  0  0  -0.241301  0  3.870144  0  0  -0.062383  -0.236585  0  3.856979  0
C  C46  1  0.65258845  0.01100976  0.11081578  1  0  -0.188076  0  3.616466  0  0  -0.238338  0  3.861531  0  0  -0.241262  0  3.870113  0  0  -0.062335  -0.236557  0  3.856942  0
C  C47  1  0.15258167  0.48899216  0.38918675  1  0  -0.188264  0  3.616558  0  0  -0.238523  0  3.861488  0  0  -0.241444  0  3.870063  0  0  -0.062435  -0.236745  0  3.856901  0
C  C48  1  0.28944581  0.18975737  0.91959310  1  0  0.75801  0  3.796897  0  0  0.710986  0  4.09249  0  0  0.745399  0  4.085512  0  0  0.242988  0.687382  0  4.098895  0
C  C49  1  0.78943559  0.31023226  0.58041135  1  0  0.757847  0  3.797228  0  0  0.710766  0  4.092805  0  0  0.745176  0  4.085845  0  0  0.242819  0.687157  0  4.099208  0
C  C50  1  0.71056733  0.81024537  0.08040819  1  0  0.757844  0  3.796815  0  0  0.710732  0  4.092592  0  0  0.745147  0  4.085619  0  0  0.242803  0.687127  0  4.098997  0
C  C51  1  0.21055819  0.68976179  0.41959027  1  0  0.758049  0  3.797083  0  0  0.71105  0  4.092631  0  0  0.745462  0  4.085655  0  0  0.242992  0.687451  0  4.099031  0
C  C52  1  0.45075493  0.05473354  0.77466298  1  0  -0.192422  0  3.659765  0  0  -0.248028  0  3.915169  0  0  -0.250808  0  3.924869  0  0  -0.064305  -0.246723  0  3.910783  0
C  C53  1  0.95075568  0.44529066  0.72533877  1  0  -0.192509  0  3.659936  0  0  -0.248057  0  3.915162  0  0  -0.250839  0  3.924851  0  0  -0.064382  -0.246783  0  3.910839  0
C  C54  1  0.54924629  0.94527209  0.22533737  1  0  -0.192483  0  3.660036  0  0  -0.248038  0  3.915279  0  0  -0.250819  0  3.924973  0  0  -0.064304  -0.246741  0  3.910922  0
C  C55  1  0.04925150  0.55473091  0.27466140  1  0  -0.19247  0  3.660039  0  0  -0.247976  0  3.915274  0  0  -0.250753  0  3.924972  0  0  -0.064281  -0.246683  0  3.910916  0
C  C56  1  0.45980930  0.27263910  0.76633011  1  0  0.736266  0  3.833316  0  0  0.690046  0  4.134263  0  0  0.724156  0  4.127552  0  0  0.227148  0.666884  0  4.140585  0
C  C57  1  0.95979851  0.22737353  0.73367748  1  0  0.736513  0  3.83338  0  0  0.690301  0  4.134254  0  0  0.724409  0  4.127542  0  0  0.227335  0.667144  0  4.140575  0
C  C58  1  0.54019341  0.72736654  0.23367125  1  0  0.736506  0  3.833403  0  0  0.690395  0  4.134116  0  0  0.724503  0  4.127395  0  0  0.227284  0.667233  0  4.140444  0
C  C59  1  0.04019824  0.77263213  0.26632793  1  0  0.73659  0  3.83346  0  0  0.690374  0  4.134326  0  0  0.724482  0  4.127605  0  0  0.227344  0.667207  0  4.14066  0
N  N60  1  0.51736848  0.99846465  0.84171778  1  0  -0.228114  0  3.345754  0  0  -0.151249  0  3.594671  0  0  -0.167864  0  3.618082  0  0  -0.389284  -0.142581  0  3.580493  0
N  N61  1  0.01735677  0.50153060  0.65828188  1  0  -0.227956  0  3.345717  0  0  -0.151002  0  3.594477  0  0  -0.167588  0  3.617843  0  0  -0.389243  -0.142332  0  3.580298  0
N  N62  1  0.48263274  0.00153954  0.15828203  1  0  -0.228074  0  3.345807  0  0  -0.151209  0  3.59471  0  0  -0.167813  0  3.618107  0  0  -0.389295  -0.142544  0  3.580529  0
N  N63  1  0.98263402  0.49847068  0.34171736  1  0  -0.228107  0  3.345636  0  0  -0.15122  0  3.594503  0  0  -0.167832  0  3.617907  0  0  -0.389251  -0.142553  0  3.58032  0
O  O64  1  0.84225172  0.62077050  0.90192359  1  0  -0.747021  0  1.978094  0  0  -0.685904  0  2.228134  0  0  -0.718474  0  2.211186  0  0  -0.381992  -0.668109  0  2.237577  0
O  O65  1  0.34224807  0.87922146  0.59807419  1  0  -0.747159  0  1.978255  0  0  -0.686078  0  2.228289  0  0  -0.718657  0  2.211329  0  0  -0.382002  -0.668275  0  2.237731  0
O  O66  1  0.15775099  0.37922789  0.09807710  1  0  -0.747103  0  1.978186  0  0  -0.68598  0  2.228229  0  0  -0.71855  0  2.211279  0  0  -0.382057  -0.668189  0  2.237671  0
O  O67  1  0.65775167  0.12077981  0.40192252  1  0  -0.747176  0  1.978498  0  0  -0.686065  0  2.228559  0  0  -0.718634  0  2.211604  0  0  -0.382069  -0.668266  0  2.238011  0
O  O68  1  0.81024260  0.93724874  0.93335540  1  0  -0.680821  0  1.957125  0  0  -0.628151  0  2.200671  0  0  -0.65859  0  2.188233  0  0  -0.372904  -0.611467  0  2.207275  0
O  O69  1  0.31022288  0.56274034  0.56663825  1  0  -0.680897  0  1.956995  0  0  -0.628202  0  2.200504  0  0  -0.658645  0  2.188053  0  0  -0.372991  -0.611528  0  2.207129  0
O  O70  1  0.18976160  0.06275109  0.06664280  1  0  -0.680815  0  1.957084  0  0  -0.628136  0  2.200637  0  0  -0.658573  0  2.188196  0  0  -0.372926  -0.611464  0  2.207248  0
O  O71  1  0.68975451  0.43724787  0.43335565  1  0  -0.680888  0  1.957072  0  0  -0.628181  0  2.20058  0  0  -0.658617  0  2.18814  0  0  -0.372912  -0.611493  0  2.207189  0
O  O72  1  0.11246403  0.24748632  0.91595305  1  0  -0.726277  0  2.051808  0  0  -0.668558  0  2.31014  0  0  -0.701412  0  2.294473  0  0  -0.402631  -0.65067  0  2.317936  0
O  O73  1  0.61245094  0.25250639  0.58404680  1  0  -0.726108  0  2.051897  0  0  -0.668394  0  2.31032  0  0  -0.701256  0  2.29465  0  0  -0.402528  -0.650503  0  2.318118  0
O  O74  1  0.88755208  0.75251354  0.08405021  1  0  -0.726205  0  2.051669  0  0  -0.668456  0  2.310116  0  0  -0.701313  0  2.29445  0  0  -0.402554  -0.650569  0  2.317905  0
O  O75  1  0.38753539  0.74749489  0.41595193  1  0  -0.726267  0  2.051902  0  0  -0.668536  0  2.310224  0  0  -0.701386  0  2.294555  0  0  -0.40262  -0.650645  0  2.318022  0
O  O76  1  0.42794527  0.29268433  0.94824881  1  0  -0.727357  0  1.984588  0  0  -0.667268  0  2.225389  0  0  -0.700396  0  2.212992  0  0  -0.383112  -0.648377  0  2.232403  0
O  O77  1  0.92793357  0.20729791  0.55175862  1  0  -0.727309  0  1.984633  0  0  -0.667204  0  2.225527  0  0  -0.700342  0  2.213132  0  0  -0.383094  -0.648313  0  2.232542  0
O  O78  1  0.57206935  0.70731842  0.05175299  1  0  -0.727268  0  1.98454  0  0  -0.667178  0  2.225501  0  0  -0.70031  0  2.213103  0  0  -0.383084  -0.648299  0  2.232522  0
O  O79  1  0.07205574  0.79268745  0.44824433  1  0  -0.727375  0  1.984543  0  0  -0.66737  0  2.225483  0  0  -0.700495  0  2.213086  0  0  -0.383149  -0.648475  0  2.232493  0
O  O80  1  0.39915592  0.33269143  0.71061357  1  0  -0.730696  0  2.025371  0  0  -0.680255  0  2.288059  0  0  -0.71301  0  2.275369  0  0  -0.39987  -0.662352  0  2.294566  0
O  O81  1  0.89914998  0.16732847  0.78938452  1  0  -0.730721  0  2.025904  0  0  -0.680286  0  2.28856  0  0  -0.71303  0  2.275875  0  0  -0.399928  -0.662417  0  2.295078  0
O  O82  1  0.60083934  0.66731852  0.28937979  1  0  -0.730765  0  2.025695  0  0  -0.680391  0  2.288347  0  0  -0.713135  0  2.275656  0  0  -0.399999  -0.662508  0  2.294871  0
O  O83  1  0.10086166  0.83268008  0.21061892  1  0  -0.730821  0  2.025516  0  0  -0.680396  0  2.288189  0  0  -0.713139  0  2.275497  0  0  -0.399988  -0.662507  0  2.2947  0
O  O84  1  0.53116446  0.38162043  0.81424709  1  0  -0.720175  0  2.065334  0  0  -0.665482  0  2.311991  0  0  -0.696663  0  2.300021  0  0  -0.385367  -0.648059  0  2.318344  0
O  O85  1  0.03116315  0.11838687  0.68575554  1  0  -0.720426  0  2.065147  0  0  -0.665732  0  2.311803  0  0  -0.696926  0  2.29983  0  0  -0.385509  -0.648278  0  2.318132  0
O  O86  1  0.46884272  0.61837505  0.18575202  1  0  -0.720293  0  2.065071  0  0  -0.66563  0  2.311662  0  0  -0.696817  0  2.299696  0  0  -0.385361  -0.64819  0  2.317999  0
O  O87  1  0.96883658  0.88161585  0.31424171  1  0  -0.720336  0  2.065408  0  0  -0.665673  0  2.312074  0  0  -0.696856  0  2.300111  0  0  -0.385475  -0.648235  0  2.318425  0
O  O88  1  0.79409766  0.36012009  0.02216155  1  0  -0.904366  0  1.866091  0  0  -0.853924  0  2.060987  0  0  -0.879252  0  2.021622  0  0  -0.637136  -0.841041  0  2.08605  0
O  O89  1  0.29407252  0.13988313  0.47784263  1  0  -0.904219  0  1.866328  0  0  -0.853818  0  2.061196  0  0  -0.879145  0  2.021836  0  0  -0.637121  -0.840926  0  2.086264  0
O  O90  1  0.20592441  0.63987396  0.97784058  1  0  -0.904231  0  1.86641  0  0  -0.853816  0  2.061334  0  0  -0.879137  0  2.021978  0  0  -0.63715  -0.840927  0  2.086399  0
O  O91  1  0.70590636  0.86011960  0.52215664  1  0  -0.904359  0  1.866203  0  0  -0.853956  0  2.061082  0  0  -0.879281  0  2.021719  0  0  -0.637153  -0.841071  0  2.086149  0
