# generated using pymatgen
data_Li2H6C6S2O9
_symmetry_space_group_name_H-M   'P 1'
_cell_length_a   7.65473975
_cell_length_b   8.52657090
_cell_length_c   9.35398072
_cell_angle_alpha   83.14554527
_cell_angle_beta   67.71431834
_cell_angle_gamma   76.27703547
_symmetry_Int_Tables_number   1
_chemical_formula_structural   Li2H6C6S2O9
_chemical_formula_sum   'Li4 H12 C12 S4 O18'
_cell_volume   548.49933125
_cell_formula_units_Z   2
loop_
 _symmetry_equiv_pos_site_id
 _symmetry_equiv_pos_as_xyz
  1  'x, y, z'
loop_
 _atom_site_type_symbol
 _atom_site_label
 _atom_site_symmetry_multiplicity
 _atom_site_fract_x
 _atom_site_fract_y
 _atom_site_fract_z
 _atom_site_occupancy
 _atom_site_hle17_bader_spin_density
 _atom_site_hle17_ddec_charge
 _atom_site_hle17_ddec_spin_density
 _atom_site_hle17_ddec_sum_bond_order
 _atom_site_hle17_magmom
 _atom_site_hse06_10hf_bader_spin_density
 _atom_site_hse06_10hf_ddec_charge
 _atom_site_hse06_10hf_ddec_spin_density
 _atom_site_hse06_10hf_ddec_sum_bond_order
 _atom_site_hse06_10hf_magmom
 _atom_site_hse06_bader_spin_density
 _atom_site_hse06_ddec_charge
 _atom_site_hse06_ddec_spin_density
 _atom_site_hse06_ddec_sum_bond_order
 _atom_site_hse06_magmom
 _atom_site_pbe_bader_spin_density
 _atom_site_pbe_cm5_charge
 _atom_site_pbe_ddec_charge
 _atom_site_pbe_ddec_spin_density
 _atom_site_pbe_ddec_sum_bond_order
 _atom_site_pbe_magmom
Li  Li0  1  0.29796898  0.86196979  0.94367647  1  0  0.88302  0  0.336671  0  0  0.844286  0  0.436983  0  0  0.852834  0  0.421872  0  0  0.482713  0.838178  0  0.447711  0
Li  Li1  1  0.70203153  0.13803158  0.05632289  1  0  0.88302  0  0.336669  0  0  0.844286  0  0.436982  0  0  0.852833  0  0.421871  0  0  0.482706  0.838179  0  0.447711  0
Li  Li2  1  0.22556399  0.53732762  0.99154580  1  0  0.870566  0  0.386938  0  0  0.840259  0  0.478344  0  0  0.847621  0  0.464169  0  0  0.54012  0.834866  0  0.488641  0
Li  Li3  1  0.77443368  0.46267372  0.00845341  1  0  0.870565  0  0.386941  0  0  0.840261  0  0.478339  0  0  0.847622  0  0.464166  0  0  0.540144  0.834873  0  0.488634  0
H  H4  1  0.37660932  0.72966254  0.19926142  1  0  0.432824  0  0.864673  0  0  0.402277  0  0.927997  0  0  0.412124  0  0.913531  0  0  0.309679  0.395328  0  0.938173  0
H  H5  1  0.62338931  0.27033518  0.80073896  1  0  0.432834  0  0.864668  0  0  0.402281  0  0.928002  0  0  0.412125  0  0.913539  0  0  0.309677  0.395333  0  0.938176  0
H  H6  1  0.54083591  0.81090933  0.07463564  1  0  0.429518  0  0.858251  0  0  0.400303  0  0.929886  0  0  0.409821  0  0.915835  0  0  0.320164  0.393544  0  0.93991  0
H  H7  1  0.45916214  0.18909081  0.92536679  1  0  0.429526  0  0.858249  0  0  0.400316  0  0.929868  0  0  0.409833  0  0.915819  0  0  0.32017  0.393558  0  0.93989  0
H  H8  1  0.18974715  0.81485313  0.70958747  1  0  0.415317  0  0.779125  0  0  0.404696  0  0.822883  0  0  0.412595  0  0.814752  0  0  0.362852  0.39919  0  0.828592  0
H  H9  1  0.81025485  0.18514826  0.29041568  1  0  0.415295  0  0.779152  0  0  0.404669  0  0.822912  0  0  0.412569  0  0.814782  0  0  0.362835  0.399164  0  0.82862  0
H  H10  1  0.36605781  0.98630745  0.19495804  1  0  0.398759  0  0.882704  0  0  0.373505  0  0.949757  0  0  0.384886  0  0.937861  0  0  0.313181  0.365231  0  0.95882  0
H  H11  1  0.63394367  0.01369030  0.80504249  1  0  0.398671  0  0.882637  0  0  0.373423  0  0.949698  0  0  0.384804  0  0.937803  0  0  0.313132  0.365149  0  0.958763  0
H  H12  1  0.27802907  0.88021092  0.44995979  1  0  0.146903  0  0.938085  0  0  0.158114  0  0.995205  0  0  0.162375  0  0.993453  0  0  0.115539  0.155124  0  0.996565  0
H  H13  1  0.72197695  0.11978566  0.55003940  1  0  0.146936  0  0.938097  0  0  0.158123  0  0.995249  0  0  0.162382  0  0.993501  0  0  0.115539  0.155119  0  0.996628  0
H  H14  1  0.25206999  0.42920310  0.60053068  1  0  0.130646  0  0.928936  0  0  0.139127  0  0.987778  0  0  0.143072  0  0.983821  0  0  0.121284  0.136363  0  0.990573  0
H  H15  1  0.74793442  0.57079951  0.39946728  1  0  0.130666  0  0.92898  0  0  0.13912  0  0.987837  0  0  0.143065  0  0.983878  0  0  0.121261  0.136354  0  0.990639  0
C  C16  1  0.20858308  0.18928801  0.68094498  1  0  -0.274198  0  3.707162  0  0  -0.25618  0  3.968091  0  0  -0.270691  0  3.988356  0  0  -0.035556  -0.246785  0  3.955082  0
C  C17  1  0.79142123  0.81070977  0.31905569  1  0  -0.274238  0  3.707272  0  0  -0.25624  0  3.968173  0  0  -0.270759  0  3.988453  0  0  -0.035583  -0.246852  0  3.955167  0
C  C18  1  0.21643685  0.03416158  0.63766136  1  0  0.386229  0  3.814368  0  0  0.365525  0  4.085716  0  0  0.383378  0  4.09783  0  0  0.101208  0.353444  0  4.077725  0
C  C19  1  0.78356994  0.96583742  0.36233731  1  0  0.38625  0  3.814313  0  0  0.365623  0  4.085553  0  0  0.383472  0  4.097677  0  0  0.101228  0.353551  0  4.077549  0
C  C20  1  0.26884112  0.00148161  0.48269531  1  0  -0.359732  0  3.709028  0  0  -0.38576  0  3.97071  0  0  -0.39921  0  3.988373  0  0  -0.122546  -0.376915  0  3.958961  0
C  C21  1  0.73116608  0.99851619  0.51730764  1  0  -0.3598  0  3.709072  0  0  -0.385838  0  3.970756  0  0  -0.399286  0  3.988425  0  0  -0.122538  -0.376984  0  3.959013  0
C  C22  1  0.31714765  0.12275057  0.36855175  1  0  0.397672  0  3.819572  0  0  0.375123  0  4.086999  0  0  0.394172  0  4.098123  0  0  0.10355  0.361791  0  4.079311  0
C  C23  1  0.68285526  0.87724719  0.63144938  1  0  0.397684  0  3.81963  0  0  0.375121  0  4.087078  0  0  0.39417  0  4.098204  0  0  0.103535  0.361791  0  4.079384  0
C  C24  1  0.30958413  0.27819217  0.41256566  1  0  -0.26966  0  3.70806  0  0  -0.250903  0  3.969269  0  0  -0.265532  0  3.989084  0  0  -0.037072  -0.24097  0  3.955764  0
C  C25  1  0.69041560  0.72180677  0.58743422  1  0  -0.269623  0  3.708005  0  0  -0.250877  0  3.969247  0  0  -0.265509  0  3.989063  0  0  -0.037071  -0.240942  0  3.955732  0
C  C26  1  0.25613092  0.31006972  0.56730352  1  0  0.008814  0  3.754721  0  0  -0.033449  0  4.012844  0  0  -0.023462  0  4.027768  0  0  -0.067694  -0.040087  0  4.002792  0
C  C27  1  0.74387349  0.68993290  0.43269444  1  0  0.008791  0  3.754932  0  0  -0.033446  0  4.013022  0  0  -0.023453  0  4.027948  0  0  -0.067681  -0.040082  0  4.002967  0
S  S28  1  0.13658293  0.23392406  0.87707701  1  0  1.417959  0  5.591687  0  0  1.324049  0  6.104949  0  0  1.371627  0  6.078358  0  0  0.561596  1.290702  0  6.123523  0
S  S29  1  0.86341478  0.76607728  0.12292432  1  0  1.417967  0  5.591554  0  0  1.324044  0  6.104822  0  0  1.371626  0  6.078232  0  0  0.56158  1.290698  0  6.123396  0
S  S30  1  0.36972535  0.42881995  0.26605397  1  0  1.394905  0  5.604486  0  0  1.301245  0  6.12437  0  0  1.349004  0  6.09799  0  0  0.544869  1.268432  0  6.141441  0
S  S31  1  0.63027042  0.57117773  0.73394520  1  0  1.394827  0  5.60444  0  0  1.301166  0  6.124341  0  0  1.348919  0  6.097961  0  0  0.544835  1.268349  0  6.14141  0
O  O32  1  0.24663293  0.10465141  0.94767265  1  0  -0.733091  0  2.004296  0  0  -0.68561  0  2.261726  0  0  -0.704984  0  2.245432  0  0  -0.367246  -0.672277  0  2.27485  0
O  O33  1  0.75336451  0.89535115  0.05233077  1  0  -0.733122  0  2.004275  0  0  -0.685624  0  2.2617  0  0  -0.705  0  2.245408  0  0  -0.367236  -0.672293  0  2.274824  0
O  O34  1  0.39966706  0.81871553  0.11915725  1  0  -0.853547  0  1.878332  0  0  -0.806297  0  2.057427  0  0  -0.823482  0  2.027593  0  0  -0.59463  -0.79424  0  2.078616  0
O  O35  1  0.60033128  0.18128340  0.88084415  1  0  -0.853562  0  1.878345  0  0  -0.806312  0  2.057435  0  0  -0.823499  0  2.027606  0  0  -0.59463  -0.794254  0  2.078623  0
O  O36  1  0.18230973  0.39139146  0.87567136  1  0  -0.744131  0  1.978897  0  0  -0.701711  0  2.234769  0  0  -0.719653  0  2.216831  0  0  -0.391072  -0.689077  0  2.247014  0
O  O37  1  0.81769212  0.60860992  0.12432436  1  0  -0.74415  0  1.978913  0  0  -0.701724  0  2.234786  0  0  -0.719664  0  2.216847  0  0  -0.391075  -0.689079  0  2.24701  0
O  O38  1  0.92735121  0.24086471  0.94913771  1  0  -0.784923  0  2.023345  0  0  -0.741925  0  2.290839  0  0  -0.760082  0  2.272588  0  0  -0.430908  -0.728983  0  2.303023  0
O  O39  1  0.07264451  0.75914387  0.05085917  1  0  -0.784894  0  2.023278  0  0  -0.741893  0  2.290762  0  0  -0.76005  0  2.27251  0  0  -0.430885  -0.728954  0  2.30295  0
O  O40  1  0.17398680  0.91861267  0.75215481  1  0  -0.526585  0  2.151469  0  0  -0.483303  0  2.368902  0  0  -0.498239  0  2.35645  0  0  -0.332297  -0.47265  0  2.377359  0
O  O41  1  0.82601370  0.08138870  0.24784454  1  0  -0.526552  0  2.151507  0  0  -0.483274  0  2.368902  0  0  -0.498206  0  2.356445  0  0  -0.332264  -0.472623  0  2.377356  0
O  O42  1  0.34868374  0.57729545  0.34166048  1  0  -0.666487  0  1.903605  0  0  -0.613713  0  2.131275  0  0  -0.634696  0  2.116643  0  0  -0.331225  -0.598949  0  2.140885  0
O  O43  1  0.65130740  0.42270340  0.65833577  1  0  -0.666481  0  1.903578  0  0  -0.613698  0  2.131242  0  0  -0.634653  0  2.116575  0  0  -0.33122  -0.598932  0  2.14085  0
O  O44  1  0.23869934  0.44464383  0.18229369  1  0  -0.732981  0  1.954993  0  0  -0.693957  0  2.20647  0  0  -0.712199  0  2.189583  0  0  -0.402594  -0.681149  0  2.217804  0
O  O45  1  0.76129631  0.55534901  0.81770713  1  0  -0.732951  0  1.955036  0  0  -0.693918  0  2.206492  0  0  -0.71216  0  2.189606  0  0  -0.402543  -0.68111  0  2.217827  0
O  O46  1  0.57352502  0.36503100  0.16642314  1  0  -0.829606  0  2.02004  0  0  -0.790385  0  2.293788  0  0  -0.807677  0  2.274116  0  0  -0.430524  -0.777911  0  2.306779  0
O  O47  1  0.42647114  0.63497032  0.83357228  1  0  -0.829617  0  2.020119  0  0  -0.790374  0  2.293834  0  0  -0.807669  0  2.274161  0  0  -0.430526  -0.777897  0  2.306822  0
O  O48  1  0.37498706  0.09745148  0.21733406  1  0  -0.538168  0  2.188879  0  0  -0.485314  0  2.412516  0  0  -0.503606  0  2.40085  0  0  -0.333414  -0.472207  0  2.422013  0
O  O49  1  0.62501580  0.90254627  0.78266495  1  0  -0.538066  0  2.188815  0  0  -0.485217  0  2.412447  0  0  -0.503506  0  2.400777  0  0  -0.333369  -0.47211  0  2.421945  0
