# generated using pymatgen
data_PrH17C22N(O5F)2
_symmetry_space_group_name_H-M   'P 1'
_cell_length_a   9.67825886
_cell_length_b   10.78743546
_cell_length_c   13.16447576
_cell_angle_alpha   67.26057479
_cell_angle_beta   77.34910729
_cell_angle_gamma   64.24423040
_symmetry_Int_Tables_number   1
_chemical_formula_structural   PrH17C22N(O5F)2
_chemical_formula_sum   'Pr2 H34 C44 N2 O20 F4'
_cell_volume   1139.50139402
_cell_formula_units_Z   2
loop_
 _symmetry_equiv_pos_site_id
 _symmetry_equiv_pos_as_xyz
  1  'x, y, z'
loop_
 _atom_site_type_symbol
 _atom_site_label
 _atom_site_symmetry_multiplicity
 _atom_site_fract_x
 _atom_site_fract_y
 _atom_site_fract_z
 _atom_site_occupancy
 _atom_site_hle17_bader_spin_density
 _atom_site_hle17_ddec_charge
 _atom_site_hle17_ddec_spin_density
 _atom_site_hle17_ddec_sum_bond_order
 _atom_site_hle17_magmom
 _atom_site_hse06_10hf_bader_spin_density
 _atom_site_hse06_10hf_ddec_charge
 _atom_site_hse06_10hf_ddec_spin_density
 _atom_site_hse06_10hf_ddec_sum_bond_order
 _atom_site_hse06_10hf_magmom
 _atom_site_hse06_bader_spin_density
 _atom_site_hse06_ddec_charge
 _atom_site_hse06_ddec_spin_density
 _atom_site_hse06_ddec_sum_bond_order
 _atom_site_hse06_magmom
 _atom_site_pbe_bader_spin_density
 _atom_site_pbe_cm5_charge
 _atom_site_pbe_ddec_charge
 _atom_site_pbe_ddec_spin_density
 _atom_site_pbe_ddec_sum_bond_order
 _atom_site_pbe_magmom
Pr  Pr0  1  0.77031919  0.96631839  0.48825363  1  0  2.315795  0  1.638218  0  0  2.155365  0  2.105385  0  0  2.239546  0  1.975543  0  0  1.495022  2.122952  0  2.142286  0
Pr  Pr1  1  0.22968200  0.03368084  0.51174515  1  0  2.315815  0  1.638199  0  0  2.155401  0  2.105337  0  0  2.239568  0  1.975517  0  0  1.495052  2.122985  0  2.142243  0
H  H2  1  0.83411363  0.20613931  0.21854086  1  0  0.093351  0  0.965148  0  0  0.098015  0  1.034702  0  0  0.100807  0  1.032259  0  0  0.124877  0.095856  0  1.03677  0
H  H3  1  0.16588879  0.79386207  0.78146009  1  0  0.093358  0  0.965146  0  0  0.098024  0  1.034699  0  0  0.100815  0  1.032258  0  0  0.124874  0.095871  0  1.036754  0
H  H4  1  0.94498285  0.38616384  0.19001344  1  0  0.108321  0  0.959704  0  0  0.119355  0  1.017915  0  0  0.121802  0  1.017984  0  0  0.11117  0.117667  0  1.017857  0
H  H5  1  0.05502062  0.61383758  0.80998429  1  0  0.108358  0  0.95968  0  0  0.119397  0  1.017875  0  0  0.121841  0  1.017946  0  0  0.111203  0.117709  0  1.01782  0
H  H6  1  0.95917335  0.47463050  0.83794477  1  0  0.117165  0  0.937855  0  0  0.132656  0  0.986114  0  0  0.135826  0  0.985357  0  0  0.117886  0.130442  0  0.986747  0
H  H7  1  0.04082678  0.52536873  0.16205418  1  0  0.117127  0  0.937879  0  0  0.132631  0  0.986126  0  0  0.135802  0  0.985368  0  0  0.117881  0.130418  0  0.986758  0
H  H8  1  0.84509310  0.29326004  0.88284055  1  0  0.083566  0  0.940057  0  0  0.093647  0  1.001453  0  0  0.096036  0  0.999253  0  0  0.122232  0.092007  0  1.002896  0
H  H9  1  0.15490704  0.70673916  0.11716068  1  0  0.083568  0  0.940033  0  0  0.093653  0  1.001434  0  0  0.096042  0  0.999233  0  0  0.122243  0.092009  0  1.002881  0
H  H10  1  0.84717796  0.52012845  0.45099315  1  0  0.128879  0  0.923217  0  0  0.137796  0  0.982785  0  0  0.142626  0  0.9783  0  0  0.117407  0.13409  0  0.986467  0
H  H11  1  0.15282308  0.47987627  0.54900166  1  0  0.128849  0  0.923249  0  0  0.137819  0  0.982757  0  0  0.14265  0  0.978271  0  0  0.117408  0.134113  0  0.986439  0
H  H12  1  0.37765391  0.76882514  0.35851674  1  0  0.137227  0  0.941257  0  0  0.143205  0  1.00639  0  0  0.147262  0  1.003976  0  0  0.117065  0.140225  0  1.008132  0
H  H13  1  0.62234743  0.23117628  0.64148057  1  0  0.13724  0  0.941262  0  0  0.1432  0  1.00641  0  0  0.147257  0  1.003996  0  0  0.117077  0.140216  0  1.008154  0
H  H14  1  0.61828679  0.33526631  0.33764441  1  0  0.13386  0  0.94631  0  0  0.140214  0  1.013027  0  0  0.144445  0  1.009597  0  0  0.118699  0.136875  0  1.016076  0
H  H15  1  0.38171140  0.66473507  0.66235646  1  0  0.133874  0  0.946261  0  0  0.140233  0  1.012967  0  0  0.144464  0  1.009538  0  0  0.118708  0.136893  0  1.016022  0
H  H16  1  0.77070300  0.99889044  0.86185877  1  0  0.113821  0  0.953389  0  0  0.120526  0  1.020547  0  0  0.124364  0  1.017352  0  0  0.10952  0.117761  0  1.022865  0
H  H17  1  0.22929609  0.00110876  0.13814263  1  0  0.113831  0  0.953387  0  0  0.120535  0  1.020549  0  0  0.124374  0  1.017351  0  0  0.109502  0.117753  0  1.022891  0
H  H18  1  0.61056189  0.74919002  0.17057879  1  0  0.127914  0  0.963209  0  0  0.133073  0  1.03255  0  0  0.136035  0  1.03157  0  0  0.108708  0.130977  0  1.033258  0
H  H19  1  0.38943657  0.25080810  0.82942229  1  0  0.12794  0  0.963256  0  0  0.133125  0  1.032567  0  0  0.136088  0  1.031584  0  0  0.108738  0.13103  0  1.033274  0
H  H20  1  0.59840200  0.68847520  0.86769385  1  0  0.143235  0  0.917048  0  0  0.151511  0  0.975663  0  0  0.156143  0  0.971716  0  0  0.12064  0.148318  0  0.97807  0
H  H21  1  0.40159979  0.31152513  0.13230449  1  0  0.143243  0  0.917051  0  0  0.15151  0  0.975667  0  0  0.156138  0  0.971718  0  0  0.120637  0.148318  0  0.978073  0
H  H22  1  0.13315671  0.74009940  0.32336627  1  0  0.077426  0  0.965129  0  0  0.091873  0  1.033765  0  0  0.093299  0  1.032502  0  0  0.091248  0.090936  0  1.034558  0
H  H23  1  0.86683982  0.25990088  0.67663597  1  0  0.077501  0  0.965116  0  0  0.091925  0  1.033775  0  0  0.093353  0  1.032513  0  0  0.091266  0.090987  0  1.03457  0
H  H24  1  0.06329598  0.87576210  0.19340225  1  0  0.071035  0  0.95142  0  0  0.08652  0  1.02262  0  0  0.087992  0  1.020693  0  0  0.089875  0.085382  0  1.024044  0
H  H25  1  0.93669993  0.12423710  0.80659967  1  0  0.07102  0  0.951455  0  0  0.086506  0  1.022663  0  0  0.087979  0  1.020737  0  0  0.089864  0.085368  0  1.024089  0
H  H26  1  0.94075852  0.79390227  0.29173189  1  0  0.097491  0  0.946425  0  0  0.113618  0  1.011417  0  0  0.114675  0  1.01148  0  0  0.10692  0.112712  0  1.01181  0
H  H27  1  0.05923739  0.20609692  0.70827079  1  0  0.097485  0  0.946365  0  0  0.113665  0  1.011289  0  0  0.114722  0  1.011353  0  0  0.106913  0.112759  0  1.011682  0
H  H28  1  0.79988558  0.12364836  0.05008403  1  0  0.343886  0  0.949723  0  0  0.304036  0  1.040625  0  0  0.317752  0  1.028164  0  0  0.289632  0.29429  0  1.049626  0
H  H29  1  0.20011712  0.87634976  0.94991636  1  0  0.343932  0  0.949673  0  0  0.304082  0  1.040586  0  0  0.317819  0  1.028077  0  0  0.289656  0.294336  0  1.049588  0
H  H30  1  0.05490939  0.98238542  0.32295289  1  0  0.394806  0  0.888388  0  0  0.371642  0  0.957589  0  0  0.381476  0  0.946757  0  0  0.312361  0.364203  0  0.966344  0
H  H31  1  0.94508668  0.01761597  0.67704756  1  0  0.394866  0  0.888398  0  0  0.371702  0  0.957584  0  0  0.381537  0  0.946751  0  0  0.312366  0.364265  0  0.966333  0
H  H32  1  0.52043806  0.13729886  0.31625237  1  0  0.43901  0  0.85758  0  0  0.410382  0  0.917498  0  0  0.420984  0  0.90212  0  0  0.302708  0.402376  0  0.929268  0
H  H33  1  0.47956435  0.86270254  0.68374705  1  0  0.439208  0  0.857313  0  0  0.410541  0  0.917302  0  0  0.421144  0  0.901922  0  0  0.302736  0.402516  0  0.929092  0
H  H34  1  0.66716311  0.04642092  0.25846082  1  0  0.432364  0  0.866481  0  0  0.402203  0  0.929306  0  0  0.413255  0  0.913346  0  0  0.297022  0.394278  0  0.940864  0
H  H35  1  0.33283914  0.95357829  0.74153930  1  0  0.432348  0  0.866501  0  0  0.402192  0  0.929317  0  0  0.413244  0  0.913357  0  0  0.29702  0.394267  0  0.940874  0
C  C36  1  0.86386572  0.26854817  0.13582503  1  0  0.146244  0  3.667276  0  0  0.111993  0  3.923832  0  0  0.119203  0  3.939711  0  0  0.060389  0.10787  0  3.912385  0
C  C37  1  0.13613486  0.73144995  0.86417570  1  0  0.14629  0  3.667249  0  0  0.112057  0  3.923768  0  0  0.119271  0  3.939646  0  0  0.060416  0.107933  0  3.912329  0
C  C38  1  0.92638616  0.36981488  0.11842553  1  0  -0.148031  0  3.684771  0  0  -0.168533  0  3.937337  0  0  -0.176365  0  3.959803  0  0  -0.075395  -0.163405  0  3.922117  0
C  C39  1  0.07360989  0.63018652  0.88157416  1  0  -0.148169  0  3.684867  0  0  -0.168661  0  3.937478  0  0  -0.176493  0  3.959942  0  0  -0.075479  -0.163533  0  3.922261  0
C  C40  1  0.96518016  0.44689279  0.01074823  1  0  0.089198  0  3.767766  0  0  0.10074  0  3.999768  0  0  0.103842  0  4.023676  0  0  0.014791  0.098735  0  3.984083  0
C  C41  1  0.03481031  0.55311189  0.98924982  1  0  0.089269  0  3.767819  0  0  0.100717  0  3.999899  0  0  0.10382  0  4.023805  0  0  0.014834  0.098711  0  3.98421  0
C  C42  1  0.93448939  0.41889160  0.92408234  1  0  -0.153217  0  3.703725  0  0  -0.17202  0  3.952005  0  0  -0.17996  0  3.974116  0  0  -0.076218  -0.167085  0  3.937605  0
C  C43  1  0.06550560  0.58110981  0.07591599  1  0  -0.153119  0  3.703742  0  0  -0.1719  0  3.952037  0  0  -0.179842  0  3.974147  0  0  -0.076172  -0.166964  0  3.937633  0
C  C44  1  0.87101295  0.31694940  0.94820114  1  0  0.135228  0  3.696838  0  0  0.100748  0  3.951707  0  0  0.107665  0  3.968958  0  0  0.055895  0.095759  0  3.940215  0
C  C45  1  0.12898764  0.68304872  0.05179960  1  0  0.135216  0  3.696801  0  0  0.100716  0  3.951703  0  0  0.107638  0  3.968952  0  0  0.055854  0.09573  0  3.94021  0
C  C46  1  0.88402118  0.27032079  0.42290608  1  0  0.697445  0  3.895642  0  0  0.651008  0  4.187513  0  0  0.685251  0  4.18062  0  0  0.226462  0.627704  0  4.193495  0
C  C47  1  0.11598077  0.72968172  0.57709079  1  0  0.697514  0  3.895605  0  0  0.651057  0  4.187492  0  0  0.6853  0  4.1806  0  0  0.226479  0.627753  0  4.193477  0
C  C48  1  0.74819534  0.41315955  0.39647598  1  0  -0.058197  0  3.765951  0  0  -0.031545  0  4.004883  0  0  -0.039715  0  4.027888  0  0  -0.015802  -0.026247  0  3.988911  0
C  C49  1  0.25180584  0.58683968  0.60352280  1  0  -0.058252  0  3.765983  0  0  -0.031578  0  4.004895  0  0  -0.039746  0  4.027899  0  0  -0.015816  -0.026279  0  3.988925  0
C  C50  1  0.74642008  0.53016161  0.41952234  1  0  -0.076211  0  3.673026  0  0  -0.121219  0  3.92842  0  0  -0.118478  0  3.944711  0  0  -0.076828  -0.122819  0  3.917344  0
C  C51  1  0.25357959  0.46983872  0.58047558  1  0  -0.076248  0  3.673082  0  0  -0.121306  0  3.928466  0  0  -0.118566  0  3.944757  0  0  -0.07686  -0.122904  0  3.917394  0
C  C52  1  0.61250890  0.65690858  0.40787723  1  0  -0.038654  0  3.735192  0  0  -0.013398  0  3.97117  0  0  -0.020579  0  3.99225  0  0  -0.008794  -0.008784  0  3.956315  0
C  C53  1  0.38749183  0.34309175  0.59212051  1  0  -0.03857  0  3.735217  0  0  -0.013335  0  3.971207  0  0  -0.020515  0  3.99229  0  0  -0.00875  -0.008722  0  3.956356  0
C  C54  1  0.60673483  0.77630003  0.44271708  1  0  0.728042  0  3.854379  0  0  0.680989  0  4.142244  0  0  0.716561  0  4.133133  0  0  0.238796  0.656744  0  4.149582  0
C  C55  1  0.39326635  0.22369921  0.55728093  1  0  0.727966  0  3.854458  0  0  0.68092  0  4.142317  0  0  0.716488  0  4.13321  0  0  0.238728  0.656675  0  4.149655  0
C  C56  1  0.48200407  0.67000837  0.36800644  1  0  -0.179222  0  3.693532  0  0  -0.214328  0  3.948086  0  0  -0.215077  0  3.964535  0  0  -0.084137  -0.212875  0  3.936197  0
C  C57  1  0.51799666  0.32999196  0.63199130  1  0  -0.179219  0  3.693633  0  0  -0.214307  0  3.948173  0  0  -0.215055  0  3.964622  0  0  -0.084149  -0.212848  0  3.936287  0
C  C58  1  0.49045479  0.55457754  0.34078070  1  0  0.30419  0  3.791285  0  0  0.291856  0  4.081055  0  0  0.300777  0  4.091086  0  0  0.096363  0.285691  0  4.073632  0
C  C59  1  0.50954414  0.44541946  0.65922217  1  0  0.304111  0  3.791364  0  0  0.291794  0  4.081098  0  0  0.300715  0  4.091129  0  0  0.096328  0.285627  0  4.073679  0
C  C60  1  0.61910877  0.42530961  0.35572977  1  0  -0.168298  0  3.709069  0  0  -0.210186  0  3.969957  0  0  -0.21035  0  3.986489  0  0  -0.082866  -0.209401  0  3.958737  0
C  C61  1  0.38089136  0.57468961  0.64426994  1  0  -0.168204  0  3.709042  0  0  -0.210106  0  3.969906  0  0  -0.21027  0  3.986436  0  0  -0.082839  -0.209322  0  3.95869  0
C  C62  1  0.72101144  0.88472077  0.72993825  1  0  0.659339  0  3.893929  0  0  0.609257  0  4.184278  0  0  0.642673  0  4.18021  0  0  0.20669  0.586174  0  4.188757  0
C  C63  1  0.27898779  0.11528064  0.27006092  1  0  0.65936  0  3.893947  0  0  0.609255  0  4.184298  0  0  0.64267  0  4.180227  0  0  0.206679  0.586173  0  4.188777  0
C  C64  1  0.68998517  0.84713673  0.85184999  1  0  -0.040896  0  3.759419  0  0  -0.013988  0  3.998027  0  0  -0.022021  0  4.020354  0  0  -0.013414  -0.008748  0  3.982397  0
C  C65  1  0.31001725  0.15286466  0.14815020  1  0  -0.040926  0  3.759486  0  0  -0.013928  0  3.997981  0  0  -0.021959  0  4.020305  0  0  -0.013413  -0.008688  0  3.982349  0
C  C66  1  0.72368555  0.91642835  0.90774965  1  0  -0.069782  0  3.687587  0  0  -0.115345  0  3.944571  0  0  -0.112755  0  3.963407  0  0  -0.078055  -0.116349  0  3.931461  0
C  C67  1  0.27631655  0.08356866  0.09225271  1  0  -0.069795  0  3.687559  0  0  -0.115409  0  3.94454  0  0  -0.11282  0  3.963375  0  0  -0.078053  -0.116401  0  3.931438  0
C  C68  1  0.69487595  0.88195478  0.02198613  1  0  -0.059015  0  3.783602  0  0  -0.033601  0  4.022334  0  0  -0.04272  0  4.047208  0  0  -0.017917  -0.027916  0  4.005807  0
C  C69  1  0.30512977  0.11804115  0.97801521  1  0  -0.059068  0  3.783608  0  0  -0.033629  0  4.022344  0  0  -0.042751  0  4.047224  0  0  -0.017949  -0.027942  0  4.005814  0
C  C70  1  0.72438314  0.96151445  0.08064243  1  0  0.655843  0  3.841853  0  0  0.604407  0  4.13926  0  0  0.637753  0  4.131693  0  0  0.232538  0.58156  0  4.144193  0
C  C71  1  0.27562017  0.03848477  0.91935752  1  0  0.655916  0  3.841887  0  0  0.604459  0  4.139318  0  0  0.637804  0  4.131758  0  0  0.232604  0.581613  0  4.144252  0
C  C72  1  0.63310836  0.77640010  0.08151433  1  0  -0.163404  0  3.688703  0  0  -0.201865  0  3.942385  0  0  -0.202219  0  3.960345  0  0  -0.084792  -0.201444  0  3.930607  0
C  C73  1  0.36689027  0.22360020  0.91848605  1  0  -0.163422  0  3.688716  0  0  -0.201896  0  3.942375  0  0  -0.202251  0  3.960335  0  0  -0.08482  -0.201475  0  3.930601  0
C  C74  1  0.60000460  0.70983565  0.02360796  1  0  0.303934  0  3.790355  0  0  0.293959  0  4.077692  0  0  0.301983  0  4.088449  0  0  0.096449  0.287828  0  4.071008  0
C  C75  1  0.39999013  0.29016900  0.97639246  1  0  0.303974  0  3.790272  0  0  0.293975  0  4.077633  0  0  0.301998  0  4.088391  0  0  0.096478  0.287843  0  4.070954  0
C  C76  1  0.62627113  0.74290106  0.91005014  1  0  -0.163643  0  3.688979  0  0  -0.207704  0  3.951478  0  0  -0.207207  0  3.96676  0  0  -0.084242  -0.206955  0  3.94031  0
C  C77  1  0.37373023  0.25710033  0.08994945  1  0  -0.163676  0  3.689101  0  0  -0.207729  0  3.951561  0  0  -0.207227  0  3.966838  0  0  -0.08425  -0.20698  0  3.940395  0
C  C78  1  0.03258929  0.83196875  0.28186049  1  0  -0.022128  0  3.639823  0  0  -0.115364  0  3.909384  0  0  -0.109631  0  3.914328  0  0  -0.149266  -0.11933  0  3.907354  0
C  C79  1  0.96740511  0.16803153  0.71814133  1  0  -0.022172  0  3.639877  0  0  -0.115431  0  3.909433  0  0  -0.109702  0  3.914379  0  0  -0.14923  -0.119398  0  3.907407  0
N  N80  1  0.83796474  0.24151268  0.05201397  1  0  -0.282829  0  3.208837  0  0  -0.217605  0  3.451826  0  0  -0.232135  0  3.467237  0  0  -0.306935  -0.207598  0  3.441218  0
N  N81  1  0.16203752  0.75848652  0.94798767  1  0  -0.282871  0  3.208736  0  0  -0.217652  0  3.451741  0  0  -0.232197  0  3.46714  0  0  -0.306924  -0.207645  0  3.441133  0
O  O82  1  0.86324090  0.15617906  0.43447495  1  0  -0.786901  0  2.071474  0  0  -0.737133  0  2.349055  0  0  -0.767672  0  2.333531  0  0  -0.418786  -0.720552  0  2.359885  0
O  O83  1  0.13676091  0.84382124  0.56552567  1  0  -0.786891  0  2.071608  0  0  -0.737117  0  2.349185  0  0  -0.767654  0  2.333663  0  0  -0.418789  -0.720536  0  2.360018  0
O  O84  1  0.01150031  0.26849179  0.43420289  1  0  -0.690606  0  1.981486  0  0  -0.643033  0  2.220673  0  0  -0.670191  0  2.208009  0  0  -0.376636  -0.627102  0  2.228446  0
O  O85  1  0.98850149  0.73150852  0.56579620  1  0  -0.690637  0  1.981388  0  0  -0.643066  0  2.220605  0  0  -0.670222  0  2.207932  0  0  -0.376627  -0.627136  0  2.228379  0
O  O86  1  0.73346133  0.78289581  0.44548645  1  0  -0.706728  0  1.997883  0  0  -0.654574  0  2.242686  0  0  -0.68343  0  2.228471  0  0  -0.389675  -0.637902  0  2.251658  0
O  O87  1  0.26653940  0.21710452  0.55451129  1  0  -0.706697  0  1.997877  0  0  -0.654562  0  2.242698  0  0  -0.683413  0  2.228487  0  0  -0.389691  -0.637889  0  2.25167  0
O  O88  1  0.47611063  0.86259626  0.46955351  1  0  -0.782015  0  2.052593  0  0  -0.729986  0  2.319678  0  0  -0.761402  0  2.305011  0  0  -0.409297  -0.712351  0  2.329788  0
O  O89  1  0.52388842  0.13740300  0.53044332  1  0  -0.781983  0  2.052648  0  0  -0.729946  0  2.319721  0  0  -0.761362  0  2.305054  0  0  -0.409224  -0.712312  0  2.32983  0
O  O90  1  0.67197619  0.83483946  0.67796234  1  0  -0.686168  0  2.003761  0  0  -0.628663  0  2.229707  0  0  -0.65656  0  2.218448  0  0  -0.354413  -0.611399  0  2.236696  0
O  O91  1  0.32802244  0.16516085  0.32203727  1  0  -0.6861  0  2.003834  0  0  -0.628621  0  2.229783  0  0  -0.656516  0  2.218521  0  0  -0.354399  -0.611362  0  2.236778  0
O  O92  1  0.79629867  0.96636279  0.67879875  1  0  -0.707847  0  2.028344  0  0  -0.653374  0  2.269391  0  0  -0.682014  0  2.259535  0  0  -0.359228  -0.635736  0  2.275626  0
O  O93  1  0.20370101  0.03363752  0.32120069  1  0  -0.707873  0  2.028246  0  0  -0.653401  0  2.269301  0  0  -0.68204  0  2.259445  0  0  -0.359244  -0.635759  0  2.275535  0
O  O94  1  0.69011305  0.94083181  0.18082732  1  0  -0.574412  0  1.971525  0  0  -0.521236  0  2.184424  0  0  -0.544195  0  2.177639  0  0  -0.283008  -0.505104  0  2.188776  0
O  O95  1  0.30988815  0.05916739  0.81917374  1  0  -0.574415  0  1.971541  0  0  -0.521245  0  2.184478  0  0  -0.544202  0  2.177685  0  0  -0.283019  -0.505113  0  2.188828  0
O  O96  1  0.78678913  0.05359886  0.01515130  1  0  -0.553892  0  2.153362  0  0  -0.504952  0  2.391964  0  0  -0.52835  0  2.379399  0  0  -0.326379  -0.488542  0  2.400504  0
O  O97  1  0.21321977  0.94639707  0.98485029  1  0  -0.553952  0  2.153459  0  0  -0.504992  0  2.392033  0  0  -0.528399  0  2.379452  0  0  -0.326429  -0.48858  0  2.400573  0
O  O98  1  0.97420572  0.94548477  0.33022980  1  0  -0.617734  0  2.194885  0  0  -0.549639  0  2.442434  0  0  -0.572081  0  2.431509  0  0  -0.465834  -0.537054  0  2.450591  0
O  O99  1  0.02579141  0.05451662  0.66977048  1  0  -0.61783  0  2.194988  0  0  -0.549734  0  2.442545  0  0  -0.572174  0  2.431619  0  0  -0.46588  -0.537149  0  2.450706  0
O  O100  1  0.63422425  0.10417025  0.30944746  1  0  -0.91769  0  1.831801  0  0  -0.872514  0  2.022389  0  0  -0.895422  0  1.986165  0  0  -0.640285  -0.859575  0  2.04688  0
O  O101  1  0.36577817  0.89583115  0.69055196  1  0  -0.91785  0  1.831575  0  0  -0.872662  0  2.022185  0  0  -0.895565  0  1.985954  0  0  -0.640311  -0.859701  0  2.04673  0
F  F102  1  0.36539621  0.56628615  0.29973853  1  0  -0.219843  0  1.192015  0  0  -0.161533  0  1.342081  0  0  -0.17322  0  1.335405  0  0  -0.099709  -0.154782  0  1.348615  0
F  F103  1  0.63460361  0.43370870  0.70026335  1  0  -0.21986  0  1.192049  0  0  -0.161549  0  1.342096  0  0  -0.173235  0  1.335418  0  0  -0.09971  -0.154796  0  1.348633  0
F  F104  1  0.53952865  0.60704508  0.08015768  1  0  -0.211317  0  1.187432  0  0  -0.157286  0  1.336243  0  0  -0.166321  0  1.327911  0  0  -0.103491  -0.150389  0  1.341839  0
F  F105  1  0.46047164  0.39295634  0.91983980  1  0  -0.211316  0  1.187375  0  0  -0.157297  0  1.336212  0  0  -0.166332  0  1.327881  0  0  -0.103484  -0.1504  0  1.341811  0
