# generated using pymatgen
data_CdH6C9SO4
_symmetry_space_group_name_H-M   'P 1'
_cell_length_a   5.98538354
_cell_length_b   7.86434048
_cell_length_c   10.05867138
_cell_angle_alpha   93.35284174
_cell_angle_beta   89.99471876
_cell_angle_gamma   89.99919027
_symmetry_Int_Tables_number   1
_chemical_formula_structural   CdH6C9SO4
_chemical_formula_sum   'Cd2 H12 C18 S2 O8'
_cell_volume   472.66222288
_cell_formula_units_Z   2
loop_
 _symmetry_equiv_pos_site_id
 _symmetry_equiv_pos_as_xyz
  1  'x, y, z'
loop_
 _atom_site_type_symbol
 _atom_site_label
 _atom_site_symmetry_multiplicity
 _atom_site_fract_x
 _atom_site_fract_y
 _atom_site_fract_z
 _atom_site_occupancy
 _atom_site_pbe_bader_spin_density
 _atom_site_pbe_cm5_charge
 _atom_site_pbe_ddec_charge
 _atom_site_pbe_ddec_spin_density
 _atom_site_pbe_ddec_sum_bond_order
 _atom_site_pbe_magmom
Cd  Cd0  1  0.58046163  0.61848815  0.55149860  1  0  0.747881  0.957287  0  2.231747  0
Cd  Cd1  1  0.08045637  0.38153436  0.44850395  1  0  0.747889  0.957422  0  2.231459  0
H  H2  1  0.07237726  0.70996151  0.83246704  1  0  0.101467  0.113375  0  1.021386  0
H  H3  1  0.57242148  0.29004009  0.16750613  1  0  0.101403  0.113376  0  1.021238  0
H  H4  1  0.10691743  0.60215171  0.05700231  1  0  0.104964  0.112822  0  1.011536  0
H  H5  1  0.60693787  0.39785784  0.94297261  1  0  0.105009  0.112864  0  1.011759  0
H  H6  1  0.45135590  0.79171566  0.15897170  1  0  0.103406  0.106354  0  1.020535  0
H  H7  1  0.95135750  0.20826143  0.84106985  1  0  0.103437  0.106435  0  1.020525  0
H  H8  1  0.41294015  0.90339387  0.93436163  1  0  0.098718  0.105608  0  1.021841  0
H  H9  1  0.91297783  0.09655907  0.06566381  1  0  0.098772  0.105619  0  1.021765  0
H  H10  1  0.94379969  0.01056312  0.56211699  1  0  0.115261  0.172494  0  0.992495  0
H  H11  1  0.44382530  0.98941752  0.43785816  1  0  0.115244  0.172378  0  0.992563  0
H  H12  1  0.08453439  0.98062121  0.71190413  1  0  0.112268  0.150263  0  1.004322  0
H  H13  1  0.58455352  0.01940498  0.28806964  1  0  0.112152  0.150158  0  1.00433  0
C  C14  1  0.74091333  0.81664391  0.86881339  1  0  -0.007052  0.062836  0  4.011315  0
C  C15  1  0.24094818  0.18335670  0.13119114  1  0  -0.007005  0.063108  0  4.011047  0
C  C16  1  0.93627319  0.73133903  0.90319570  1  0  -0.094062  -0.130837  0  3.966753  0
C  C17  1  0.43630013  0.26866240  0.09679512  1  0  -0.09402  -0.131015  0  3.966547  0
C  C18  1  0.95642129  0.67005903  0.02992187  1  0  -0.080483  -0.080481  0  3.958068  0
C  C19  1  0.45645354  0.32994247  0.97006070  1  0  -0.080505  -0.080486  0  3.957865  0
C  C20  1  0.78459632  0.69425175  0.12365501  1  0  -0.021977  -0.048833  0  3.976846  0
C  C21  1  0.28461297  0.30572962  0.87634631  1  0  -0.022063  -0.048714  0  3.976437  0
C  C22  1  0.58780285  0.77670440  0.08740133  1  0  -0.084424  -0.089948  0  3.979267  0
C  C23  1  0.08781930  0.22328152  0.91261489  1  0  -0.084381  -0.090126  0  3.979081  0
C  C24  1  0.56545260  0.83749881  0.96105882  1  0  -0.094194  -0.130128  0  3.981752  0
C  C25  1  0.06547233  0.16248363  0.03896656  1  0  -0.094275  -0.130176  0  3.981359  0
C  C26  1  0.81019997  0.63350292  0.26142087  1  0  0.210198  0.599222  0  4.189786  0
C  C27  1  0.31019569  0.36650196  0.73858181  1  0  0.210171  0.599111  0  4.189467  0
C  C28  1  0.96726832  0.91965411  0.63991032  1  0  -0.155036  -0.360352  0  3.884088  0
C  C29  1  0.46728265  0.08035078  0.36008115  1  0  -0.154957  -0.360119  0  3.883943  0
C  C30  1  0.07171377  0.75778829  0.57790412  1  0  0.212351  0.653886  0  4.149103  0
C  C31  1  0.57170661  0.24222419  0.42209327  1  0  0.212329  0.653913  0  4.149131  0
S  S32  1  0.69447006  0.90547497  0.71350502  1  0  0.042556  0.065709  0  2.867908  0
S  S33  1  0.19449013  0.09451989  0.28650198  1  0  0.042584  0.065599  0  2.867763  0
O  O34  1  0.69613819  0.71150817  0.35270620  1  0  -0.329726  -0.554026  0  2.283801  0
O  O35  1  0.19611002  0.28852477  0.64730893  1  0  -0.329697  -0.554098  0  2.283722  0
O  O36  1  0.94461093  0.50930877  0.27356128  1  0  -0.335016  -0.569116  0  2.296943  0
O  O37  1  0.44460961  0.49070668  0.72643880  1  0  -0.335028  -0.568995  0  2.296657  0
O  O38  1  0.96955951  0.61556315  0.58491538  1  0  -0.326575  -0.58073  0  2.432492  0
O  O39  1  0.46956260  0.38444162  0.41508799  1  0  -0.32644  -0.580716  0  2.432709  0
O  O40  1  0.25899662  0.77572702  0.52303485  1  0  -0.320525  -0.555431  0  2.294085  0
O  O41  1  0.75897453  0.22428038  0.47696168  1  0  -0.320621  -0.555515  0  2.293844  0
