# generated using pymatgen
data_ZnH14C20N4O5
_symmetry_space_group_name_H-M   'P 1'
_cell_length_a   14.79126566
_cell_length_b   20.36477903
_cell_length_c   20.02783410
_cell_angle_alpha   120.55567705
_cell_angle_beta   111.66939705
_cell_angle_gamma   89.99994851
_symmetry_Int_Tables_number   1
_chemical_formula_structural   ZnH14C20N4O5
_chemical_formula_sum   'Zn8 H112 C160 N32 O40'
_cell_volume   4693.22825583
_cell_formula_units_Z   8
loop_
 _symmetry_equiv_pos_site_id
 _symmetry_equiv_pos_as_xyz
  1  'x, y, z'
loop_
 _atom_site_type_symbol
 _atom_site_label
 _atom_site_symmetry_multiplicity
 _atom_site_fract_x
 _atom_site_fract_y
 _atom_site_fract_z
 _atom_site_occupancy
 _atom_site_pbe_bader_charge
 _atom_site_pbe_bader_spin_density
 _atom_site_pbe_cm5_charge
 _atom_site_pbe_ddec_charge
 _atom_site_pbe_ddec_spin_density
 _atom_site_pbe_ddec_sum_bond_order
 _atom_site_pbe_magmom
Zn  Zn0  1  0.74674109  0.05751865  0.71603797  1  1.316068  0  0.68643  0.825217  0  2.342723  0
Zn  Zn1  1  0.96945568  0.15867262  0.71624886  1  1.315872  0  0.686483  0.825847  0  2.343206  0
Zn  Zn2  1  0.24677081  0.65857755  0.71604710  1  1.316491  0  0.686247  0.824872  0  2.344906  0
Zn  Zn3  1  0.46944310  0.55763406  0.71627874  1  1.316866  0  0.686521  0.825907  0  2.342525  0
Zn  Zn4  1  0.75322536  0.34141855  0.28394885  1  1.316603  0  0.686255  0.824929  0  2.344836  0
Zn  Zn5  1  0.53056286  0.44236716  0.28372357  1  1.316796  0  0.686496  0.825862  0  2.342509  0
Zn  Zn6  1  0.25325758  0.94248203  0.28396380  1  1.316095  0  0.686383  0.825217  0  2.342687  0
Zn  Zn7  1  0.03054215  0.84132680  0.28374868  1  1.315808  0  0.686483  0.82581  0  2.343232  0
H  H8  1  0.61696767  0.06542667  0.56156966  1  0.125836  0  0.117562  0.093791  0  1.010842  0
H  H9  1  0.54191268  0.98576258  0.40304380  1  0.148505  0  0.112881  0.130936  0  1.050925  0
H  H10  1  0.68338160  0.80429869  0.41723004  1  0.129571  0  0.115825  0.127071  0  0.996312  0
H  H11  1  0.75186759  0.89344416  0.57844807  1  0.123193  0  0.120291  0.092808  0  0.995547  0
H  H12  1  0.45505675  0.91802098  0.16375380  1  0.088468  0  0.120433  0.098376  0  0.992079  0
H  H13  1  0.40129041  0.90933499  0.02517624  1  0.055951  0  0.114098  0.122911  0  0.982873  0
H  H14  1  0.32131951  0.82705830  0.86407305  1  0.096288  0  0.121825  0.100626  0  0.988821  0
H  H15  1  0.29399689  0.62245010  0.85934517  1  0.115391  0  0.116594  0.088961  0  1.015878  0
H  H16  1  0.37597691  0.69501655  0.01912899  1  0.099092  0  0.114746  0.1233  0  0.993417  0
H  H17  1  0.63630453  0.73455557  0.72026367  1  0.094679  0  0.097235  0.098807  0  1.05592  0
H  H18  1  0.70171746  0.84528016  0.71666205  1  0.098196  0  0.103514  0.112853  0  1.00929  0
H  H19  1  0.42940328  0.92382464  0.70757270  1  0.13225  0  0.098033  0.109343  0  1.060989  0
H  H20  1  0.36611411  0.81379422  0.71382056  1  0.098687  0  0.10342  0.112328  0  1.014119  0
H  H21  1  0.50324135  0.91896839  0.28282578  1  0.533634  0  0.315496  0.271449  0  1.014071  0
H  H22  1  0.94472546  0.99629572  0.56169962  1  0.108347  0  0.117827  0.094256  0  1.011034  0
H  H23  1  0.86121835  0.91746192  0.40318986  1  0.171136  0  0.112917  0.130155  0  1.0507  0
H  H24  1  0.73354870  0.11302259  0.41747191  1  0.115544  0  0.116124  0.127508  0  0.995562  0
H  H25  1  0.82635830  0.18506570  0.57867459  1  0.121343  0  0.120257  0.092355  0  0.994611  0
H  H26  1  0.70846862  0.74572435  0.16395247  1  0.087228  0  0.120615  0.099167  0  0.992406  0
H  H27  1  0.62388639  0.61581281  0.02535871  1  0.065245  0  0.114299  0.12331  0  0.981794  0
H  H28  1  0.54279899  0.53706532  0.86422670  1  0.075648  0  0.12177  0.100249  0  0.989372  0
H  H29  1  0.56502063  0.73707962  0.85964014  1  0.1079  0  0.116557  0.088648  0  1.015564  0
H  H30  1  0.64270315  0.82422890  0.01944108  1  0.107672  0  0.114557  0.123313  0  0.994279  0
H  H31  1  0.08399629  0.48559253  0.71996059  1  0.098486  0  0.097698  0.099756  0  1.055919  0
H  H32  1  0.01486525  0.37128653  0.71632894  1  0.110628  0  0.103732  0.112848  0  1.009753  0
H  H33  1  0.27817184  0.28370607  0.70749694  1  0.131399  0  0.098261  0.109725  0  1.060553  0
H  H34  1  0.34772308  0.39997221  0.71373862  1  0.109721  0  0.103716  0.112993  0  1.014007  0
H  H35  1  0.77936715  0.86394564  0.28309622  1  0.525123  0  0.316002  0.27174  0  1.013386  0
H  H36  1  0.11693788  0.49614036  0.56154234  1  0.114413  0  0.11761  0.093997  0  1.010552  0
H  H37  1  0.04187554  0.41729276  0.40302386  1  0.131097  0  0.112721  0.130496  0  1.051063  0
H  H38  1  0.18336304  0.61300377  0.41724796  1  0.106844  0  0.115937  0.127542  0  0.995747  0
H  H39  1  0.25187427  0.68503275  0.57846654  1  0.142335  0  0.119957  0.091833  0  0.994106  0
H  H40  1  0.95503591  0.24573997  0.16369479  1  0.095994  0  0.120596  0.09883  0  0.991887  0
H  H41  1  0.90134590  0.11590488  0.02521902  1  0.068537  0  0.114301  0.123352  0  0.981884  0
H  H42  1  0.82132203  0.03706346  0.86408915  1  0.130128  0  0.121696  0.10028  0  0.989405  0
H  H43  1  0.79390125  0.23692923  0.85928164  1  0.10408  0  0.116522  0.08863  0  1.015058  0
H  H44  1  0.87591143  0.32415904  0.01907389  1  0.115649  0  0.114996  0.1237  0  0.993808  0
H  H45  1  0.13632749  0.98581367  0.72041635  1  0.084461  0  0.097492  0.099523  0  1.055545  0
H  H46  1  0.20178838  0.87150327  0.71680959  1  0.095936  0  0.103399  0.112837  0  1.00925  0
H  H47  1  0.92946474  0.78370313  0.70754673  1  0.132248  0  0.098087  0.109514  0  1.060841  0
H  H48  1  0.86614001  0.89996964  0.71377004  1  0.096901  0  0.103323  0.112246  0  1.014023  0
H  H49  1  0.00325373  0.36388773  0.28284512  1  0.534256  0  0.315916  0.272136  0  1.014011  0
H  H50  1  0.44470325  0.56546227  0.56173846  1  0.086944  0  0.117583  0.093868  0  1.010101  0
H  H51  1  0.36114916  0.48578504  0.40322176  1  0.149031  0  0.112594  0.13032  0  1.051073  0
H  H52  1  0.23361812  0.30449966  0.41752777  1  0.12315  0  0.115747  0.126535  0  0.995664  0
H  H53  1  0.32647010  0.39364619  0.57872788  1  0.110166  0  0.119983  0.092273  0  0.996158  0
H  H54  1  0.20850705  0.41827507  0.16404998  1  0.094165  0  0.12068  0.098732  0  0.992524  0
H  H55  1  0.12383350  0.40957762  0.02534009  1  0.105353  0  0.114127  0.122941  0  0.982148  0
H  H56  1  0.04277500  0.32720957  0.86424107  1  0.100294  0  0.121428  0.100478  0  0.988681  0
H  H57  1  0.06496541  0.12264059  0.85968004  1  0.128592  0  0.116575  0.088624  0  1.016238  0
H  H58  1  0.14269778  0.19530139  0.01948218  1  0.099195  0  0.114882  0.122752  0  0.993392  0
H  H59  1  0.58389965  0.23441413  0.71985856  1  0.082069  0  0.097323  0.099478  0  1.055707  0
H  H60  1  0.51488764  0.34513281  0.71627115  1  0.093634  0  0.103601  0.112398  0  1.008763  0
H  H61  1  0.77828184  0.42383868  0.70749804  1  0.12074  0  0.098087  0.109485  0  1.060604  0
H  H62  1  0.84780858  0.31383141  0.71374268  1  0.105853  0  0.103756  0.112793  0  1.013752  0
H  H63  1  0.27934928  0.41914114  0.28309428  1  0.538895  0  0.316037  0.272697  0  1.012867  0
H  H64  1  0.88304048  0.50386164  0.43845369  1  0.114248  0  0.117567  0.093898  0  1.010688  0
H  H65  1  0.95809597  0.58271321  0.59697030  1  0.130821  0  0.112746  0.130496  0  1.051104  0
H  H66  1  0.81663643  0.38699432  0.58274883  1  0.106594  0  0.115945  0.127528  0  0.995747  0
H  H67  1  0.74812535  0.31496294  0.42153077  1  0.142224  0  0.11995  0.091805  0  0.99409  0
H  H68  1  0.04495431  0.75426106  0.83630084  1  0.095826  0  0.120596  0.098823  0  0.991911  0
H  H69  1  0.09864639  0.88409837  0.97478359  1  0.068248  0  0.114242  0.12334  0  0.981902  0
H  H70  1  0.17866971  0.96293422  0.13591076  1  0.130143  0  0.121693  0.10025  0  0.9894  0
H  H71  1  0.20609087  0.76306695  0.14070791  1  0.104263  0  0.116515  0.088648  0  1.015061  0
H  H72  1  0.12408508  0.67584150  0.98091771  1  0.114747  0  0.114984  0.123762  0  0.993856  0
H  H73  1  0.86367744  0.01419118  0.27959378  1  0.085098  0  0.097456  0.099487  0  1.055652  0
H  H74  1  0.79821476  0.12850068  0.28319844  1  0.095981  0  0.10341  0.11286  0  1.009272  0
H  H75  1  0.07053521  0.21629820  0.29245510  1  0.132239  0  0.09809  0.109532  0  1.060925  0
H  H76  1  0.13386150  0.10003364  0.28623673  1  0.097007  0  0.103278  0.112163  0  1.014053  0
H  H77  1  0.99673904  0.63611144  0.71714982  1  0.534136  0  0.316014  0.272206  0  1.013908  0
H  H78  1  0.55529982  0.43454079  0.43826337  1  0.087072  0  0.117596  0.093922  0  1.010095  0
H  H79  1  0.63885082  0.51421844  0.59677990  1  0.149025  0  0.112599  0.130376  0  1.051001  0
H  H80  1  0.76638090  0.69550516  0.58247702  1  0.123323  0  0.115771  0.126548  0  0.995659  0
H  H81  1  0.67353149  0.60636042  0.42127754  1  0.11004  0  0.119969  0.092239  0  0.996222  0
H  H82  1  0.79148324  0.58172122  0.83594853  1  0.09402  0  0.120738  0.098825  0  0.992665  0
H  H83  1  0.87615433  0.59041844  0.97466231  1  0.105185  0  0.114145  0.12301  0  0.981976  0
H  H84  1  0.95721400  0.67279120  0.13576021  1  0.100251  0  0.121408  0.100485  0  0.988697  0
H  H85  1  0.93504979  0.87735599  0.14031405  1  0.128267  0  0.116567  0.088568  0  1.016228  0
H  H86  1  0.85731045  0.80469152  0.98051172  1  0.09922  0  0.114855  0.122767  0  0.993372  0
H  H87  1  0.41610748  0.76558253  0.28013796  1  0.082379  0  0.097354  0.099464  0  1.055794  0
H  H88  1  0.48511220  0.65486282  0.28372432  1  0.09362  0  0.103611  0.112428  0  1.008787  0
H  H89  1  0.22171813  0.57616580  0.29250462  1  0.120627  0  0.098074  0.109502  0  1.06054  0
H  H90  1  0.15219739  0.68617493  0.28626247  1  0.105857  0  0.103786  0.112832  0  1.013721  0
H  H91  1  0.72064524  0.58085777  0.71690393  1  0.538786  0  0.316071  0.272758  0  1.012915  0
H  H92  1  0.38303492  0.93457878  0.43843046  1  0.125616  0  0.117513  0.09375  0  1.010907  0
H  H93  1  0.45809026  0.01424140  0.59695600  1  0.148322  0  0.112857  0.13093  0  1.050962  0
H  H94  1  0.31661370  0.19570279  0.58277608  1  0.129509  0  0.115822  0.12706  0  0.996371  0
H  H95  1  0.24812813  0.10655967  0.42155689  1  0.123094  0  0.120318  0.09275  0  0.995513  0
H  H96  1  0.54495152  0.08197360  0.83623943  1  0.088385  0  0.120444  0.098408  0  0.992032  0
H  H97  1  0.59871794  0.09065849  0.97482118  1  0.055835  0  0.114101  0.122905  0  0.983012  0
H  H98  1  0.67867647  0.17293638  0.13592323  1  0.096328  0  0.121802  0.100606  0  0.988856  0
H  H99  1  0.70599581  0.37754624  0.14065161  1  0.115534  0  0.11656  0.08885  0  1.016065  0
H  H100  1  0.62402672  0.30497669  0.98086702  1  0.099096  0  0.114742  0.123343  0  0.993411  0
H  H101  1  0.36369006  0.26544154  0.27973036  1  0.094791  0  0.097195  0.098771  0  1.055909  0
H  H102  1  0.29827605  0.15471723  0.28333108  1  0.098077  0  0.103543  0.112882  0  1.009214  0
H  H103  1  0.57058870  0.07616951  0.29242187  1  0.132096  0  0.097999  0.109286  0  1.060871  0
H  H104  1  0.63388146  0.18620225  0.28617872  1  0.098509  0  0.103422  0.112337  0  1.014158  0
H  H105  1  0.49675980  0.08103054  0.71717009  1  0.53375  0  0.315476  0.271389  0  1.014096  0
H  H106  1  0.05526487  0.00370637  0.43830005  1  0.108161  0  0.117833  0.094248  0  1.011016  0
H  H107  1  0.13877690  0.08253818  0.59680956  1  0.171083  0  0.112909  0.130129  0  1.050777  0
H  H108  1  0.26645808  0.88697847  0.58251787  1  0.115773  0  0.11615  0.127534  0  0.995494  0
H  H109  1  0.17364484  0.81493899  0.42131651  1  0.121292  0  0.12026  0.092348  0  0.994672  0
H  H110  1  0.29153822  0.25427367  0.83604956  1  0.087445  0  0.120578  0.099077  0  0.992551  0
H  H111  1  0.37611720  0.38418390  0.97464081  1  0.065195  0  0.114318  0.123338  0  0.981774  0
H  H112  1  0.45720555  0.46293203  0.13577169  1  0.075825  0  0.121777  0.100278  0  0.98942  0
H  H113  1  0.43498749  0.26291955  0.14036245  1  0.108159  0  0.116559  0.088713  0  1.015585  0
H  H114  1  0.35730402  0.17577013  0.98056315  1  0.107728  0  0.114549  0.123288  0  0.994356  0
H  H115  1  0.91601515  0.51440883  0.28005072  1  0.098334  0  0.097746  0.099758  0  1.056041  0
H  H116  1  0.98514908  0.62871762  0.28368519  1  0.11037  0  0.103737  0.112826  0  1.009813  0
H  H117  1  0.72183800  0.71630143  0.29251527  1  0.13141  0  0.098229  0.109745  0  1.060508  0
H  H118  1  0.65228858  0.60003372  0.28627319  1  0.109866  0  0.103725  0.113048  0  1.014011  0
H  H119  1  0.22063667  0.13605613  0.71690431  1  0.525407  0  0.316002  0.271687  0  1.013417  0
C  C120  1  0.63007585  0.00725118  0.52699997  1  0.471439  0  0.046757  0.097182  0  3.936167  0
C  C121  1  0.58847597  0.96175937  0.43779907  1  -0.116486  0  -0.079138  -0.157131  0  3.930691  0
C  C122  1  0.60790987  0.88746586  0.39653731  1  0.057043  0  0.006706  0.018773  0  3.960097  0
C  C123  1  0.66721003  0.86193083  0.44763326  1  -0.064138  0  -0.071686  -0.136089  0  3.92629  0
C  C124  1  0.70541362  0.91111190  0.53646091  1  0.458424  0  0.04977  0.096146  0  3.930513  0
C  C125  1  0.56995265  0.83340129  0.30078267  1  1.409729  0  0.240379  0.427973  0  4.140016  0
C  C126  1  0.44410366  0.85397614  0.12883584  1  0.556476  0  0.063358  0.002757  0  3.904335  0
C  C127  1  0.39595166  0.80842929  0.03551436  1  0.029662  0  0.012443  0.122046  0  4.03018  0
C  C128  1  0.37892800  0.84563480  0.99060750  1  0.096911  0  -0.080421  -0.179874  0  3.945948  0
C  C129  1  0.33469984  0.80052179  0.90134688  1  0.431937  0  0.046395  0.094465  0  3.946912  0
C  C130  1  0.32001566  0.68594043  0.89824805  1  0.511485  0  0.045087  0.098777  0  3.951465  0
C  C131  1  0.36493318  0.72621232  0.98690738  1  -0.056583  0  -0.077517  -0.168018  0  3.940073  0
C  C132  1  0.49668468  0.76634566  0.71465628  1  -0.073965  0  -0.024533  -0.046614  0  3.997532  0
C  C133  1  0.59142448  0.77572859  0.71626515  1  -0.028398  0  -0.089802  -0.092126  0  3.97692  0
C  C134  1  0.62756464  0.83744979  0.71440253  1  -0.03387  0  -0.086556  -0.094959  0  3.967516  0
C  C135  1  0.56834506  0.89012632  0.70965199  1  -0.038842  0  -0.01927  -0.031008  0  3.974592  0
C  C136  1  0.47396111  0.88156560  0.70925044  1  -0.035689  0  -0.090612  -0.105285  0  3.970391  0
C  C137  1  0.43856511  0.82034540  0.71249037  1  -0.060334  0  -0.088435  -0.099064  0  3.967508  0
C  C138  1  0.60633898  0.95599840  0.70608745  1  1.565399  0  0.203787  0.569407  0  4.222265  0
C  C139  1  0.45886019  0.69938576  0.71633695  1  1.549709  0  0.213028  0.575651  0  4.216398  0
C  C140  1  0.89696103  0.01989380  0.52716263  1  0.476448  0  0.046962  0.096607  0  3.935245  0
C  C141  1  0.84930861  0.97618385  0.43796749  1  -0.093572  0  -0.079477  -0.15604  0  3.929079  0
C  C142  1  0.78852050  0.00920099  0.39673862  1  0.0409  0  0.00706  0.018054  0  3.962345  0
C  C143  1  0.78023608  0.08580817  0.44784213  1  -0.047643  0  -0.072134  -0.136642  0  3.926292  0
C  C144  1  0.83090667  0.12544395  0.53666559  1  0.464153  0  0.049396  0.096249  0  3.928132  0
C  C145  1  0.73066489  0.96746471  0.30099728  1  1.371223  0  0.240266  0.427448  0  4.138329  0
C  C146  1  0.68449670  0.77488666  0.12907312  1  0.595589  0  0.063065  0.001547  0  3.905539  0
C  C147  1  0.63932796  0.72711619  0.03574011  1  -0.006308  0  0.012992  0.121904  0  4.030077  0
C  C148  1  0.61159152  0.64498809  0.99080801  1  0.082622  0  -0.080813  -0.180445  0  3.944105  0
C  C149  1  0.56664074  0.60087784  0.90152582  1  0.463518  0  0.046965  0.096127  0  3.946033  0
C  C150  1  0.57794735  0.71244873  0.89851580  1  0.489883  0  0.045023  0.098813  0  3.949576  0
C  C151  1  0.62162149  0.76080313  0.98718953  1  -0.02994  0  -0.077224  -0.166817  0  3.937695  0
C  C152  1  0.21796392  0.44820622  0.71447162  1  -0.086136  0  -0.023804  -0.045682  0  3.997986  0
C  C153  1  0.12478961  0.44039193  0.71596608  1  -0.009789  0  -0.090642  -0.093977  0  3.97961  0
C  C154  1  0.08676668  0.37683488  0.71412564  1  -0.073197  0  -0.087109  -0.095474  0  3.967083  0
C  C155  1  0.14128218  0.31945607  0.70947025  1  -0.030784  0  -0.018959  -0.029145  0  3.970742  0
C  C156  1  0.23528598  0.32762492  0.70911867  1  -0.01679  0  -0.091075  -0.105906  0  3.970386  0
C  C157  1  0.27396385  0.39209629  0.71240361  1  -0.086728  0  -0.088704  -0.100049  0  3.969797  0
C  C158  1  0.09977824  0.25002357  0.70597021  1  1.570258  0  0.204482  0.570217  0  4.224519  0
C  C159  1  0.25751083  0.51691032  0.71622955  1  1.555084  0  0.214423  0.577696  0  4.212561  0
C  C160  1  0.13005075  0.51975365  0.52697795  1  0.489359  0  0.046936  0.096948  0  3.936942  0
C  C161  1  0.08843488  0.47605859  0.43777959  1  -0.040279  0  -0.078928  -0.156251  0  3.931588  0
C  C162  1  0.10786523  0.50912694  0.39654909  1  0.023378  0  0.00699  0.019352  0  3.962485  0
C  C163  1  0.16719545  0.58574994  0.44763699  1  -0.036816  0  -0.072466  -0.138239  0  3.926689  0
C  C164  1  0.20540542  0.62537593  0.53646417  1  0.450191  0  0.05007  0.098293  0  3.927071  0
C  C165  1  0.06991538  0.46741903  0.30080276  1  1.372335  0  0.2395  0.426592  0  4.141254  0
C  C166  1  0.94407796  0.27490463  0.12881128  1  0.584528  0  0.062961  0.001915  0  3.904594  0
C  C167  1  0.89592555  0.22713194  0.03548725  1  -0.004254  0  0.012334  0.121574  0  4.031112  0
C  C168  1  0.87892775  0.14501626  0.99061366  1  -0.032102  0  -0.080618  -0.180837  0  3.945381  0
C  C169  1  0.83468069  0.10087124  0.90134283  1  0.524632  0  0.046641  0.096042  0  3.946693  0
C  C170  1  0.81998190  0.21236073  0.89821512  1  0.371549  0  0.045368  0.099516  0  3.949932  0
C  C171  1  0.86490112  0.26074453  0.98687734  1  0.073631  0  -0.077631  -0.167655  0  3.940642  0
C  C172  1  0.99673696  0.94835705  0.71473309  1  -0.014242  0  -0.024089  -0.044799  0  3.996237  0
C  C173  1  0.09146890  0.94058602  0.71636129  1  -0.031444  0  -0.090088  -0.093148  0  3.977901  0
C  C174  1  0.12762734  0.87701568  0.71450522  1  -0.036228  0  -0.086288  -0.095128  0  3.967554  0
C  C175  1  0.06842043  0.81956735  0.70972637  1  -0.0565  0  -0.019233  -0.030584  0  3.973001  0
C  C176  1  0.97402343  0.82770226  0.70929294  1  -0.028951  0  -0.090846  -0.105538  0  3.970491  0
C  C177  1  0.93863031  0.89216727  0.71255061  1  -0.079399  0  -0.088469  -0.099498  0  3.968505  0
C  C178  1  0.10632429  0.75007121  0.70604998  1  1.560252  0  0.203427  0.569725  0  4.220055  0
C  C179  1  0.95888198  0.01697484  0.71632854  1  1.546298  0  0.212881  0.574176  0  4.215917  0
C  C180  1  0.39695822  0.50732011  0.52719696  1  0.510581  0  0.046332  0.096191  0  3.934315  0
C  C181  1  0.34928760  0.46182778  0.43799558  1  -0.004034  0  -0.078483  -0.155915  0  3.928191  0
C  C182  1  0.28848779  0.38757908  0.39675842  1  -0.093811  0  0.006389  0.018084  0  3.959508  0
C  C183  1  0.28024764  0.36209934  0.44789069  1  -0.021064  0  -0.071874  -0.13528  0  3.924986  0
C  C184  1  0.33094274  0.41127600  0.53671321  1  0.483343  0  0.050103  0.095764  0  3.931057  0
C  C185  1  0.23061631  0.33354557  0.30100527  1  1.401221  0  0.240021  0.427454  0  4.140249  0
C  C186  1  0.18447274  0.35423141  0.12910674  1  0.682166  0  0.063228  0.003231  0  3.905703  0
C  C187  1  0.13929829  0.30868682  0.03577279  1  -0.034118  0  0.012886  0.121322  0  4.030172  0
C  C188  1  0.11155787  0.34586686  0.99081897  1  -0.035835  0  -0.080309  -0.179402  0  3.943748  0
C  C189  1  0.06660908  0.30070474  0.90154752  1  0.460467  0  0.04681  0.094894  0  3.946195  0
C  C190  1  0.07791913  0.18614395  0.89854251  1  0.433304  0  0.044716  0.098388  0  3.950057  0
C  C191  1  0.12160067  0.22645948  0.98721245  1  0.013677  0  -0.077486  -0.166078  0  3.93673  0
C  C192  1  0.71795918  0.26628514  0.71438767  1  -0.058363  0  -0.023777  -0.045141  0  3.997859  0
C  C193  1  0.62477555  0.27560561  0.71589006  1  -0.05184  0  -0.09019  -0.093558  0  3.978209  0
C  C194  1  0.58678768  0.33733892  0.71405723  1  -0.015184  0  -0.086525  -0.094144  0  3.965002  0
C  C195  1  0.64135630  0.39006739  0.70943474  1  -0.041094  0  -0.019059  -0.031176  0  3.971854  0
C  C196  1  0.73535458  0.38153092  0.70907797  1  0.017091  0  -0.090686  -0.10507  0  3.969395  0
C  C197  1  0.77400599  0.32032105  0.71234092  1  -0.097854  0  -0.088978  -0.100364  0  3.96877  0
C  C198  1  0.59986596  0.45603250  0.70600969  1  1.557394  0  0.204508  0.571217  0  4.223729  0
C  C199  1  0.75748681  0.19934920  0.71617711  1  1.563191  0  0.213918  0.577096  0  4.212273  0
C  C200  1  0.86992873  0.48024825  0.47301680  1  0.489153  0  0.046886  0.097104  0  3.937096  0
C  C201  1  0.91154262  0.52394413  0.56221422  1  -0.040048  0  -0.078896  -0.156324  0  3.931765  0
C  C202  1  0.89211989  0.49087317  0.60344562  1  0.030572  0  0.006892  0.019064  0  3.962532  0
C  C203  1  0.83279964  0.41424843  0.55236008  1  -0.043443  0  -0.072386  -0.138015  0  3.926406  0
C  C204  1  0.79458675  0.37462212  0.46353258  1  0.450227  0  0.05011  0.09838  0  3.927056  0
C  C205  1  0.93007737  0.53258262  0.69919468  1  1.372357  0  0.239534  0.426756  0  4.141081  0
C  C206  1  0.05591556  0.72509739  0.87118419  1  0.584458  0  0.062945  0.00191  0  3.904504  0
C  C207  1  0.10406758  0.77287039  0.96450971  1  -0.008378  0  0.012354  0.121536  0  4.031136  0
C  C208  1  0.12106517  0.85498514  0.00938413  1  -0.014286  0  -0.080587  -0.180786  0  3.945233  0
C  C209  1  0.16531035  0.89912790  0.09865620  1  0.511011  0  0.046642  0.096073  0  3.946493  0
C  C210  1  0.18000921  0.78763661  0.10177973  1  0.372118  0  0.045387  0.099601  0  3.949883  0
C  C211  1  0.13509243  0.73925403  0.01311462  1  0.0745  0  -0.077638  -0.167812  0  3.94077  0
C  C212  1  0.00326475  0.05164865  0.28527436  1  -0.014176  0  -0.024029  -0.044648  0  3.996111  0
C  C213  1  0.90853312  0.05941802  0.28364801  1  -0.039999  0  -0.090194  -0.093349  0  3.978045  0
C  C214  1  0.87237345  0.12298691  0.28550084  1  -0.028472  0  -0.086247  -0.095071  0  3.967503  0
C  C215  1  0.93158166  0.18043391  0.29027776  1  -0.056417  0  -0.019204  -0.030543  0  3.972932  0
C  C216  1  0.02597600  0.17230028  0.29070837  1  -0.028882  0  -0.090887  -0.105611  0  3.970602  0
C  C217  1  0.06137068  0.10783773  0.28745612  1  -0.079411  0  -0.088362  -0.09933  0  3.968291  0
C  C218  1  0.89366683  0.24992465  0.29394337  1  1.560332  0  0.203412  0.569657  0  4.219732  0
C  C219  1  0.04111919  0.98302942  0.28367804  1  1.546094  0  0.212797  0.574016  0  4.215945  0
C  C220  1  0.60304395  0.49268348  0.47280481  1  0.510538  0  0.046339  0.096135  0  3.934291  0
C  C221  1  0.65071166  0.53817550  0.56200587  1  -0.003698  0  -0.078495  -0.155988  0  3.928213  0
C  C222  1  0.71150894  0.61242358  0.60324124  1  -0.093844  0  0.006399  0.018066  0  3.95959  0
C  C223  1  0.71975267  0.63790515  0.55211317  1  -0.021741  0  -0.071842  -0.135239  0  3.925212  0
C  C224  1  0.66905632  0.58872950  0.46328990  1  0.483621  0  0.050098  0.095764  0  3.931287  0
C  C225  1  0.76938205  0.66645626  0.69899413  1  1.401308  0  0.240158  0.427777  0  4.140114  0
C  C226  1  0.81552241  0.64576221  0.87089319  1  0.68199  0  0.063075  0.002982  0  3.905844  0
C  C227  1  0.86070056  0.69130750  0.96422549  1  -0.034457  0  0.012747  0.121199  0  4.030456  0
C  C228  1  0.88843003  0.65412740  0.00917925  1  -0.035686  0  -0.080195  -0.17936  0  3.943875  0
C  C229  1  0.93338490  0.69929224  0.09844933  1  0.460539  0  0.046769  0.094846  0  3.946368  0
C  C230  1  0.92208930  0.81385186  0.10145257  1  0.433842  0  0.044697  0.098407  0  3.950011  0
C  C231  1  0.87840496  0.77353560  0.01278483  1  0.013765  0  -0.077391  -0.166022  0  3.936572  0
C  C232  1  0.28204682  0.73371724  0.28561347  1  -0.058851  0  -0.023799  -0.045206  0  3.997823  0
C  C233  1  0.37522920  0.72439315  0.28410800  1  -0.051713  0  -0.090182  -0.093429  0  3.978158  0
C  C234  1  0.41321414  0.66265953  0.28594052  1  -0.015511  0  -0.086538  -0.094266  0  3.965002  0
C  C235  1  0.35864422  0.60993289  0.29056545  1  -0.041109  0  -0.019084  -0.031158  0  3.971835  0
C  C236  1  0.26464939  0.61847308  0.29092540  1  0.017147  0  -0.090658  -0.104973  0  3.969378  0
C  C237  1  0.22599928  0.67968212  0.28766101  1  -0.097416  0  -0.089036  -0.100527  0  3.968847  0
C  C238  1  0.40013509  0.54396558  0.29399003  1  1.55743  0  0.204483  0.571098  0  4.223807  0
C  C239  1  0.24252136  0.80065576  0.28382664  1  1.563527  0  0.214109  0.577421  0  4.211983  0
C  C240  1  0.36992652  0.99275433  0.47300198  1  0.471754  0  0.046833  0.097303  0  3.936079  0
C  C241  1  0.41152328  0.03824440  0.56220289  1  -0.116531  0  -0.07909  -0.157074  0  3.930646  0
C  C242  1  0.39209282  0.11253700  0.60346550  1  0.057407  0  0.006655  0.018661  0  3.960161  0
C  C243  1  0.33278681  0.13807191  0.55236941  1  -0.064322  0  -0.071698  -0.13613  0  3.926239  0
C  C244  1  0.29458234  0.08888989  0.46354022  1  0.458505  0  0.049898  0.096478  0  3.93034  0
C  C245  1  0.43004872  0.16659877  0.69922025  1  1.409832  0  0.240373  0.427942  0  4.140076  0
C  C246  1  0.55590965  0.14602016  0.87116150  1  0.555932  0  0.063364  0.002698  0  3.904389  0
C  C247  1  0.60405724  0.19156463  0.96448293  1  0.029943  0  0.0125  0.122122  0  4.030431  0
C  C248  1  0.62107635  0.15435914  0.00938921  1  0.097047  0  -0.080452  -0.179914  0  3.946119  0
C  C249  1  0.66530012  0.19947292  0.09865062  1  0.432252  0  0.046445  0.094562  0  3.946911  0
C  C250  1  0.67998340  0.31405481  0.10174940  1  0.511881  0  0.045081  0.098929  0  3.951491  0
C  C251  1  0.63507009  0.27378191  0.01308844  1  -0.056588  0  -0.077451  -0.168037  0  3.940077  0
C  C252  1  0.50331000  0.23364936  0.28534094  1  -0.07614  0  -0.024531  -0.046817  0  3.997868  0
C  C253  1  0.40856772  0.22426649  0.28372860  1  -0.026749  0  -0.089771  -0.092034  0  3.976798  0
C  C254  1  0.37242862  0.16254699  0.28559411  1  -0.033217  0  -0.086516  -0.094875  0  3.967288  0
C  C255  1  0.43164802  0.10986971  0.29034330  1  -0.039005  0  -0.019341  -0.031175  0  3.974687  0
C  C256  1  0.52603304  0.11843163  0.29074725  1  -0.035365  0  -0.090586  -0.105231  0  3.970198  0
C  C257  1  0.56142922  0.17965060  0.28750667  1  -0.060199  0  -0.088362  -0.09889  0  3.967519  0
C  C258  1  0.39365613  0.04399799  0.29390761  1  1.565325  0  0.203782  0.569406  0  4.222355  0
C  C259  1  0.54113479  0.30061274  0.28366497  1  1.549494  0  0.21287  0.575635  0  4.216541  0
C  C260  1  0.10303150  0.98010741  0.47283615  1  0.47666  0  0.046965  0.096564  0  3.935569  0
C  C261  1  0.15068723  0.02381737  0.56203011  1  -0.093074  0  -0.079491  -0.156068  0  3.929292  0
C  C262  1  0.21147812  0.99079732  0.60325544  1  0.04008  0  0.007152  0.018234  0  3.962156  0
C  C263  1  0.21977030  0.91419370  0.55214964  1  -0.047293  0  -0.072147  -0.136599  0  3.926241  0
C  C264  1  0.16909492  0.87455899  0.46332845  1  0.46422  0  0.049399  0.096174  0  3.928439  0
C  C265  1  0.26933918  0.03253354  0.69899790  1  1.371562  0  0.240134  0.427174  0  4.138363  0
C  C266  1  0.31550980  0.22511185  0.87092822  1  0.595557  0  0.063128  0.001743  0  3.90551  0
C  C267  1  0.36067778  0.27288095  0.96426220  1  -0.006289  0  0.012908  0.121638  0  4.03012  0
C  C268  1  0.38841717  0.35501003  0.00919294  1  0.082812  0  -0.080886  -0.180421  0  3.943958  0
C  C269  1  0.43336688  0.39912106  0.09847474  1  0.463409  0  0.046919  0.096007  0  3.946154  0
C  C270  1  0.42206003  0.28755172  0.10148809  1  0.489528  0  0.045064  0.098774  0  3.949589  0
C  C271  1  0.37838608  0.23919509  0.01281270  1  -0.030028  0  -0.077114  -0.16662  0  3.937772  0
C  C272  1  0.78204838  0.55179906  0.28554425  1  -0.086224  0  -0.023811  -0.045809  0  3.998073  0
C  C273  1  0.87522201  0.55961283  0.28404690  1  -0.0091  0  -0.090691  -0.093975  0  3.979662  0
C  C274  1  0.91324870  0.62317146  0.28589189  1  -0.073199  0  -0.087116  -0.095364  0  3.966846  0
C  C275  1  0.85873058  0.68055174  0.29054228  1  -0.030884  0  -0.018796  -0.029089  0  3.970589  0
C  C276  1  0.76472694  0.67237999  0.29089388  1  -0.016811  0  -0.09114  -0.106069  0  3.970525  0
C  C277  1  0.72604637  0.60790775  0.28760629  1  -0.08728  0  -0.088741  -0.10006  0  3.969957  0
C  C278  1  0.90023443  0.74997607  0.29403345  1  1.571166  0  0.204577  0.57049  0  4.224304  0
C  C279  1  0.74249565  0.48309017  0.28377379  1  1.555273  0  0.214425  0.577765  0  4.212262  0
N  N280  1  0.68805745  0.98320365  0.57598952  1  -1.227043  0  -0.313796  -0.227173  0  3.503348  0
N  N281  1  0.51679801  0.86339467  0.25441153  1  -0.878364  0  -0.282078  -0.230177  0  3.652245  0
N  N282  1  0.47534306  0.81793038  0.16781908  1  -0.642628  0  -0.19358  -0.09192  0  3.330589  0
N  N283  1  0.30513032  0.72169847  0.85522328  1  -1.244009  0  -0.31892  -0.235782  0  3.504062  0
N  N284  1  0.88787281  0.09288915  0.57616320  1  -1.212527  0  -0.31392  -0.226834  0  3.500933  0
N  N285  1  0.73733346  0.89105578  0.25465660  1  -0.794251  0  -0.281692  -0.228182  0  3.650616  0
N  N286  1  0.69215925  0.84990668  0.16806785  1  -0.721512  0  -0.194352  -0.093433  0  3.329816  0
N  N287  1  0.54998195  0.63365094  0.85546392  1  -1.260209  0  -0.319261  -0.23703  0  3.504601  0
N  N288  1  0.18803180  0.59278648  0.57596540  1  -1.234195  0  -0.313693  -0.227753  0  3.502656  0
N  N289  1  0.01679098  0.39104141  0.25442277  1  -0.801301  0  -0.28183  -0.22968  0  3.652912  0
N  N290  1  0.97533790  0.34992909  0.16782276  1  -0.725537  0  -0.193734  -0.092161  0  3.330993  0
N  N291  1  0.80511294  0.13357317  0.85521776  1  -1.258529  0  -0.318928  -0.237039  0  3.503944  0
N  N292  1  0.38789855  0.48332941  0.57620731  1  -1.234429  0  -0.313266  -0.225516  0  3.502937  0
N  N293  1  0.23730072  0.36358928  0.25465529  1  -0.880479  0  -0.282406  -0.231207  0  3.653916  0
N  N294  1  0.19212984  0.31817377  0.16807219  1  -0.640262  0  -0.193905  -0.092832  0  3.332544  0
N  N295  1  0.04993072  0.22186585  0.85546883  1  -1.269801  0  -0.319128  -0.236606  0  3.504022  0
N  N296  1  0.81195727  0.40721348  0.42403269  1  -1.234105  0  -0.313717  -0.227897  0  3.502916  0
N  N297  1  0.98320177  0.60895973  0.74557417  1  -0.801009  0  -0.281902  -0.229648  0  3.652724  0
N  N298  1  0.02465598  0.65007047  0.83217139  1  -0.725642  0  -0.193722  -0.092205  0  3.331005  0
N  N299  1  0.19487870  0.86642246  0.14477713  1  -1.258676  0  -0.318922  -0.237084  0  3.50396  0
N  N300  1  0.61210598  0.51667454  0.42379543  1  -1.234451  0  -0.313319  -0.225532  0  3.502926  0
N  N301  1  0.76269450  0.63640867  0.74534430  1  -0.880386  0  -0.282506  -0.231476  0  3.653934  0
N  N302  1  0.80786826  0.68182233  0.83192789  1  -0.639959  0  -0.193861  -0.092672  0  3.332359  0
N  N303  1  0.95007096  0.77813087  0.14452657  1  -1.269849  0  -0.319118  -0.236564  0  3.504108  0
N  N304  1  0.31194073  0.01680041  0.42401155  1  -1.227081  0  -0.313923  -0.227436  0  3.503377  0
N  N305  1  0.48320908  0.13660594  0.74558900  1  -0.878545  0  -0.282057  -0.22999  0  3.652176  0
N  N306  1  0.52466469  0.18206612  0.83218199  1  -0.642555  0  -0.193647  -0.092011  0  3.330699  0
N  N307  1  0.69486621  0.27829666  0.14477286  1  -1.244704  0  -0.318965  -0.235938  0  3.504193  0
N  N308  1  0.11212525  0.90711434  0.42383434  1  -1.21282  0  -0.313949  -0.226743  0  3.501157  0
N  N309  1  0.26266872  0.10894169  0.74534133  1  -0.794945  0  -0.281598  -0.227965  0  3.650442  0
N  N310  1  0.30784546  0.15009092  0.83193139  1  -0.721563  0  -0.194413  -0.093563  0  3.329648  0
N  N311  1  0.45002533  0.36634745  0.14453495  1  -1.260296  0  -0.319218  -0.236951  0  3.5047  0
O  O312  1  0.58732337  0.76752220  0.26758727  1  -1.124923  0  -0.283638  -0.460405  0  2.142265  0
O  O313  1  0.69777791  0.96538461  0.71700647  1  -1.172907  0  -0.322719  -0.558113  0  2.365312  0
O  O314  1  0.54938575  0.99858427  0.69316895  1  -1.213853  0  -0.328002  -0.580339  0  2.241929  0
O  O315  1  0.38211291  0.70032664  0.73032599  1  -1.206961  0  -0.320433  -0.568474  0  2.455876  0
O  O316  1  0.50848975  0.64597030  0.70528609  1  -1.176096  0  -0.315183  -0.549452  0  2.370423  0
O  O317  1  0.68013836  0.00013350  0.26776580  1  -1.118074  0  -0.28345  -0.460034  0  2.141377  0
O  O318  1  0.01939468  0.25162984  0.71710798  1  -1.171507  0  -0.32307  -0.558934  0  2.369087  0
O  O319  1  0.14377785  0.19448800  0.69292810  1  -1.218355  0  -0.328196  -0.581103  0  2.241679  0
O  O320  1  0.34835741  0.53005737  0.73052291  1  -1.212877  0  -0.321784  -0.570346  0  2.454217  0
O  O321  1  0.19682341  0.55921405  0.70499669  1  -1.170026  0  -0.315421  -0.550203  0  2.370941  0
O  O322  1  0.08726518  0.50009402  0.26759547  1  -1.115251  0  -0.282899  -0.459436  0  2.14275  0
O  O323  1  0.19776131  0.75157436  0.71695911  1  -1.173857  0  -0.322315  -0.557866  0  2.365869  0
O  O324  1  0.04930025  0.69457962  0.69308068  1  -1.212008  0  -0.328052  -0.580997  0  2.240125  0
O  O325  1  0.88205654  0.02993277  0.73021600  1  -1.206871  0  -0.320521  -0.568031  0  2.455275  0
O  O326  1  0.00849157  0.05936776  0.70528698  1  -1.178133  0  -0.315285  -0.549533  0  2.370371  0
O  O327  1  0.18008711  0.26765237  0.26782543  1  -1.121633  0  -0.283213  -0.459504  0  2.142164  0
O  O328  1  0.51946053  0.46550557  0.71711612  1  -1.169787  0  -0.323123  -0.559176  0  2.367883  0
O  O329  1  0.64384267  0.49859932  0.69303597  1  -1.220009  0  -0.328659  -0.58182  0  2.242539  0
O  O330  1  0.84831292  0.20040898  0.73044784  1  -1.211787  0  -0.321378  -0.569808  0  2.453672  0
O  O331  1  0.69675144  0.14587026  0.70498765  1  -1.175391  0  -0.315499  -0.550219  0  2.368543  0
O  O332  1  0.91273066  0.49990819  0.73240314  1  -1.11518  0  -0.282897  -0.459496  0  2.142789  0
O  O333  1  0.80223316  0.24841974  0.28303895  1  -1.17406  0  -0.322306  -0.557819  0  2.365853  0
O  O334  1  0.95069117  0.30541851  0.30690849  1  -1.211862  0  -0.328076  -0.58104  0  2.2398  0
O  O335  1  0.11795314  0.97007910  0.26979770  1  -1.206762  0  -0.32046  -0.567991  0  2.455221  0
O  O336  1  0.99150321  0.94062763  0.29470589  1  -1.178288  0  -0.31527  -0.549428  0  2.370368  0
O  O337  1  0.81991396  0.73234542  0.73218167  1  -1.121674  0  -0.283252  -0.459589  0  2.142352  0
O  O338  1  0.48054211  0.53449100  0.28288503  1  -1.169836  0  -0.323099  -0.559127  0  2.3679  0
O  O339  1  0.35615564  0.50140332  0.30696662  1  -1.219991  0  -0.328629  -0.581737  0  2.242573  0
O  O340  1  0.15169579  0.79959792  0.26955728  1  -1.211912  0  -0.321476  -0.56991  0  2.453747  0
O  O341  1  0.30325896  0.85413086  0.29501220  1  -1.175792  0  -0.315581  -0.550409  0  2.368332  0
O  O342  1  0.41268308  0.23248076  0.73241858  1  -1.124924  0  -0.283626  -0.460423  0  2.142243  0
O  O343  1  0.30221824  0.03461446  0.28299249  1  -1.172794  0  -0.322735  -0.558125  0  2.365268  0
O  O344  1  0.45060794  0.00141288  0.30682453  1  -1.213883  0  -0.327967  -0.580264  0  2.241965  0
O  O345  1  0.61788324  0.29967292  0.26967348  1  -1.206771  0  -0.32041  -0.568506  0  2.455672  0
O  O346  1  0.49151162  0.35402927  0.29471633  1  -1.176129  0  -0.31509  -0.54941  0  2.370686  0
O  O347  1  0.31986023  0.99986216  0.73222794  1  -1.118072  0  -0.283456  -0.460039  0  2.141313  0
O  O348  1  0.98061345  0.74836321  0.28289077  1  -1.17175  0  -0.323125  -0.559067  0  2.368944  0
O  O349  1  0.85623687  0.80551415  0.30707516  1  -1.218608  0  -0.328301  -0.581304  0  2.241688  0
O  O350  1  0.65164725  0.46994054  0.26947900  1  -1.212662  0  -0.321775  -0.570329  0  2.45413  0
O  O351  1  0.80318168  0.44078423  0.29500207  1  -1.170252  0  -0.31539  -0.550177  0  2.370638  0
