# generated using pymatgen
data_ZnH12C12(N2O3)3
_symmetry_space_group_name_H-M   'P 1'
_cell_length_a   7.35565792
_cell_length_b   11.66693949
_cell_length_c   14.93502727
_cell_angle_alpha   113.00997170
_cell_angle_beta   100.73633383
_cell_angle_gamma   89.98261315
_symmetry_Int_Tables_number   1
_chemical_formula_structural   ZnH12C12(N2O3)3
_chemical_formula_sum   'Zn2 H24 C24 N12 O18'
_cell_volume   1155.33516595
_cell_formula_units_Z   2
loop_
 _symmetry_equiv_pos_site_id
 _symmetry_equiv_pos_as_xyz
  1  'x, y, z'
loop_
 _atom_site_type_symbol
 _atom_site_label
 _atom_site_symmetry_multiplicity
 _atom_site_fract_x
 _atom_site_fract_y
 _atom_site_fract_z
 _atom_site_occupancy
 _atom_site_hle17_bader_spin_density
 _atom_site_hle17_ddec_charge
 _atom_site_hle17_ddec_spin_density
 _atom_site_hle17_ddec_sum_bond_order
 _atom_site_hle17_magmom
 _atom_site_hse06_10hf_bader_spin_density
 _atom_site_hse06_10hf_ddec_charge
 _atom_site_hse06_10hf_ddec_spin_density
 _atom_site_hse06_10hf_ddec_sum_bond_order
 _atom_site_hse06_10hf_magmom
 _atom_site_hse06_bader_spin_density
 _atom_site_hse06_ddec_charge
 _atom_site_hse06_ddec_spin_density
 _atom_site_hse06_ddec_sum_bond_order
 _atom_site_hse06_magmom
 _atom_site_pbe_bader_spin_density
 _atom_site_pbe_cm5_charge
 _atom_site_pbe_ddec_charge
 _atom_site_pbe_ddec_spin_density
 _atom_site_pbe_ddec_sum_bond_order
 _atom_site_pbe_magmom
Zn  Zn0  1  0.99999968  0.00000221  0.50000141  1  0  1.080859  0  1.775978  0  0  0.900129  0  2.226294  0  0  0.945953  0  2.172089  0  0  0.687593  0.867781  0  2.263736  0
Zn  Zn1  1  0.50000006  0.50000045  0.49999976  1  0  1.082142  0  1.776565  0  0  0.900679  0  2.227814  0  0  0.946472  0  2.1736  0  0  0.687511  0.868277  0  2.265237  0
H  H2  1  0.97026591  0.83560756  0.28957777  1  0  0.093382  0  0.929343  0  0  0.103417  0  0.984212  0  0  0.105725  0  0.982445  0  0  0.123847  0.101662  0  0.985639  0
H  H3  1  0.47073158  0.45353598  0.28963437  1  0  0.093267  0  0.928882  0  0  0.103489  0  0.983498  0  0  0.105909  0  0.981586  0  0  0.123637  0.10166  0  0.985014  0
H  H4  1  0.02973872  0.16439613  0.71042636  1  0  0.093354  0  0.929291  0  0  0.103392  0  0.984158  0  0  0.105709  0  0.982374  0  0  0.123837  0.101638  0  0.985586  0
H  H5  1  0.52926760  0.54646868  0.71036421  1  0  0.093327  0  0.928958  0  0  0.103545  0  0.983567  0  0  0.105961  0  0.981664  0  0  0.123638  0.101715  0  0.985086  0
H  H6  1  0.89147569  0.83684793  0.11992749  1  0  0.123848  0  0.923509  0  0  0.134074  0  0.97685  0  0  0.137708  0  0.975488  0  0  0.11918  0.131454  0  0.977995  0
H  H7  1  0.39206144  0.28259909  0.11997814  1  0  0.124035  0  0.924105  0  0  0.13451  0  0.977157  0  0  0.13808  0  0.975872  0  0  0.11929  0.131899  0  0.9783  0
H  H8  1  0.10852632  0.16314549  0.88007257  1  0  0.123883  0  0.923651  0  0  0.134192  0  0.976896  0  0  0.137827  0  0.975534  0  0  0.11921  0.13157  0  0.978046  0
H  H9  1  0.60794273  0.71740089  0.88002146  1  0  0.124001  0  0.924082  0  0  0.134468  0  0.977144  0  0  0.138039  0  0.975857  0  0  0.119245  0.131856  0  0.97829  0
H  H10  1  0.84367147  0.23525407  0.26146862  1  0  0.127975  0  0.948964  0  0  0.134815  0  1.01203  0  0  0.138562  0  1.010003  0  0  0.114194  0.132096  0  1.013639  0
H  H11  1  0.34443816  0.02564004  0.26137342  1  0  0.127462  0  0.949304  0  0  0.134757  0  1.011736  0  0  0.138499  0  1.009698  0  0  0.114257  0.132042  0  1.013349  0
H  H12  1  0.15632855  0.76474590  0.73853061  1  0  0.128083  0  0.948961  0  0  0.134909  0  1.012022  0  0  0.138639  0  1.010015  0  0  0.114245  0.132189  0  1.013632  0
H  H13  1  0.65555323  0.97435711  0.73862749  1  0  0.127472  0  0.949219  0  0  0.134784  0  1.011645  0  0  0.138519  0  1.00961  0  0  0.114273  0.132067  0  1.013259  0
H  H14  1  0.92677704  0.21672578  0.42400144  1  0  0.096767  0  0.939827  0  0  0.102555  0  1.00585  0  0  0.105144  0  1.003373  0  0  0.122419  0.10053  0  1.007918  0
H  H15  1  0.42728873  0.20680351  0.42395007  1  0  0.097398  0  0.939165  0  0  0.102352  0  1.005918  0  0  0.104951  0  1.00347  0  0  0.122445  0.100308  0  1.007976  0
H  H16  1  0.07322447  0.78327513  0.57599754  1  0  0.09676  0  0.939765  0  0  0.102541  0  1.005795  0  0  0.105123  0  1.003328  0  0  0.1224  0.100515  0  1.007862  0
H  H17  1  0.57270980  0.79319553  0.57604873  1  0  0.097378  0  0.939119  0  0  0.102303  0  1.005933  0  0  0.104902  0  1.003485  0  0  0.122441  0.100267  0  1.007984  0
H  H18  1  0.68956424  0.82860024  0.41631358  1  0  0.428429  0  0.871473  0  0  0.393128  0  0.94181  0  0  0.404621  0  0.92477  0  0  0.291488  0.384934  0  0.953962  0
H  H19  1  0.18965261  0.58730412  0.41623346  1  0  0.428265  0  0.871578  0  0  0.393028  0  0.942078  0  0  0.404559  0  0.924964  0  0  0.291493  0.384814  0  0.95427  0
H  H20  1  0.31043440  0.17139972  0.58368686  1  0  0.428454  0  0.871438  0  0  0.393143  0  0.941791  0  0  0.404669  0  0.924698  0  0  0.291496  0.384949  0  0.953942  0
H  H21  1  0.81034602  0.41269585  0.58376496  1  0  0.428257  0  0.871586  0  0  0.393018  0  0.942091  0  0  0.404519  0  0.924884  0  0  0.291506  0.384806  0  0.954281  0
H  H22  1  0.86965575  0.75212218  0.41814362  1  0  0.419529  0  0.886261  0  0  0.383004  0  0.959411  0  0  0.394804  0  0.941901  0  0  0.289052  0.374591  0  0.971789  0
H  H23  1  0.36963161  0.66566361  0.41802923  1  0  0.420389  0  0.884816  0  0  0.383819  0  0.958065  0  0  0.395598  0  0.940693  0  0  0.289311  0.375402  0  0.970465  0
H  H24  1  0.13034450  0.24787964  0.58185820  1  0  0.41953  0  0.886255  0  0  0.383006  0  0.9594  0  0  0.394789  0  0.942049  0  0  0.28905  0.374592  0  0.971779  0
H  H25  1  0.63036690  0.33433544  0.58196756  1  0  0.420389  0  0.884809  0  0  0.383809  0  0.95808  0  0  0.395558  0  0.940758  0  0  0.289317  0.375391  0  0.970479  0
C  C26  1  0.94262715  0.92181889  0.27938646  1  0  0.141014  0  3.699786  0  0  0.11166  0  3.949306  0  0  0.117514  0  3.968337  0  0  0.053966  0.10786  0  3.936411  0
C  C27  1  0.44311005  0.35713210  0.27943701  1  0  0.140831  0  3.69783  0  0  0.111511  0  3.947635  0  0  0.117303  0  3.966578  0  0  0.053658  0.107775  0  3.934797  0
C  C28  1  0.05737692  0.07818013  0.72061552  1  0  0.141161  0  3.699773  0  0  0.111805  0  3.949307  0  0  0.117659  0  3.968329  0  0  0.054002  0.108004  0  3.936414  0
C  C29  1  0.55688837  0.64286600  0.72056282  1  0  0.140744  0  3.69754  0  0  0.111427  0  3.947305  0  0  0.117213  0  3.966259  0  0  0.053633  0.107691  0  3.934468  0
C  C30  1  0.89673463  0.92285223  0.18540970  1  0  -0.128712  0  3.687809  0  0  -0.15433  0  3.94085  0  0  -0.159982  0  3.960524  0  0  -0.074871  -0.150676  0  3.92764  0
C  C31  1  0.39728737  0.26207351  0.18542524  1  0  -0.129927  0  3.68806  0  0  -0.155648  0  3.941173  0  0  -0.16127  0  3.960871  0  0  -0.075219  -0.152033  0  3.928004  0
C  C32  1  0.10326252  0.07714678  0.81459299  1  0  -0.128858  0  3.688098  0  0  -0.154557  0  3.941136  0  0  -0.160218  0  3.960812  0  0  -0.074914  -0.150902  0  3.927926  0
C  C33  1  0.60271563  0.73792836  0.81457149  1  0  -0.129882  0  3.688169  0  0  -0.15559  0  3.941273  0  0  -0.161205  0  3.960976  0  0  -0.075142  -0.151975  0  3.928103  0
C  C34  1  0.85672319  0.03624840  0.17691790  1  0  0.026041  0  3.814469  0  0  0.037905  0  4.055842  0  0  0.038697  0  4.078176  0  0  0.00731  0.037501  0  4.04066  0
C  C35  1  0.35730916  0.14014415  0.17685527  1  0  0.026142  0  3.811231  0  0  0.038978  0  4.054388  0  0  0.039699  0  4.076487  0  0  0.007531  0.038524  0  4.039293  0
C  C36  1  0.14327512  0.96374876  0.82308097  1  0  0.026106  0  3.81441  0  0  0.03798  0  4.055784  0  0  0.038788  0  4.078099  0  0  0.007323  0.037574  0  4.040599  0
C  C37  1  0.64269225  0.85985581  0.82314675  1  0  0.02608  0  3.811546  0  0  0.038895  0  4.05475  0  0  0.039597  0  4.076866  0  0  0.007447  0.03844  0  4.039654  0
C  C38  1  0.87094050  0.14473524  0.26381902  1  0  -0.123955  0  3.663283  0  0  -0.147454  0  3.911428  0  0  -0.154064  0  3.933275  0  0  -0.071846  -0.143093  0  3.89679  0
C  C39  1  0.37165299  0.11852550  0.26374058  1  0  -0.124608  0  3.663182  0  0  -0.147945  0  3.910672  0  0  -0.154556  0  3.932638  0  0  -0.07166  -0.143577  0  3.895954  0
C  C40  1  0.12905758  0.85526005  0.73617992  1  0  -0.124103  0  3.66327  0  0  -0.147578  0  3.911362  0  0  -0.154176  0  3.93321  0  0  -0.071945  -0.143217  0  3.896726  0
C  C41  1  0.62834443  0.88146418  0.73625791  1  0  -0.124687  0  3.663368  0  0  -0.148039  0  3.910882  0  0  -0.154635  0  3.932845  0  0  -0.071688  -0.143671  0  3.896166  0
C  C42  1  0.91792327  0.13466478  0.35504645  1  0  0.147834  0  3.64991  0  0  0.117418  0  3.901333  0  0  0.123912  0  3.919385  0  0  0.058667  0.113149  0  3.889196  0
C  C43  1  0.41850204  0.21985002  0.35498487  1  0  0.148051  0  3.647703  0  0  0.11853  0  3.899286  0  0  0.124988  0  3.917315  0  0  0.058639  0.114283  0  3.887166  0
C  C44  1  0.08207708  0.86533800  0.64495367  1  0  0.147857  0  3.649949  0  0  0.117459  0  3.901343  0  0  0.123945  0  3.919406  0  0  0.058711  0.113191  0  3.889205  0
C  C45  1  0.58150180  0.78014714  0.64501651  1  0  0.148098  0  3.647844  0  0  0.118569  0  3.899433  0  0  0.125028  0  3.917458  0  0  0.058634  0.114316  0  3.88731  0
C  C46  1  0.79811064  0.03839297  0.07920701  1  0  0.338749  0  3.708258  0  0  0.305183  0  3.992733  0  0  0.32021  0  4.001972  0  0  0.218926  0.295157  0  3.986307  0
C  C47  1  0.29840504  0.04049116  0.07905906  1  0  0.342436  0  3.700801  0  0  0.303697  0  3.992862  0  0  0.319176  0  4.001439  0  0  0.217972  0.293692  0  3.986424  0
C  C48  1  0.20189470  0.96160511  0.92079480  1  0  0.338744  0  3.708202  0  0  0.305162  0  3.992708  0  0  0.320167  0  4.001946  0  0  0.218946  0.295141  0  3.986272  0
C  C49  1  0.70159431  0.95950320  0.92093837  1  0  0.342556  0  3.70072  0  0  0.303811  0  3.992788  0  0  0.319314  0  4.001366  0  0  0.218039  0.29381  0  3.986347  0
N  N50  1  0.95082629  0.02514831  0.36294451  1  0  -0.314193  0  3.26179  0  0  -0.23571  0  3.522392  0  0  -0.25399  0  3.539621  0  0  -0.312472  -0.223232  0  3.510579  0
N  N51  1  0.45128926  0.33733133  0.36294657  1  0  -0.313615  0  3.257922  0  0  -0.235969  0  3.519372  0  0  -0.254229  0  3.536637  0  0  -0.311883  -0.223527  0  3.507534  0
N  N52  1  0.04917660  0.97485259  0.63705593  1  0  -0.314251  0  3.261971  0  0  -0.235778  0  3.522574  0  0  -0.254052  0  3.539801  0  0  -0.312498  -0.223306  0  3.510765  0
N  N53  1  0.54870936  0.66266867  0.63704851  1  0  -0.31357  0  3.257666  0  0  -0.235869  0  3.51904  0  0  -0.254131  0  3.536311  0  0  -0.311841  -0.223429  0  3.507206  0
N  N54  1  0.78103979  0.13239580  0.05148479  1  0  -0.25552  0  2.85269  0  0  -0.245742  0  3.134517  0  0  -0.252157  0  3.14283  0  0  -0.223933  -0.241412  0  3.128959  0
N  N55  1  0.28078687  0.91870846  0.05104934  1  0  -0.257166  0  2.851156  0  0  -0.245779  0  3.134808  0  0  -0.252335  0  3.142954  0  0  -0.223767  -0.241439  0  3.12924  0
N  N56  1  0.21896588  0.86760510  0.94851590  1  0  -0.255496  0  2.852684  0  0  -0.245712  0  3.134512  0  0  -0.252128  0  3.142829  0  0  -0.223919  -0.241384  0  3.128952  0
N  N57  1  0.71921486  0.08129431  0.94895157  1  0  -0.257178  0  2.850967  0  0  -0.245795  0  3.134624  0  0  -0.25235  0  3.142764  0  0  -0.223778  -0.241456  0  3.129053  0
N  N58  1  0.65080830  0.12131345  0.58140204  1  0  0.704945  0  4.136746  0  0  0.743445  0  4.420369  0  0  0.772645  0  4.425699  0  0  0.108435  0.723865  0  4.416201  0
N  N59  1  0.15064058  0.46043120  0.58143950  1  0  0.708639  0  4.133289  0  0  0.741567  0  4.420253  0  0  0.770681  0  4.425648  0  0  0.107312  0.721979  0  4.416092  0
N  N60  1  0.34919321  0.87868747  0.41859627  1  0  0.705097  0  4.136617  0  0  0.743489  0  4.420364  0  0  0.772696  0  4.425684  0  0  0.108478  0.723913  0  4.416192  0
N  N61  1  0.84935723  0.53957344  0.41856163  1  0  0.708634  0  4.133272  0  0  0.741629  0  4.420129  0  0  0.770754  0  4.425526  0  0  0.107348  0.72204  0  4.415969  0
O  O62  1  0.74969634  0.92580429  0.99999067  1  0  -0.257878  0  2.305485  0  0  -0.185796  0  2.523101  0  0  -0.203282  0  2.525078  0  0  -0.095978  -0.174136  0  2.521511  0
O  O63  1  0.25030783  0.07419568  0.00000960  1  0  -0.257859  0  2.30534  0  0  -0.185797  0  2.52298  0  0  -0.20324  0  2.524932  0  0  -0.095999  -0.17413  0  2.521384  0
O  O64  1  0.82611456  0.83459589  0.42267198  1  0  -0.852222  0  1.962011  0  0  -0.794498  0  2.18424  0  0  -0.815387  0  2.146622  0  0  -0.585481  -0.779417  0  2.210577  0
O  O65  1  0.32619574  0.58765558  0.42248759  1  0  -0.852801  0  1.962618  0  0  -0.795284  0  2.184505  0  0  -0.816327  0  2.146882  0  0  -0.585569  -0.780154  0  2.210754  0
O  O66  1  0.17388592  0.16540778  0.57733378  1  0  -0.852248  0  1.96204  0  0  -0.794516  0  2.184284  0  0  -0.815528  0  2.146481  0  0  -0.585469  -0.779431  0  2.210616  0
O  O67  1  0.67380140  0.41234346  0.57751041  1  0  -0.85278  0  1.962588  0  0  -0.795253  0  2.184473  0  0  -0.81614  0  2.147075  0  0  -0.585597  -0.780122  0  2.210726  0
O  O68  1  0.78700889  0.13251595  0.54253500  1  0  -0.486403  0  1.855624  0  0  -0.461943  0  2.095914  0  0  -0.481528  0  2.086854  0  0  -0.186865  -0.44833  0  2.101871  0
O  O69  1  0.28681074  0.41034843  0.54248406  1  0  -0.488758  0  1.856348  0  0  -0.460949  0  2.09563  0  0  -0.480516  0  2.086668  0  0  -0.186555  -0.447319  0  2.101601  0
O  O70  1  0.21299124  0.86748497  0.45746252  1  0  -0.486495  0  1.855635  0  0  -0.461911  0  2.095858  0  0  -0.481515  0  2.086818  0  0  -0.186867  -0.448312  0  2.101822  0
O  O71  1  0.71318972  0.58965527  0.45751769  1  0  -0.488739  0  1.856374  0  0  -0.461  0  2.09568  0  0  -0.480601  0  2.086747  0  0  -0.186601  -0.44737  0  2.101652  0
O  O72  1  0.62290485  0.02924547  0.60068274  1  0  -0.41759  0  1.775225  0  0  -0.424457  0  1.988616  0  0  -0.436676  0  1.983154  0  0  -0.165313  -0.415942  0  1.992301  0
O  O73  1  0.12277610  0.57184626  0.60094138  1  0  -0.419225  0  1.775848  0  0  -0.423675  0  1.989682  0  0  -0.435885  0  1.984317  0  0  -0.165004  -0.415147  0  1.993316  0
O  O74  1  0.37709783  0.97075356  0.39931710  1  0  -0.417677  0  1.775264  0  0  -0.424516  0  1.988688  0  0  -0.436736  0  1.983223  0  0  -0.165338  -0.416001  0  1.992371  0
O  O75  1  0.87722137  0.42815558  0.39905819  1  0  -0.419246  0  1.775838  0  0  -0.423677  0  1.989601  0  0  -0.435885  0  1.984234  0  0  -0.164992  -0.415154  0  1.993249  0
O  O76  1  0.54323573  0.21071941  0.60033297  1  0  -0.48165  0  1.821658  0  0  -0.459252  0  2.021509  0  0  -0.476734  0  2.010834  0  0  -0.182346  -0.447125  0  2.028916  0
O  O77  1  0.04306168  0.38984267  0.60022185  1  0  -0.482716  0  1.819118  0  0  -0.45884  0  2.019807  0  0  -0.476293  0  2.009106  0  0  -0.181807  -0.446669  0  2.027198  0
O  O78  1  0.45676428  0.78928056  0.39966558  1  0  -0.48165  0  1.821567  0  0  -0.459252  0  2.021462  0  0  -0.476736  0  2.010785  0  0  -0.182364  -0.447123  0  2.028866  0
O  O79  1  0.95693601  0.61016103  0.39977832  1  0  -0.482735  0  1.819113  0  0  -0.458876  0  2.019768  0  0  -0.476339  0  2.00906  0  0  -0.181826  -0.4467  0  2.027155  0
