# generated using pymatgen
data_MnH12C16N2O5
_symmetry_space_group_name_H-M   'P 1'
_cell_length_a   9.55108963
_cell_length_b   10.36353162
_cell_length_c   17.69476222
_cell_angle_alpha   89.99976581
_cell_angle_beta   89.99723903
_cell_angle_gamma   100.26060868
_symmetry_Int_Tables_number   1
_chemical_formula_structural   MnH12C16N2O5
_chemical_formula_sum   'Mn4 H48 C64 N8 O20'
_cell_volume   1723.47083923
_cell_formula_units_Z   4
loop_
 _symmetry_equiv_pos_site_id
 _symmetry_equiv_pos_as_xyz
  1  'x, y, z'
loop_
 _atom_site_type_symbol
 _atom_site_label
 _atom_site_symmetry_multiplicity
 _atom_site_fract_x
 _atom_site_fract_y
 _atom_site_fract_z
 _atom_site_occupancy
 _atom_site_pbe_bader_charge
 _atom_site_pbe_bader_spin_density
 _atom_site_pbe_cm5_charge
 _atom_site_pbe_ddec_charge
 _atom_site_pbe_ddec_spin_density
 _atom_site_pbe_ddec_sum_bond_order
 _atom_site_pbe_magmom
Mn  Mn0  1  0.29823167  0.79968072  0.86167378  1  1.483055  4.515654  0.597562  0.846619  4.650292  2.457657  4.431
Mn  Mn1  1  0.79824779  0.79969773  0.63833168  1  1.482971  -4.515656  0.597578  0.846613  -4.65044  2.457554  -4.431
Mn  Mn2  1  0.70174161  0.20030103  0.13832983  1  1.482997  4.51562  0.597614  0.846682  4.650249  2.457734  4.431
Mn  Mn3  1  0.20173447  0.20032234  0.36168267  1  1.483116  -4.515648  0.59761  0.846705  -4.650129  2.457436  -4.431
H  H4  1  0.50741750  0.07644719  0.86441236  1  0.138751  0.00109  0.125014  0.098847  0.0002  0.981016  0.001
H  H5  1  0.00741145  0.07645221  0.63557997  1  0.139099  -0.00109  0.125006  0.098833  -0.000201  0.981108  -0.001
H  H6  1  0.49258663  0.92353760  0.13559125  1  0.138883  0.00109  0.124988  0.098809  0.0002  0.981148  0.001
H  H7  1  0.99260305  0.92353880  0.36441855  1  0.139256  -0.001089  0.124962  0.098809  -0.0002  0.98123  -0.001
H  H8  1  0.54645256  0.28190457  0.94467432  1  0.12074  0.000701  0.11671  0.126025  0.000274  0.971761  0.0
H  H9  1  0.04641759  0.28190613  0.55531251  1  0.12081  -0.000701  0.116791  0.126252  -0.000274  0.971827  0.0
H  H10  1  0.45354554  0.71808878  0.05531856  1  0.120672  0.000701  0.116762  0.126135  0.000274  0.971777  0.0
H  H11  1  0.95358173  0.71807459  0.44467867  1  0.120648  -0.000701  0.116751  0.126182  -0.000274  0.971804  0.0
H  H12  1  0.40172579  0.28866393  0.05992285  1  0.105727  0.000236  0.112135  0.113733  6.8e-05  1.006013  0.0
H  H13  1  0.90167285  0.28866031  0.44007460  1  0.104848  -0.000236  0.112166  0.113699  -6.8e-05  1.006102  0.0
H  H14  1  0.59828734  0.71134554  0.94007567  1  0.104686  0.000237  0.112167  0.11372  6.7e-05  1.006072  0.0
H  H15  1  0.09832059  0.71132995  0.55992223  1  0.10494  -0.000236  0.112122  0.113641  -6.7e-05  1.006118  0.0
H  H16  1  0.19690887  0.17411210  0.14353064  1  0.072817  0.000313  0.106476  0.110285  0.000305  0.997563  0.0
H  H17  1  0.69687472  0.17409995  0.35647302  1  0.07275  -0.000313  0.106516  0.110303  -0.000306  0.997458  0.0
H  H18  1  0.80310818  0.82589556  0.85647410  1  0.072925  0.000313  0.106531  0.110379  0.000305  0.997471  0.0
H  H19  1  0.30312579  0.82588861  0.64352664  1  0.072627  -0.000313  0.106523  0.110368  -0.000305  0.997364  0.0
H  H20  1  0.00367467  0.98664281  0.16557534  1  0.119913  0.00025  0.110615  0.126979  2.7e-05  1.015243  0.0
H  H21  1  0.50365931  0.98661029  0.33442783  1  0.120057  -0.00025  0.110557  0.126903  -2.7e-05  1.015304  0.0
H  H22  1  0.99634042  0.01336576  0.83443110  1  0.119887  0.000249  0.110662  0.127071  2.6e-05  1.015234  0.0
H  H23  1  0.49632781  0.01337974  0.66556505  1  0.120075  -0.00025  0.110606  0.126958  -2.7e-05  1.015272  0.0
H  H24  1  0.86136385  0.76839335  0.11962147  1  0.139708  0.000178  0.116172  0.128013  9.4e-05  0.984463  0.0
H  H25  1  0.36137505  0.76836039  0.38037973  1  0.139604  -0.000178  0.11622  0.128106  -9.4e-05  0.984391  0.0
H  H26  1  0.13864613  0.23160919  0.88037875  1  0.139671  0.000177  0.116165  0.128026  9.4e-05  0.984399  0.0
H  H27  1  0.63862440  0.23164177  0.61961598  1  0.139767  -0.000178  0.116232  0.128211  -9.4e-05  0.984303  0.0
H  H28  1  0.83630251  0.58716155  0.02578805  1  0.099436  0.00088  0.110739  0.122349  0.000323  1.008081  0.0
H  H29  1  0.33632091  0.58712128  0.47421427  1  0.098854  -0.00088  0.110856  0.122372  -0.000323  1.008188  0.0
H  H30  1  0.16370732  0.41284683  0.97421556  1  0.099358  0.00088  0.110782  0.122396  0.000323  1.008074  0.0
H  H31  1  0.66369103  0.41288035  0.52577973  1  0.098889  -0.00088  0.11084  0.122417  -0.000323  1.007948  0.0
H  H32  1  0.02098019  0.59287815  0.92420803  1  0.082538  0.001909  0.113209  0.073384  0.001088  1.009413  0.001
H  H33  1  0.52098894  0.59286486  0.57579559  1  0.082303  -0.001907  0.113273  0.073546  -0.001087  1.009531  -0.001
H  H34  1  0.97903146  0.40710788  0.07579728  1  0.082215  0.001909  0.113208  0.073469  0.001087  1.00952  0.001
H  H35  1  0.47899575  0.40714360  0.42420068  1  0.08243  -0.001908  0.113295  0.073637  -0.001087  1.009495  -0.001
H  H36  1  0.97060788  0.62125622  0.76529549  1  0.056143  0.000557  0.109986  0.096294  0.000335  0.985584  0.0
H  H37  1  0.47061712  0.62126192  0.73469747  1  0.055982  -0.000557  0.109998  0.096363  -0.000336  0.98561  0.0
H  H38  1  0.02939653  0.37874417  0.23469286  1  0.055765  0.000557  0.109955  0.096274  0.000336  0.985584  0.0
H  H39  1  0.52939150  0.37874544  0.26530219  1  0.055915  -0.000557  0.109939  0.096275  -0.000336  0.985647  0.0
H  H40  1  0.07021865  0.63913163  0.67997234  1  0.078811  0.000779  0.111761  0.106248  0.00064  1.003708  0.0
H  H41  1  0.57020385  0.63912181  0.82002366  1  0.078874  -0.000779  0.111801  0.106282  -0.00064  1.003778  0.0
H  H42  1  0.92979116  0.36089039  0.32002449  1  0.078791  0.00078  0.111747  0.106148  0.000641  1.003882  0.0
H  H43  1  0.42978884  0.36086355  0.17997317  1  0.078902  -0.000778  0.111687  0.106155  -0.00064  1.003855  0.0
H  H44  1  0.22034874  0.46052289  0.74330462  1  0.063017  0.001758  0.1062  0.096888  0.000995  0.965924  0.001
H  H45  1  0.72037414  0.46053320  0.75668851  1  0.063037  -0.001757  0.106211  0.096938  -0.000995  0.965848  -0.001
H  H46  1  0.77964197  0.53948383  0.25668882  1  0.062885  0.001758  0.106182  0.096879  0.000996  0.965867  0.001
H  H47  1  0.27965495  0.53947099  0.24329815  1  0.06295  -0.001757  0.106217  0.096831  -0.000995  0.965966  -0.001
H  H48  1  0.09278525  0.46068681  0.81679017  1  0.061072  0.000716  0.103573  0.085454  0.000316  0.993855  0.0
H  H49  1  0.59279087  0.46069581  0.68321362  1  0.061186  -0.000716  0.103628  0.085581  -0.000316  0.993668  0.0
H  H50  1  0.90720787  0.53932195  0.18320270  1  0.06138  0.000716  0.103589  0.085489  0.000317  0.993805  0.0
H  H51  1  0.40720480  0.53931597  0.31678038  1  0.061037  -0.000716  0.103646  0.085502  -0.000316  0.993864  0.0
C  C52  1  0.44398864  0.08492393  0.91488348  1  0.49315  0.015058  0.067536  0.114471  0.011666  3.900698  0.01
C  C53  1  0.94397212  0.08492907  0.58510876  1  0.492524  -0.015061  0.067562  0.114639  -0.011669  3.90069  -0.01
C  C54  1  0.55601639  0.91505991  0.08511731  1  0.492548  0.015078  0.067479  0.114388  0.011682  3.900787  0.01
C  C55  1  0.05602991  0.91504883  0.41488920  1  0.49216  -0.015064  0.067569  0.114453  -0.011671  3.901013  -0.01
C  C56  1  0.46626983  0.19797118  0.96025805  1  -0.009843  0.000604  -0.067963  -0.092084  0.000585  3.947437  -0.001
C  C57  1  0.96623212  0.19796859  0.53973501  1  -0.008289  -0.0006  -0.067966  -0.092561  -0.000585  3.947898  0.001
C  C58  1  0.53373881  0.80201572  0.03973595  1  -0.009248  0.000597  -0.067995  -0.092295  0.00058  3.947806  -0.001
C  C59  1  0.03376992  0.80200248  0.46026296  1  -0.008654  -0.000599  -0.068002  -0.09241  -0.000582  3.947889  0.001
C  C60  1  0.38368550  0.20192306  0.02398828  1  -0.038805  0.013229  -0.054536  -0.067703  0.010784  3.909204  0.007
C  C61  1  0.88364531  0.20192118  0.47600422  1  -0.066189  -0.013272  -0.054601  -0.067481  -0.010792  3.908768  -0.007
C  C62  1  0.61633020  0.79807578  0.97600969  1  -0.039574  0.013242  -0.05447  -0.067477  0.010793  3.909398  0.007
C  C63  1  0.11635520  0.79806738  0.52399204  1  -0.066072  -0.013267  -0.054468  -0.067347  -0.010787  3.908793  -0.007
C  C64  1  0.27638900  0.09376722  0.04168545  1  0.008439  0.000313  -0.000141  0.03619  -0.000184  4.025518  0.0
C  C65  1  0.77634309  0.09375864  0.45831804  1  0.035946  -0.00028  -0.000254  0.036191  0.000185  4.024953  0.0
C  C66  1  0.72363137  0.90622789  0.95832043  1  0.010058  0.000308  -0.00026  0.036275  -0.000187  4.025413  0.0
C  C67  1  0.22365922  0.90623486  0.54168105  1  0.036182  -0.000278  -0.000221  0.036122  0.000185  4.024973  0.0
C  C68  1  0.26013378  0.98464691  0.99201599  1  0.477424  0.008704  0.118557  0.110321  0.006793  3.988091  0.006
C  C69  1  0.76010385  0.98463543  0.50798658  1  0.477716  -0.008705  0.118435  0.109961  -0.006796  3.988235  -0.006
C  C70  1  0.73988553  0.01534817  0.00799949  1  0.477517  0.008713  0.118359  0.109904  0.006803  3.988202  0.006
C  C71  1  0.23987979  0.01535935  0.49200855  1  0.477211  -0.008702  0.118444  0.109962  -0.006794  3.988101  -0.006
C  C72  1  0.18282288  0.09037308  0.10522638  1  -0.049965  8.3e-05  -0.080626  -0.106706  -0.000161  3.964878  0.0
C  C73  1  0.68279465  0.09034680  0.39477391  1  -0.049768  -8.5e-05  -0.080625  -0.106711  0.00016  3.964935  0.0
C  C74  1  0.81718168  0.90963511  0.89477837  1  -0.049723  8.7e-05  -0.080605  -0.106783  -0.000158  3.964869  0.0
C  C75  1  0.31719652  0.90964923  0.60523027  1  -0.049678  -8.4e-05  -0.080665  -0.106798  0.00016  3.964868  0.0
C  C76  1  0.07596567  0.98608256  0.11788345  1  -0.005923  0.000305  -0.078663  -0.108835  3.9e-05  3.93806  0.0
C  C77  1  0.57593592  0.98605937  0.38212744  1  -0.006538  -0.000305  -0.078568  -0.108761  -3.9e-05  3.938283  0.0
C  C78  1  0.92405680  0.01391263  0.88212582  1  -0.005969  0.000301  -0.078683  -0.10897  3.6e-05  3.937825  0.0
C  C79  1  0.42405796  0.01393382  0.61787108  1  -0.006536  -0.000304  -0.078632  -0.108763  -3.9e-05  3.938322  0.0
C  C80  1  0.05430377  0.87618771  0.06751416  1  0.011387  0.000429  -0.000594  0.043402  7.3e-05  4.002227  0.0
C  C81  1  0.55429733  0.87614786  0.43249532  1  0.011967  -0.000429  -0.000685  0.043206  -7.4e-05  4.002292  0.0
C  C82  1  0.94570334  0.12382350  0.93249340  1  0.011618  0.000431  -0.000589  0.043501  7.5e-05  4.00151  0.0
C  C83  1  0.44568437  0.12384100  0.56750943  1  0.011894  -0.000429  -0.000524  0.0433  -7.4e-05  4.002134  0.0
C  C84  1  0.14817721  0.87411560  0.00530075  1  0.462747  0.005945  0.122472  0.124774  0.004632  3.97473  0.004
C  C85  1  0.64817066  0.87409801  0.49470460  1  0.461501  -0.005949  0.122434  0.124906  -0.004631  3.974444  -0.004
C  C86  1  0.85182659  0.12588769  0.99471078  1  0.462307  0.005942  0.122449  0.124732  0.00463  3.974385  0.004
C  C87  1  0.35181585  0.12589493  0.50529619  1  0.462442  -0.00595  0.122361  0.124876  -0.004634  3.97455  -0.004
C  C88  1  0.94006463  0.76974091  0.07473485  1  -0.070124  0.008384  -0.058698  -0.066639  0.006404  3.903991  0.005
C  C89  1  0.44006305  0.76971253  0.42527277  1  -0.069707  -0.008379  -0.058572  -0.066354  -0.006401  3.903853  -0.005
C  C90  1  0.05994324  0.23026837  0.92527329  1  -0.069671  0.008374  -0.058636  -0.066632  0.006396  3.903766  0.005
C  C91  1  0.55992813  0.23027667  0.57472349  1  -0.069531  -0.008384  -0.058797  -0.066738  -0.006405  3.903756  -0.005
C  C92  1  0.92585076  0.66836826  0.02273729  1  -0.017191  0.000333  -0.088666  -0.14576  4.8e-05  4.002293  0.0
C  C93  1  0.42586255  0.66833453  0.47727266  1  -0.017528  -0.000336  -0.088888  -0.146021  -5e-05  4.002663  0.0
C  C94  1  0.07415801  0.33164008  0.97727480  1  -0.017963  0.000339  -0.088797  -0.145897  5.2e-05  4.002384  0.0
C  C95  1  0.57413149  0.33165964  0.52272417  1  -0.01731  -0.000334  -0.088782  -0.145955  -4.9e-05  4.0021  0.0
C  C96  1  0.02726682  0.67283358  0.96493854  1  0.486745  0.010093  0.053468  0.100227  0.007897  3.973098  0.006
C  C97  1  0.52726794  0.67280809  0.53506810  1  0.487073  -0.010086  0.053514  0.100129  -0.007891  3.973366  -0.006
C  C98  1  0.97274271  0.32716602  0.03507129  1  0.487346  0.010081  0.053563  0.100232  0.007886  3.973433  0.006
C  C99  1  0.47270789  0.32718349  0.46492873  1  0.48665  -0.010097  0.053398  0.099961  -0.007899  3.973099  -0.006
C  C100  1  0.07224970  0.82039261  0.74274037  1  1.620309  -0.004084  0.218326  0.59638  -0.003668  4.184573  -0.004
C  C101  1  0.57223910  0.82038701  0.75725736  1  1.620286  0.004077  0.218445  0.596788  0.003665  4.184159  0.004
C  C102  1  0.92775502  0.17960292  0.25726042  1  1.620011  -0.004085  0.218315  0.596242  -0.00367  4.184568  -0.004
C  C103  1  0.42775149  0.17959145  0.24275529  1  1.620905  0.004084  0.218353  0.596668  0.003667  4.184411  0.004
C  C104  1  0.07003278  0.67267350  0.73892591  1  0.413033  0.003087  -0.070086  -0.148119  0.002791  3.911546  0.002
C  C105  1  0.57002965  0.67266420  0.76107171  1  0.413457  -0.003087  -0.070169  -0.148353  -0.002791  3.911898  -0.002
C  C106  1  0.92996770  0.32734917  0.26106923  1  0.413832  0.003086  -0.070115  -0.148007  0.00279  3.91128  0.002
C  C107  1  0.42996543  0.32733684  0.23893360  1  0.41343  -0.003085  -0.070099  -0.148266  -0.002789  3.911474  -0.002
C  C108  1  0.19630387  0.51198490  0.79486193  1  0.373221  0.003796  -0.071034  -0.132181  0.002876  3.908711  0.002
C  C109  1  0.69631919  0.51199482  0.70513225  1  0.373146  -0.003797  -0.071258  -0.132562  -0.002877  3.908484  -0.002
C  C110  1  0.80368896  0.48800825  0.20513321  1  0.373128  0.003797  -0.07122  -0.132464  0.002876  3.90841  0.002
C  C111  1  0.30368685  0.48802999  0.29486006  1  0.373428  -0.003796  -0.071045  -0.131994  -0.002876  3.908876  -0.002
C  C112  1  0.31185351  0.50835527  0.85500478  1  1.607076  0.005251  0.184832  0.56252  0.005492  4.287946  0.005
C  C113  1  0.81185652  0.50837268  0.64498188  1  1.607722  -0.00525  0.184798  0.562516  -0.005494  4.288094  -0.005
C  C114  1  0.68813691  0.49164267  0.14498188  1  1.606805  0.005255  0.18498  0.56281  0.005497  4.287802  0.005
C  C115  1  0.18814847  0.49165892  0.35499630  1  1.606885  -0.005244  0.184724  0.56238  -0.005486  4.288519  -0.005
N  N116  1  0.34454144  0.98073188  0.93049669  1  -1.248531  0.054131  -0.31477  -0.270845  0.035485  3.515267  0.014
N  N117  1  0.84452879  0.98073256  0.56949465  1  -1.249268  -0.054146  -0.314679  -0.270747  -0.035481  3.515155  -0.014
N  N118  1  0.65545665  0.01926829  0.06951257  1  -1.248905  0.054143  -0.314627  -0.270589  0.035479  3.515131  0.014
N  N119  1  0.15545486  0.01926222  0.43049596  1  -1.248796  -0.054139  -0.314685  -0.270591  -0.035477  3.514921  -0.014
N  N120  1  0.13494942  0.77251055  0.95593886  1  -1.259597  0.051397  -0.311648  -0.273856  0.035678  3.51674  0.019
N  N121  1  0.63494713  0.77249549  0.54407544  1  -1.258283  -0.051375  -0.311699  -0.273875  -0.03568  3.516298  -0.019
N  N122  1  0.86506613  0.22748732  0.04407944  1  -1.259026  0.051366  -0.311669  -0.273821  0.035677  3.516698  0.019
N  N123  1  0.36502644  0.22749503  0.45592873  1  -1.259062  -0.051373  -0.311547  -0.27368  -0.035673  3.51629  -0.019
O  O124  1  0.16036569  0.88728891  0.78731560  1  -1.184146  0.050281  -0.302026  -0.526771  0.034944  2.28237  0.023
O  O125  1  0.66037112  0.88730029  0.71268983  1  -1.183983  -0.050292  -0.301998  -0.526869  -0.034949  2.282224  -0.023
O  O126  1  0.83963813  0.11270756  0.21268858  1  -1.184099  0.050275  -0.301932  -0.526663  0.034941  2.282463  0.023
O  O127  1  0.33960694  0.11271281  0.28732169  1  -1.184383  -0.050277  -0.30187  -0.526718  -0.034937  2.282626  -0.023
O  O128  1  0.35210136  0.61542042  0.89249204  1  -1.198662  0.066867  -0.336343  -0.586406  0.048017  2.307847  0.033
O  O129  1  0.85211629  0.61544575  0.60750628  1  -1.199078  -0.066858  -0.33611  -0.58605  -0.048015  2.308056  -0.033
O  O130  1  0.64790112  0.38456041  0.10750761  1  -1.198935  0.066864  -0.336285  -0.586351  0.048021  2.308036  0.033
O  O131  1  0.14787211  0.38460767  0.39248490  1  -1.198587  -0.066859  -0.336222  -0.586311  -0.048004  2.307987  -0.033
O  O132  1  0.19059551  0.64626681  0.77928094  1  -1.102904  0.045524  -0.217375  -0.189044  0.032995  2.743764  0.024
O  O133  1  0.69060110  0.64627707  0.72072094  1  -1.102803  -0.045529  -0.217292  -0.188892  -0.033  2.743755  -0.024
O  O134  1  0.80939070  0.35372416  0.22071589  1  -1.103131  0.045517  -0.217219  -0.188841  0.032989  2.743672  0.024
O  O135  1  0.30938524  0.35374217  0.27928889  1  -1.103338  -0.045523  -0.217316  -0.189006  -0.032996  2.743711  -0.024
O  O136  1  0.98452975  0.86735473  0.70179088  1  -1.214045  -0.056245  -0.310258  -0.542762  -0.038791  2.337342  -0.021
O  O137  1  0.48451051  0.86734169  0.79820672  1  -1.214607  0.056254  -0.310373  -0.542985  0.03879  2.337326  0.021
O  O138  1  0.01546908  0.13266398  0.29822008  1  -1.214137  -0.056273  -0.310406  -0.542898  -0.038804  2.337753  -0.021
O  O139  1  0.51550609  0.13266304  0.20180989  1  -1.214462  0.056291  -0.310451  -0.543094  0.038814  2.337423  0.021
O  O140  1  0.35564257  0.40308272  0.86311692  1  -1.175412  0.009882  -0.341924  -0.561702  0.006896  2.105901  0.007
O  O141  1  0.85562031  0.40308768  0.63685644  1  -1.175771  -0.009883  -0.342009  -0.561886  -0.006896  2.106051  -0.007
O  O142  1  0.64435356  0.59691835  0.13687709  1  -1.174926  0.009886  -0.342032  -0.561899  0.006899  2.106009  0.007
O  O143  1  0.14437068  0.59693465  0.36311383  1  -1.175321  -0.00988  -0.341946  -0.561725  -0.006894  2.106105  -0.007
