# generated using pymatgen
data_CuH12C16(N5O2)2
_symmetry_space_group_name_H-M   'P 1'
_cell_length_a   6.74411345
_cell_length_b   8.55324806
_cell_length_c   8.59857539
_cell_angle_alpha   93.06344848
_cell_angle_beta   108.94746318
_cell_angle_gamma   104.26012828
_symmetry_Int_Tables_number   1
_chemical_formula_structural   CuH12C16(N5O2)2
_chemical_formula_sum   'Cu1 H12 C16 N10 O4'
_cell_volume   449.82894199
_cell_formula_units_Z   1
loop_
 _symmetry_equiv_pos_site_id
 _symmetry_equiv_pos_as_xyz
  1  'x, y, z'
loop_
 _atom_site_type_symbol
 _atom_site_label
 _atom_site_symmetry_multiplicity
 _atom_site_fract_x
 _atom_site_fract_y
 _atom_site_fract_z
 _atom_site_occupancy
 _atom_site_hle17_ddec_charge
 _atom_site_hle17_ddec_spin_density
 _atom_site_hle17_ddec_sum_bond_order
 _atom_site_hle17_magmom
 _atom_site_hse06_10hf_ddec_charge
 _atom_site_hse06_10hf_ddec_spin_density
 _atom_site_hse06_10hf_ddec_sum_bond_order
 _atom_site_hse06_10hf_magmom
 _atom_site_hse06_ddec_charge
 _atom_site_hse06_ddec_spin_density
 _atom_site_hse06_ddec_sum_bond_order
 _atom_site_hse06_magmom
 _atom_site_pbe_cm5_charge
 _atom_site_pbe_ddec_charge
 _atom_site_pbe_ddec_spin_density
 _atom_site_pbe_ddec_sum_bond_order
 _atom_site_pbe_magmom
Cu  Cu0  1  0.00000112  0.99999772  0.00000202  1  0.828476  0.702362  1.897961  0.52  0.806016  0.790374  2.289047  0.642  0.898829  0.856993  2.22084  0.729  0.753233  0.750156  0.742134  2.334552  0.583
H  H1  1  0.94406295  0.49465012  0.31218230  1  0.120676  0.000102  0.922095  0.0  0.128357  0.000301  0.992214  0.0  0.13018  0.000179  0.989928  0.0  0.124154  0.126962  0.000398  0.993228  0.0
H  H2  1  0.05593690  0.50535109  0.68781478  1  0.120652  0.000102  0.922091  0.0  0.128335  0.000301  0.992224  0.0  0.130157  0.000179  0.989937  0.0  0.124146  0.126946  0.000398  0.993216  0.0
H  H3  1  0.79214256  0.49933455  0.10093990  1  0.126583  -0.000271  0.949886  0.0  0.13528  4e-05  1.01772  0.0  0.137114  -2.1e-05  1.016925  0.0  0.121095  0.13391  9.2e-05  1.017677  0.0
H  H4  1  0.20786263  0.50066423  0.89905606  1  0.126615  -0.000269  0.949806  0.0  0.135308  4e-05  1.017647  0.0  0.137141  -2.1e-05  1.016851  0.0  0.121099  0.133932  9.2e-05  1.017606  0.0
H  H5  1  0.86249759  0.07129537  0.65726802  1  0.096207  0.001144  0.935679  0.002  0.098168  0.000896  1.008643  0.001  0.100074  0.000605  1.006431  0.001  0.124895  0.096504  0.001126  1.010636  0.002
H  H6  1  0.13750212  0.92870100  0.34273692  1  0.096185  0.001145  0.935665  0.002  0.098154  0.000896  1.00861  0.001  0.100059  0.000605  1.006401  0.001  0.124894  0.096488  0.001127  1.010604  0.002
H  H7  1  0.04345386  0.19666290  0.46439152  1  0.108577  0.000296  0.958396  0.0  0.11553  0.000359  1.020471  0.0  0.118377  0.000237  1.020218  0.0  0.108996  0.113353  0.000458  1.021027  0.001
H  H8  1  0.95653641  0.80333345  0.53560874  1  0.108647  0.000298  0.958396  0.0  0.11561  0.000359  1.020432  0.0  0.118454  0.000238  1.020184  0.0  0.10903  0.113433  0.000458  1.02099  0.001
H  H9  1  0.44939257  0.33512784  0.57980648  1  0.105672  0.000269  0.937986  0.001  0.113118  1e-06  0.999141  0.0  0.116192  -3.5e-05  0.996496  0.0  0.113136  0.110734  4.3e-05  1.001421  0.0
H  H10  1  0.55059836  0.66487458  0.42019078  1  0.105621  0.000271  0.938015  0.001  0.113098  0.0  0.99914  0.0  0.116173  -3.5e-05  0.996496  0.0  0.113149  0.110717  4.3e-05  1.001416  0.0
H  H11  1  0.65081088  0.34342445  0.87540498  1  0.126915  0.000409  0.980578  0.001  0.136388  0.00042  1.039239  0.001  0.140546  0.000282  1.036583  0.0  0.11292  0.133218  0.000534  1.041505  0.001
H  H12  1  0.34918539  0.65657554  0.12459115  1  0.126917  0.00041  0.980651  0.001  0.136369  0.00042  1.03933  0.001  0.140543  0.000283  1.036653  0.0  0.112933  0.1332  0.000534  1.04159  0.001
C  C13  1  0.84403140  0.41906858  0.19213430  1  -0.182085  0.014786  3.608927  0.017  -0.258731  0.007437  3.857087  0.009  -0.250465  0.004842  3.866359  0.006  -0.052606  -0.256727  0.00975  3.852934  0.011
C  C14  1  0.15597271  0.58093142  0.80786378  1  -0.182113  0.014783  3.608892  0.017  -0.258782  0.007436  3.857116  0.009  -0.250505  0.004842  3.866385  0.006  -0.05264  -0.256764  0.009749  3.852961  0.011
C  C15  1  0.98449551  0.32710785  0.13327792  1  0.666902  -0.007275  3.890409  -0.008  0.633228  -0.001029  4.198799  -0.002  0.669217  -0.001428  4.191371  -0.001  0.204022  0.608744  -0.000593  4.202182  -0.002
C  C16  1  0.01550929  0.67288972  0.86672253  1  0.666957  -0.007279  3.890263  -0.008  0.633268  -0.001029  4.198696  -0.002  0.669257  -0.001427  4.19127  -0.001  0.204052  0.608766  -0.000593  4.202099  -0.002
C  C17  1  0.36444812  0.21202058  0.92687686  1  0.173079  -0.007861  3.736791  -0.006  0.175237  -0.001432  3.983583  -0.001  0.182391  -0.002919  3.999262  -0.002  0.129313  0.170172  -0.000298  3.972818  0.0
C  C18  1  0.63555040  0.78797698  0.07312086  1  0.173027  -0.007865  3.736785  -0.006  0.175195  -0.00143  3.98356  -0.001  0.182341  -0.00292  3.999239  -0.002  0.129258  0.170125  -0.000298  3.972797  0.0
C  C19  1  0.03707645  0.13291376  0.70139858  1  0.131916  -0.012389  3.664863  -0.008  0.101957  -0.003344  3.923797  -0.002  0.110674  -0.004884  3.941981  -0.003  0.056266  0.096236  -0.002144  3.912408  -0.001
C  C20  1  0.96291897  0.86708381  0.29860187  1  0.131975  -0.012392  3.664729  -0.008  0.102022  -0.003346  3.923631  -0.002  0.110738  -0.004884  3.941812  -0.003  0.056276  0.096304  -0.002145  3.912235  -0.001
C  C21  1  0.13957705  0.20305207  0.59462531  1  -0.109818  0.00955  3.722295  0.01  -0.124367  0.003702  3.976528  0.004  -0.130949  0.003328  3.997343  0.004  -0.075923  -0.120116  0.003995  3.962915  0.005
C  C22  1  0.86041526  0.79694550  0.40537669  1  -0.110055  0.009548  3.722496  0.01  -0.124597  0.003703  3.976752  0.004  -0.131178  0.003328  3.997564  0.004  -0.075977  -0.120351  0.003995  3.963145  0.005
C  C23  1  0.36259886  0.27942091  0.65854716  1  0.015529  -0.012808  3.689529  -0.008  -0.005308  -0.004302  3.944474  -0.002  -0.000968  -0.004906  3.959987  -0.003  -0.057852  -0.008406  -0.003784  3.934474  -0.002
C  C24  1  0.63739632  0.72058030  0.34145109  1  0.015691  -0.012818  3.689601  -0.008  -0.0052  -0.004302  3.944551  -0.002  -0.00086  -0.004909  3.960068  -0.003  -0.057868  -0.008301  -0.003783  3.934551  -0.002
C  C25  1  0.47692888  0.28341776  0.82658590  1  -0.111474  0.008155  3.645954  0.009  -0.136165  0.003219  3.890707  0.004  -0.140366  0.002901  3.907197  0.003  -0.072014  -0.133402  0.003451  3.880223  0.004
C  C26  1  0.52306741  0.71658224  0.17341256  1  -0.111407  0.008155  3.645931  0.009  -0.136061  0.003219  3.890682  0.004  -0.140271  0.002903  3.907162  0.003  -0.071943  -0.133297  0.003451  3.880197  0.004
C  C27  1  0.46566618  0.21255467  0.10519990  1  0.243247  0.001688  3.700375  0.002  0.193224  0.000911  3.974328  0.001  0.21814  0.000676  3.98553  0.001  0.243906  0.183857  0.00114  3.96799  0.001
C  C28  1  0.53433684  0.78744656  0.89480030  1  0.243141  0.001687  3.700474  0.002  0.19309  0.000909  3.974442  0.001  0.218021  0.000677  3.985636  0.001  0.243875  0.18372  0.001139  3.968117  0.001
N  N29  1  0.14647396  0.13702132  0.86307083  1  -0.297798  0.07053  3.300697  0.091  -0.251647  0.048631  3.577921  0.067  -0.279841  0.039366  3.599149  0.058  -0.332024  -0.235364  0.054037  3.566294  0.071
N  N30  1  0.85352660  0.86297747  0.13692979  1  -0.297816  0.070534  3.300657  0.091  -0.251672  0.048633  3.577881  0.067  -0.279862  0.039367  3.599104  0.058  -0.33205  -0.235381  0.054037  3.566245  0.071
N  N31  1  0.36733423  0.11645005  0.19166557  1  -0.29343  -0.00331  3.047586  -0.001  -0.279681  -0.002138  3.368607  -0.001  -0.29514  -0.002629  3.375322  -0.001  -0.212577  -0.270203  -0.001588  3.362749  0.0
N  N32  1  0.63266722  0.88355118  0.80833424  1  -0.293364  -0.003307  3.047536  -0.001  -0.279596  -0.002137  3.368543  -0.001  -0.295058  -0.002624  3.375256  -0.001  -0.212583  -0.270121  -0.001589  3.362694  0.0
N  N33  1  0.49846225  0.15601090  0.35237184  1  -0.041576  -0.000125  2.959915  0.0  -0.036978  -0.000261  3.27669  0.0  -0.033774  -0.000243  3.282195  0.0  -0.071971  -0.03823  -0.00029  3.270552  0.0
N  N34  1  0.50154279  0.84399155  0.64762893  1  -0.041577  -0.000125  2.959855  0.0  -0.036986  -0.00026  3.276645  0.0  -0.033784  -0.000244  3.282149  0.0  -0.071956  -0.03824  -0.00029  3.270508  0.0
N  N35  1  0.67365032  0.27206296  0.36868499  1  -0.119349  -0.000239  2.847255  0.0  -0.130048  -2e-05  3.125733  0.0  -0.118653  -0.000197  3.139457  0.0  -0.075808  -0.130632  0.000215  3.12023  0.0
N  N36  1  0.32635312  0.72793948  0.63131306  1  -0.119381  -0.00024  2.847116  0.0  -0.130108  -1.8e-05  3.125624  0.0  -0.118704  -0.000202  3.139353  0.0  -0.075842  -0.130682  0.000216  3.120112  0.0
N  N37  1  0.65648839  0.31005182  0.21445788  1  0.032517  -0.001815  3.516515  -0.002  0.148557  -0.00025  3.699654  -0.001  0.108121  -0.000384  3.758293  -0.001  -0.11265  0.154233  -7.9e-05  3.68619  0.0
N  N38  1  0.34351664  0.68995063  0.78554172  1  0.032607  -0.001815  3.516484  -0.002  0.148694  -0.000251  3.699575  -0.001  0.108233  -0.000386  3.758231  -0.001  -0.112586  0.154364  -7.9e-05  3.686115  0.0
O  O39  1  0.16661851  0.40996878  0.13834983  1  -0.59717  0.001942  1.939361  0.004  -0.5602  6.3e-05  2.160123  0.001  -0.586993  -0.00109  2.15615  0.0  -0.319862  -0.540971  0.001406  2.162047  0.003
O  O40  1  0.83338403  0.59003122  0.86164786  1  -0.597282  0.001943  1.939314  0.004  -0.560273  6.5e-05  2.160041  0.001  -0.587062  -0.001092  2.156062  0.0  -0.319936  -0.541041  0.001406  2.161973  0.003
O  O41  1  0.89122098  0.17436122  0.08412783  1  -0.609334  0.086047  2.104119  0.118  -0.598928  0.051607  2.397652  0.079  -0.643295  0.037823  2.393634  0.063  -0.332021  -0.568952  0.061065  2.399245  0.088
O  O42  1  0.10878547  0.82563638  0.91588001  1  -0.609303  0.086046  2.104058  0.118  -0.598876  0.051607  2.397617  0.079  -0.643245  0.037825  2.393604  0.063  -0.331962  -0.568897  0.061066  2.399219  0.088
