# generated using pymatgen
data_CuH4C8N4(OF)2
_symmetry_space_group_name_H-M   'P 1'
_cell_length_a   9.79131817
_cell_length_b   15.76221262
_cell_length_c   15.77469894
_cell_angle_alpha   84.50801445
_cell_angle_beta   71.96663798
_cell_angle_gamma   71.93624831
_symmetry_Int_Tables_number   1
_chemical_formula_structural   CuH4C8N4(OF)2
_chemical_formula_sum   'Cu8 H32 C64 N32 O16 F16'
_cell_volume   2200.86041345
_cell_formula_units_Z   8
loop_
 _symmetry_equiv_pos_site_id
 _symmetry_equiv_pos_as_xyz
  1  'x, y, z'
loop_
 _atom_site_type_symbol
 _atom_site_label
 _atom_site_symmetry_multiplicity
 _atom_site_fract_x
 _atom_site_fract_y
 _atom_site_fract_z
 _atom_site_occupancy
 _atom_site_pbe_bader_charge
 _atom_site_pbe_bader_spin_density
 _atom_site_pbe_cm5_charge
 _atom_site_pbe_ddec_charge
 _atom_site_pbe_ddec_spin_density
 _atom_site_pbe_ddec_sum_bond_order
 _atom_site_pbe_magmom
Cu  Cu0  1  0.12283042  0.00040321  0.26295713  1  1.008876  0.497214  0.807058  0.697357  0.660878  2.338371  0.492
Cu  Cu1  1  0.12293114  0.26295348  0.00045938  1  1.010077  -0.499237  0.807998  0.698775  -0.645435  2.336729  -0.493
Cu  Cu2  1  0.38672609  0.99922641  0.73737693  1  0.988474  -0.083783  0.799901  0.67887  -0.107956  2.352415  -0.08
Cu  Cu3  1  0.38630434  0.73726601  0.99969638  1  1.005782  -0.483996  0.803462  0.691788  -0.625491  2.336184  -0.478
Cu  Cu4  1  0.63558143  0.50048574  0.23687071  1  1.012777  -0.518027  0.807708  0.698011  -0.670121  2.336719  -0.512
Cu  Cu5  1  0.63624479  0.23801320  0.50009070  1  0.9888  -0.084805  0.797237  0.673092  -0.109167  2.360562  -0.087
Cu  Cu6  1  0.37331288  0.76324684  0.49981445  1  1.014511  0.521312  0.809441  0.700414  0.694088  2.334622  0.515
Cu  Cu7  1  0.37335484  0.49970303  0.76293718  1  1.010023  -0.49345  0.806226  0.695174  -0.638014  2.336846  -0.488
H  H8  1  0.84199171  0.00810435  0.21145972  1  0.168719  0.002726  0.122355  0.115027  0.001372  1.007936  0.002
H  H9  1  0.84254231  0.21107626  0.00778483  1  0.164286  -0.002703  0.121869  0.114575  -0.001319  1.008549  -0.002
H  H10  1  0.06069297  0.99226635  0.78905388  1  0.144343  -0.000583  0.121892  0.113829  -0.000271  1.008824  0.0
H  H11  1  0.06140125  0.78895421  0.99238447  1  0.14997  -0.002748  0.122502  0.114312  -0.001333  1.009797  -0.002
H  H12  1  0.30355208  0.50759380  0.28929623  1  0.151737  -0.002889  0.122229  0.114502  -0.001402  1.009321  -0.002
H  H13  1  0.30442425  0.28840312  0.50767285  1  0.151279  -0.000484  0.122693  0.115747  -0.000221  1.009106  0.0
H  H14  1  0.10065973  0.71084933  0.49274347  1  0.152371  0.002922  0.121987  0.114021  0.001459  1.009589  0.002
H  H15  1  0.10056740  0.49223762  0.71057315  1  0.159031  -0.00271  0.122376  0.114793  -0.001315  1.008727  -0.002
H  H16  1  0.94230508  0.86651607  0.33779640  1  0.130386  0.003525  0.136088  0.129562  0.001816  0.95169  0.002
H  H17  1  0.94227723  0.33692845  0.86688257  1  0.139152  -0.003562  0.136911  0.131557  -0.001791  0.949778  -0.003
H  H18  1  0.14908021  0.13253379  0.66196920  1  0.127743  -0.000672  0.136944  0.131638  -0.000344  0.95029  0.0
H  H19  1  0.14737392  0.66177151  0.13330997  1  0.126374  -0.003254  0.136091  0.130071  -0.00162  0.949726  -0.002
H  H20  1  0.52942957  0.36662983  0.16195484  1  0.139409  -0.003917  0.136047  0.130235  -0.001974  0.950749  -0.003
H  H21  1  0.53022250  0.16210139  0.36655463  1  0.128272  -0.000919  0.136498  0.13097  -0.000467  0.950447  -0.001
H  H22  1  0.05936748  0.83816937  0.63332561  1  0.136671  0.003698  0.13566  0.12932  0.001898  0.951721  0.003
H  H23  1  0.05935927  0.63342650  0.83767886  1  0.139173  -0.00332  0.136488  0.130454  -0.001661  0.950183  -0.002
H  H24  1  0.88424521  0.31105861  0.49150717  1  0.16247  -0.00054  0.139298  0.138558  -0.000277  0.952395  0.0
H  H25  1  0.88482787  0.49031640  0.31161280  1  0.166051  -0.003989  0.138581  0.137742  -0.002022  0.952104  -0.003
H  H26  1  0.68631204  0.68870621  0.50975025  1  0.171606  0.003792  0.13889  0.137705  0.00198  0.952819  0.003
H  H27  1  0.68710733  0.50928559  0.68872427  1  0.165137  -0.003819  0.13854  0.137016  -0.001937  0.953221  -0.003
H  H28  1  0.62673192  0.81151263  0.00942600  1  0.165391  -0.003775  0.138551  0.136455  -0.001917  0.953122  -0.003
H  H29  1  0.62201009  0.00979263  0.81011830  1  0.176734  -0.00056  0.141263  0.141115  -0.000284  0.952303  0.0
H  H30  1  0.44660765  0.99063584  0.18867529  1  0.16548  0.003798  0.139055  0.136899  0.001976  0.952417  0.003
H  H31  1  0.44673916  0.18834700  0.99043752  1  0.169856  -0.003783  0.139184  0.137572  -0.001923  0.952075  -0.003
H  H32  1  0.26710370  0.13621079  0.30358339  1  0.13659  0.002834  0.125737  0.114458  0.001382  0.991803  0.002
H  H33  1  0.26843387  0.30382992  0.13569649  1  0.132999  -0.00319  0.125296  0.113415  -0.001523  0.993852  -0.002
H  H34  1  0.70959497  0.86404981  0.69627212  1  0.136029  -0.000335  0.125275  0.11241  -0.000158  0.994518  0.0
H  H35  1  0.70815148  0.69618584  0.86459110  1  0.146835  -0.003091  0.125834  0.113863  -0.001484  0.992218  -0.002
H  H36  1  0.82224388  0.63555548  0.19653945  1  0.135656  -0.003388  0.124876  0.111555  -0.001624  0.993511  -0.002
H  H37  1  0.82130363  0.19614836  0.63520178  1  0.148074  -0.000476  0.127777  0.117094  -0.000232  0.991326  0.0
H  H38  1  0.65407314  0.80330582  0.36418019  1  0.117297  0.00336  0.125625  0.113365  0.001653  0.993059  0.002
H  H39  1  0.65390945  0.36445032  0.80381867  1  0.136934  -0.003067  0.125492  0.113175  -0.001471  0.992615  -0.002
C  C40  1  0.08436502  0.12706297  0.12715993  1  1.754154  -5e-05  0.305242  0.600504  2.4e-05  4.160111  0.0
C  C41  1  0.33791518  0.87338773  0.87325457  1  1.758803  -0.00137  0.301005  0.589882  -0.001836  4.166769  -0.002
C  C42  1  0.46161912  0.62695084  0.37332180  1  1.730651  5.5e-05  0.301593  0.594155  8.1e-05  4.160519  0.0
C  C43  1  0.46180658  0.37300164  0.62702963  1  1.724363  -0.001654  0.302274  0.594716  -0.001991  4.162882  -0.002
C  C44  1  0.89114905  0.05602076  0.16849284  1  0.521884  0.001457  0.053166  0.034732  0.001576  3.971982  0.0
C  C45  1  0.89149927  0.16824286  0.05585342  1  0.529744  -0.001818  0.052996  0.033786  -0.001751  3.973547  0.0
C  C46  1  0.11487038  0.94434319  0.83199931  1  0.542288  0.003306  0.052603  0.031936  0.002146  3.975216  0.002
C  C47  1  0.11531289  0.83197636  0.94445270  1  0.536412  0.002184  0.0537  0.034272  0.000985  3.971979  0.002
C  C48  1  0.30986852  0.55560849  0.33217858  1  0.554351  -0.001735  0.052608  0.033171  -0.001737  3.973175  0.0
C  C49  1  0.31044591  0.33146371  0.55561010  1  0.540432  0.003558  0.052225  0.030522  0.00238  3.972282  0.002
C  C50  1  0.19762171  0.66799413  0.44469829  1  0.576772  0.001542  0.053061  0.034447  0.001743  3.972965  0.0
C  C51  1  0.19768369  0.44419089  0.66781100  1  0.587689  0.002199  0.053903  0.035125  0.000933  3.969826  0.002
C  C52  1  0.82846981  0.10444784  0.10447243  1  0.515293  1.3e-05  0.07148  0.144848  7.5e-05  4.113156  0.0
C  C53  1  0.03679516  0.89587697  0.89600873  1  0.530135  -0.005005  0.073511  0.148993  -0.003415  4.111793  -0.004
C  C54  1  0.18327362  0.60400567  0.39620751  1  0.456636  0.000125  0.073144  0.149169  0.000108  4.112422  0.0
C  C55  1  0.18360366  0.39541025  0.60396332  1  0.457077  -0.005004  0.073977  0.149814  -0.003346  4.110806  -0.004
C  C56  1  0.22298148  0.85226704  0.14781851  1  1.733978  -0.000151  0.296598  0.579037  -7.2e-05  4.180488  0.0
C  C57  1  0.22511461  0.14766547  0.85210043  1  1.755719  0.001848  0.297371  0.580177  0.001355  4.180453  0.002
C  C58  1  0.62125225  0.35227743  0.35169906  1  1.737492  0.002224  0.298065  0.580373  0.001613  4.178307  0.002
C  C59  1  0.32593018  0.64806540  0.64787347  1  1.760271  -0.000254  0.296196  0.578841  -0.000156  4.178815  0.0
C  C60  1  0.02216164  0.83822012  0.27449206  1  0.61068  0.003991  0.058054  0.034885  0.00451  3.981163  0.003
C  C61  1  0.02272224  0.27375130  0.83846996  1  0.546541  -0.000495  0.059036  0.034171  -0.001763  3.978563  0.0
C  C62  1  0.13675054  0.16096873  0.72537300  1  0.609502  0.003095  0.057473  0.031701  0.00201  3.977837  0.002
C  C63  1  0.13533095  0.72524191  0.16160443  1  0.602018  -0.004215  0.058405  0.03621  -0.004403  3.97787  -0.003
C  C64  1  0.54617928  0.33837475  0.22525537  1  0.58286  -0.000356  0.056294  0.029797  -0.001804  3.982643  0.0
C  C65  1  0.54662491  0.22548147  0.33815611  1  0.603005  0.003432  0.056061  0.02928  0.00218  3.98196  0.002
C  C66  1  0.11095464  0.77478104  0.66158389  1  0.557897  0.00419  0.057209  0.033278  0.00466  3.980119  0.003
C  C67  1  0.11097351  0.66174685  0.77439773  1  0.56379  -0.004742  0.05738  0.033251  -0.004782  3.977571  -0.003
C  C68  1  0.02823376  0.75813518  0.24155329  1  0.417605  0.000351  0.071435  0.135906  0.000259  4.11836  0.0
C  C69  1  0.02912222  0.24080711  0.75831477  1  0.472689  -0.0069  0.070858  0.136167  -0.004595  4.119584  -0.006
C  C70  1  0.51902799  0.25841495  0.25830670  1  0.408499  -0.00757  0.073005  0.140391  -0.004981  4.120677  -0.006
C  C71  1  0.03681916  0.74173646  0.74143062  1  0.509632  0.000485  0.072784  0.138582  0.000436  4.117304  0.0
C  C72  1  0.91371144  0.12578893  0.38972422  1  1.741254  0.001533  0.30083  0.593488  0.001865  4.170248  0.002
C  C73  1  0.91455976  0.38938415  0.12602800  1  1.74229  -7e-06  0.29841  0.591061  -0.000879  4.171418  0.0
C  C74  1  0.43057538  0.87442231  0.61106261  1  1.739418  -0.001698  0.298999  0.590646  -0.001193  4.172898  -0.002
C  C75  1  0.42997758  0.61085359  0.87377867  1  1.731892  0.000115  0.297955  0.589194  -0.000732  4.174481  0.0
C  C76  1  0.55363290  0.62654636  0.11082681  1  1.75957  0.000136  0.299295  0.590744  -0.00085  4.176769  0.0
C  C77  1  0.55161310  0.11167031  0.62451673  1  1.758571  -8e-05  0.301739  0.585439  -0.000219  4.185438  0.0
C  C78  1  0.29060121  0.88954696  0.37395837  1  1.733976  7.4e-05  0.298804  0.59008  0.001029  4.175428  0.0
C  C79  1  0.29066347  0.37361116  0.88909512  1  1.759947  -4.2e-05  0.299024  0.588813  -0.000886  4.175898  0.0
C  C80  1  0.93943830  0.25147583  0.44951026  1  0.562318  -0.003206  0.057313  0.025367  -0.002404  3.975417  -0.002
C  C81  1  0.93991859  0.44865102  0.25184352  1  0.565611  0.002327  0.057393  0.027386  0.000126  3.97617  0.002
C  C82  1  0.64044812  0.74840402  0.55154679  1  0.581239  0.001235  0.057895  0.028287  0.002465  3.971193  0.001
C  C83  1  0.64086517  0.55110999  0.74838538  1  0.518725  0.002112  0.056968  0.027164  7.2e-05  3.973099  0.001
C  C84  1  0.63960859  0.75184219  0.05125757  1  0.550386  0.002537  0.057971  0.02938  0.000404  3.973604  0.002
C  C85  1  0.63686929  0.05144901  0.75042566  1  0.509743  0.000457  0.058376  0.02198  0.000111  3.967901  0.0
C  C86  1  0.44186511  0.94886643  0.24836495  1  0.576343  -0.002676  0.057936  0.030096  -0.000245  3.972144  -0.002
C  C87  1  0.44206634  0.24802822  0.94863348  1  0.573553  0.002432  0.056992  0.028821  0.00023  3.973766  0.002
C  C88  1  0.09125425  0.22739887  0.40264819  1  0.467278  0.003599  0.073799  0.14468  0.00256  4.105756  0.003
C  C89  1  0.09191387  0.40206227  0.22746578  1  0.462949  -0.011628  0.072459  0.142706  -0.007776  4.10543  -0.009
C  C90  1  0.72199377  0.77255523  0.59801538  1  0.419954  0.005801  0.074649  0.144979  0.003897  4.10288  0.005
C  C91  1  0.72188185  0.59766095  0.77293985  1  0.481309  -0.010974  0.073767  0.144227  -0.007391  4.102996  -0.009
C  C92  1  0.74493851  0.72724300  0.09795223  1  0.467618  -0.011291  0.073985  0.14528  -0.007609  4.100502  -0.009
C  C93  1  0.74315531  0.09745663  0.72651456  1  0.477452  -0.001644  0.077222  0.152331  -0.001104  4.097889  -0.001
C  C94  1  0.56941047  0.90202396  0.27275072  1  0.452591  0.011492  0.073718  0.146961  0.007885  4.103725  0.009
C  C95  1  0.56954017  0.27249034  0.90193056  1  0.448842  -0.011146  0.07388  0.146185  -0.00744  4.103634  -0.009
C  C96  1  0.15048566  0.15454900  0.34561346  1  0.578705  -0.000952  0.057203  0.042174  7.9e-05  3.970841  -0.001
C  C97  1  0.15154939  0.34551122  0.15428146  1  0.563444  0.004926  0.056054  0.041824  0.002832  3.975183  0.004
C  C98  1  0.65244594  0.84570688  0.65470057  1  0.58434  -0.003322  0.056588  0.0432  -0.002448  3.974667  -0.002
C  C99  1  0.65147179  0.65451040  0.84592512  1  0.587584  0.004902  0.057399  0.043076  0.002828  3.974092  0.004
C  C100  1  0.74721425  0.65425952  0.15473261  1  0.597325  0.004899  0.057308  0.045167  0.00275  3.975352  0.004
C  C101  1  0.74601460  0.15449408  0.65360858  1  0.588503  0.000921  0.058242  0.038276  0.000558  3.967845  0.001
C  C102  1  0.55578858  0.84528297  0.34573357  1  0.592785  -0.00505  0.05558  0.039435  -0.002706  3.977733  -0.004
C  C103  1  0.55574636  0.34569679  0.84540305  1  0.574321  0.004943  0.055695  0.039605  0.002874  3.977114  0.004
N  N104  1  0.01371659  0.06770558  0.17943094  1  -1.17864  0.073538  -0.361535  -0.343316  0.050676  3.551546  0.063
N  N105  1  0.01411326  0.17913703  0.06753739  1  -1.180138  -0.072951  -0.361582  -0.343258  -0.048891  3.549914  -0.062
N  N106  1  0.26003556  0.93263123  0.82101672  1  -1.182738  -0.020038  -0.360572  -0.33725  -0.013294  3.548919  -0.017
N  N107  1  0.26044632  0.82111712  0.93268578  1  -1.180747  -0.077061  -0.35931  -0.33615  -0.051582  3.54927  -0.066
N  N108  1  0.44330026  0.56743554  0.32110366  1  -1.176955  -0.076184  -0.360951  -0.342176  -0.051072  3.549011  -0.065
N  N109  1  0.44377851  0.32073431  0.56744248  1  -1.165336  -0.018023  -0.359555  -0.334766  -0.012018  3.550155  -0.015
N  N110  1  0.33177870  0.67907901  0.43289059  1  -1.146594  0.078501  -0.361108  -0.342221  0.054189  3.549108  0.067
N  N111  1  0.33179640  0.43259785  0.67889726  1  -1.145481  -0.078421  -0.360922  -0.342134  -0.052548  3.550076  -0.067
N  N112  1  0.11608427  0.88362824  0.22857775  1  -1.170366  0.074939  -0.362422  -0.351245  0.051081  3.545911  0.062
N  N113  1  0.11700639  0.22802868  0.88374716  1  -1.169233  -0.078511  -0.359872  -0.348351  -0.052128  3.543992  -0.066
N  N114  1  0.23021815  0.11606971  0.77144320  1  -1.180876  -0.016203  -0.35853  -0.343041  -0.010919  3.546224  -0.013
N  N115  1  0.22846286  0.77136483  0.11638096  1  -1.166592  -0.070265  -0.361791  -0.351014  -0.046695  3.545274  -0.058
N  N116  1  0.59472494  0.38370261  0.27101373  1  -1.151144  -0.083895  -0.359846  -0.34713  -0.055761  3.545883  -0.07
N  N117  1  0.59520597  0.27148387  0.38315474  1  -1.177196  -0.019606  -0.360144  -0.345164  -0.013073  3.543812  -0.017
N  N118  1  0.25037057  0.72888001  0.61641885  1  -1.192  0.080025  -0.361233  -0.350213  0.054521  3.54635  0.067
N  N119  1  0.25038291  0.61651636  0.72854989  1  -1.189875  -0.07306  -0.361131  -0.349081  -0.048415  3.543061  -0.061
N  N120  1  0.06429471  0.10601755  0.33958906  1  -1.175493  0.081748  -0.359929  -0.342503  0.056214  3.543746  0.07
N  N121  1  0.06533336  0.33955007  0.10575518  1  -1.179728  -0.090288  -0.362291  -0.345148  -0.060306  3.548384  -0.077
N  N122  1  0.51182569  0.89442719  0.66085374  1  -1.17174  -0.008894  -0.361966  -0.341983  -0.005855  3.549372  -0.007
N  N123  1  0.51063825  0.66076437  0.89411239  1  -1.169875  -0.08617  -0.360706  -0.342151  -0.057662  3.54365  -0.074
N  N124  1  0.65444555  0.60610894  0.16077298  1  -1.204287  -0.093876  -0.361425  -0.34413  -0.062682  3.551839  -0.08
N  N125  1  0.65370100  0.16090240  0.60514054  1  -1.162928  -0.013572  -0.352076  -0.324807  -0.009102  3.535544  -0.012
N  N126  1  0.42104481  0.83946721  0.39421007  1  -1.17369  0.093141  -0.359998  -0.341427  0.064003  3.548951  0.08
N  N127  1  0.42103048  0.39409081  0.83938561  1  -1.169774  -0.0865  -0.359621  -0.339615  -0.057886  3.54655  -0.074
N  N128  1  0.85482472  0.20190065  0.44253062  1  -1.165437  -0.007842  -0.363214  -0.344019  -0.005223  3.567935  -0.007
N  N129  1  0.85513308  0.44194975  0.20231813  1  -1.164293  -0.091882  -0.363952  -0.350382  -0.060868  3.561707  -0.077
N  N130  1  0.49951130  0.79813088  0.55850441  1  -1.166257  0.083713  -0.363431  -0.349681  0.057113  3.560058  0.071
N  N131  1  0.49971893  0.55813232  0.79766030  1  -1.173068  -0.089098  -0.363778  -0.348552  -0.058927  3.563245  -0.075
N  N132  1  0.54747904  0.70270020  0.05810255  1  -1.186384  -0.086598  -0.365296  -0.350675  -0.05734  3.561652  -0.072
N  N133  1  0.54532358  0.05933804  0.70058187  1  -1.163463  -0.01422  -0.358115  -0.332832  -0.009467  3.562599  -0.012
N  N134  1  0.30755457  0.94223610  0.29775926  1  -1.181938  0.088116  -0.366029  -0.353137  0.060005  3.563205  0.074
N  N135  1  0.30780966  0.29744922  0.94182873  1  -1.209632  -0.088352  -0.365008  -0.351717  -0.058542  3.563505  -0.074
O  O136  1  0.20333769  0.13433448  0.13447579  1  -1.160382  -0.000194  -0.328629  -0.57232  -0.000113  2.095194  0.0
O  O137  1  0.47137171  0.86643170  0.86592795  1  -1.162894  0.000269  -0.32776  -0.569499  0.000397  2.094525  0.0
O  O138  1  0.58780558  0.63434150  0.36604645  1  -1.166734  -2.9e-05  -0.326237  -0.568278  -6e-06  2.093793  0.0
O  O139  1  0.58787964  0.36567758  0.63463651  1  -1.166545  -7.9e-05  -0.327071  -0.569924  0.000174  2.096603  0.0
O  O140  1  0.31059698  0.89473985  0.10559089  1  -1.156446  0.000146  -0.316141  -0.540891  0.000135  2.096764  0.0
O  O141  1  0.31396898  0.10584790  0.89393651  1  -1.158285  -0.0007  -0.315133  -0.540638  -0.000401  2.100325  -0.001
O  O142  1  0.66707531  0.39458273  0.39392436  1  -1.15  -0.002159  -0.317506  -0.54276  -0.00135  2.095992  -0.002
O  O143  1  0.45613733  0.60587011  0.60567664  1  -1.162343  0.000536  -0.316289  -0.541268  0.000397  2.098626  0.001
O  O144  1  0.83545570  0.07824507  0.38568743  1  -1.166916  -0.000143  -0.332747  -0.568048  -0.000285  2.073612  0.0
O  O145  1  0.83620420  0.38529060  0.07850843  1  -1.169072  -0.001165  -0.333058  -0.568891  -0.000449  2.073365  -0.001
O  O146  1  0.30080426  0.92213428  0.61524882  1  -1.171935  0.000591  -0.331703  -0.567092  0.00038  2.077512  0.001
O  O147  1  0.30001868  0.61495091  0.92098714  1  -1.167481  -0.000244  -0.332787  -0.568695  0.000126  2.076489  -0.001
O  O148  1  0.47076745  0.57929132  0.11490899  1  -1.158476  -0.001002  -0.334244  -0.570742  -0.00035  2.079039  -0.001
O  O149  1  0.46923158  0.11619593  0.57710100  1  -1.152171  0.000105  -0.329847  -0.561581  0.000116  2.082076  0.0
O  O150  1  0.16470183  0.88561048  0.42135905  1  -1.164694  0.000824  -0.333325  -0.569308  0.000295  2.076151  0.001
O  O151  1  0.16475504  0.42074447  0.88485417  1  -1.163418  -0.000974  -0.332378  -0.567427  -0.000338  2.076652  -0.001
F  F152  1  0.70629357  0.09072534  0.09074736  1  -0.622616  -1.6e-05  -0.105939  -0.142793  2e-06  1.361457  0.0
F  F153  1  0.88726858  0.90942637  0.90974974  1  -0.625035  -0.001573  -0.108436  -0.146072  -0.000939  1.359736  -0.001
F  F154  1  0.04745395  0.59024079  0.40993875  1  -0.623975  1.2e-05  -0.108823  -0.146926  1.7e-05  1.359343  0.0
F  F155  1  0.04784903  0.40875956  0.59024375  1  -0.62615  -0.001555  -0.108554  -0.146425  -0.000932  1.359992  -0.001
F  F156  1  0.92846229  0.71301034  0.28647831  1  -0.639228  3.6e-05  -0.097678  -0.143162  3e-05  1.389254  0.0
F  F157  1  0.92920934  0.28553731  0.71323065  1  -0.639825  -0.002284  -0.096339  -0.141544  -0.00137  1.390688  -0.002
F  F158  1  0.46345950  0.21343984  0.21361560  1  -0.631017  -0.002232  -0.098688  -0.144725  -0.001339  1.392174  -0.002
F  F159  1  0.89180564  0.78659690  0.78625283  1  -0.637  1.5e-05  -0.098235  -0.144264  2e-05  1.390197  0.0
F  F160  1  0.18056998  0.27581453  0.41056408  1  -0.640061  0.001099  -0.09587  -0.143294  0.000681  1.417076  0.001
F  F161  1  0.18121871  0.40989393  0.27594823  1  -0.641809  -0.003594  -0.096298  -0.143828  -0.002137  1.41692  -0.003
F  F162  1  0.86752613  0.72394608  0.58990399  1  -0.636168  0.001852  -0.097348  -0.14533  0.001139  1.416785  0.001
F  F163  1  0.86760808  0.58966398  0.72478064  1  -0.634322  -0.003423  -0.098083  -0.146314  -0.002055  1.415214  -0.003
F  F164  1  0.84260664  0.77537663  0.09009442  1  -0.641469  -0.003481  -0.098783  -0.147931  -0.002082  1.415116  -0.003
F  F165  1  0.83998213  0.08936602  0.77517533  1  -0.638158  -0.000554  -0.095667  -0.143473  -0.000329  1.413781  0.0
F  F166  1  0.70721612  0.90977569  0.22447969  1  -0.636478  0.003563  -0.097955  -0.146853  0.002196  1.414312  0.003
F  F167  1  0.70744341  0.22412598  0.90963177  1  -0.637078  -0.003426  -0.098203  -0.147095  -0.002051  1.414167  -0.003
