# generated using pymatgen
data_AgH12C13SN6(OF)3
_symmetry_space_group_name_H-M   'P 1'
_cell_length_a   7.17890244
_cell_length_b   11.54864483
_cell_length_c   11.90829016
_cell_angle_alpha   106.72868679
_cell_angle_beta   94.04071824
_cell_angle_gamma   96.07574583
_symmetry_Int_Tables_number   1
_chemical_formula_structural   AgH12C13SN6(OF)3
_chemical_formula_sum   'Ag2 H24 C26 S2 N12 O6 F6'
_cell_volume   934.88624964
_cell_formula_units_Z   2
loop_
 _symmetry_equiv_pos_site_id
 _symmetry_equiv_pos_as_xyz
  1  'x, y, z'
loop_
 _atom_site_type_symbol
 _atom_site_label
 _atom_site_symmetry_multiplicity
 _atom_site_fract_x
 _atom_site_fract_y
 _atom_site_fract_z
 _atom_site_occupancy
 _atom_site_hle17_bader_spin_density
 _atom_site_hle17_ddec_charge
 _atom_site_hle17_ddec_spin_density
 _atom_site_hle17_ddec_sum_bond_order
 _atom_site_hle17_magmom
 _atom_site_hse06_10hf_bader_spin_density
 _atom_site_hse06_10hf_ddec_charge
 _atom_site_hse06_10hf_ddec_spin_density
 _atom_site_hse06_10hf_ddec_sum_bond_order
 _atom_site_hse06_10hf_magmom
 _atom_site_hse06_bader_spin_density
 _atom_site_hse06_ddec_charge
 _atom_site_hse06_ddec_spin_density
 _atom_site_hse06_ddec_sum_bond_order
 _atom_site_hse06_magmom
 _atom_site_pbe_bader_spin_density
 _atom_site_pbe_cm5_charge
 _atom_site_pbe_ddec_charge
 _atom_site_pbe_ddec_spin_density
 _atom_site_pbe_ddec_sum_bond_order
 _atom_site_pbe_magmom
Ag  Ag0  1  0.25588595  0.92384459  0.15916334  1  0  0.481631  0  1.544256  0  0  0.333891  0  1.996563  0  0  0.349974  0  1.957719  0  0  0.504836  0.326375  0  2.021423  0
Ag  Ag1  1  0.74411359  0.07615443  0.84083525  1  0  0.481635  0  1.544244  0  0  0.333909  0  1.996539  0  0  0.349992  0  1.957694  0  0  0.50485  0.326394  0  2.021394  0
H  H2  1  0.49351567  0.90523718  0.38170936  1  0  0.07567  0  0.974368  0  0  0.073199  0  1.062387  0  0  0.077157  0  1.058596  0  0  0.108515  0.070433  0  1.065111  0
H  H3  1  0.50648905  0.09475921  0.61828452  1  0  0.075713  0  0.974258  0  0  0.073182  0  1.06239  0  0  0.077141  0  1.058595  0  0  0.108514  0.070414  0  1.065115  0
H  H4  1  0.21255912  0.48076194  0.24647515  1  0  0.099244  0  0.968573  0  0  0.105564  0  1.031687  0  0  0.108414  0  1.030233  0  0  0.115887  0.103452  0  1.032896  0
H  H5  1  0.78743901  0.51923706  0.75352420  1  0  0.099229  0  0.968575  0  0  0.105576  0  1.031667  0  0  0.108407  0  1.030234  0  0  0.1159  0.103466  0  1.032875  0
H  H6  1  0.13521858  0.62770894  0.13399321  1  0  0.115737  0  0.948281  0  0  0.123205  0  1.010934  0  0  0.126525  0  1.007754  0  0  0.122736  0.120803  0  1.013346  0
H  H7  1  0.86477724  0.37229277  0.86600765  1  0  0.115725  0  0.948262  0  0  0.123194  0  1.010915  0  0  0.126515  0  1.007736  0  0  0.122731  0.120792  0  1.013325  0
H  H8  1  0.56888152  0.59531854  0.55661953  1  0  0.130259  0  0.981033  0  0  0.13927  0  1.061486  0  0  0.142056  0  1.058842  0  0  0.093204  0.137212  0  1.063426  0
H  H9  1  0.43111823  0.40468142  0.44337766  1  0  0.130243  0  0.981036  0  0  0.13924  0  1.061524  0  0  0.142027  0  1.058877  0  0  0.093207  0.137182  0  1.063464  0
H  H10  1  0.73354580  0.71086028  0.66207976  1  0  0.146598  0  0.957891  0  0  0.165962  0  1.017593  0  0  0.168306  0  1.016616  0  0  0.099138  0.164234  0  1.018314  0
H  H11  1  0.26645237  0.28913875  0.33791792  1  0  0.146606  0  0.95784  0  0  0.165967  0  1.017549  0  0  0.168311  0  1.016578  0  0  0.099148  0.164239  0  1.018267  0
H  H12  1  0.79939858  0.62984202  0.52393250  1  0  0.135043  0  0.918503  0  0  0.159064  0  0.972594  0  0  0.160705  0  0.971863  0  0  0.099907  0.157834  0  0.973171  0
H  H13  1  0.20060238  0.37015702  0.47606532  1  0  0.135006  0  0.918576  0  0  0.159035  0  0.972657  0  0  0.160674  0  0.971927  0  0  0.09989  0.157804  0  0.973229  0
H  H14  1  0.37576709  0.92456327  0.68182300  1  0  0.089725  0  0.952001  0  0  0.096192  0  1.020398  0  0  0.099035  0  1.018659  0  0  0.117413  0.093914  0  1.022101  0
H  H15  1  0.62423361  0.07543480  0.31817873  1  0  0.089739  0  0.951973  0  0  0.096194  0  1.02039  0  0  0.099035  0  1.018651  0  0  0.117417  0.093925  0  1.022084  0
H  H16  1  0.45441092  0.13998610  0.03018491  1  0  0.105956  0  0.956969  0  0  0.111182  0  1.022957  0  0  0.114663  0  1.019339  0  0  0.12132  0.108408  0  1.026024  0
H  H17  1  0.54558753  0.86001472  0.96981582  1  0  0.105971  0  0.956952  0  0  0.111194  0  1.022948  0  0  0.114675  0  1.01933  0  0  0.121326  0.108418  0  1.026016  0
H  H18  1  0.10326765  0.14032802  0.03085136  1  0  0.097443  0  0.973865  0  0  0.101971  0  1.043028  0  0  0.105206  0  1.040044  0  0  0.119256  0.099415  0  1.045629  0
H  H19  1  0.89673080  0.85967280  0.96914937  1  0  0.097461  0  0.973853  0  0  0.10199  0  1.043029  0  0  0.105226  0  1.040046  0  0  0.119265  0.099435  0  1.045632  0
H  H20  1  0.97386684  0.84770344  0.45592652  1  0  0.131548  0  0.936449  0  0  0.153239  0  0.989207  0  0  0.155175  0  0.989568  0  0  0.102173  0.151799  0  0.989032  0
H  H21  1  0.02613867  0.15229747  0.54407123  1  0  0.131547  0  0.936436  0  0  0.153236  0  0.989193  0  0  0.155172  0  0.989556  0  0  0.102152  0.151795  0  0.989018  0
H  H22  1  0.13548401  0.78517801  0.53390580  1  0  0.135316  0  0.939923  0  0  0.156291  0  0.998096  0  0  0.157322  0  0.998903  0  0  0.10119  0.155482  0  0.997563  0
H  H23  1  0.86452079  0.21482654  0.46609297  1  0  0.135389  0  0.939831  0  0  0.156349  0  0.998017  0  0  0.157379  0  0.998826  0  0  0.10123  0.155539  0  0.997483  0
H  H24  1  0.19666736  0.93341039  0.52016074  1  0  0.118277  0  0.971114  0  0  0.132215  0  1.045805  0  0  0.133984  0  1.046002  0  0  0.093334  0.130929  0  1.04566  0
H  H25  1  0.80333264  0.06659133  0.47984117  1  0  0.118314  0  0.971067  0  0  0.132249  0  1.045757  0  0  0.134015  0  1.045954  0  0  0.093354  0.130948  0  1.045624  0
C  C26  1  0.43174003  0.80974773  0.35053073  1  0  0.046713  0  3.689848  0  0  0.008178  0  3.945581  0  0  0.011428  0  3.962613  0  0  0.045828  0.005975  0  3.934216  0
C  C27  1  0.56826078  0.19025041  0.64946599  1  0  0.046646  0  3.689829  0  0  0.008095  0  3.945606  0  0  0.011347  0  3.962635  0  0  0.045767  0.005892  0  3.934243  0
C  C28  1  0.47929985  0.72740046  0.41119189  1  0  0.098477  0  3.77928  0  0  0.108569  0  4.021657  0  0  0.108354  0  4.041484  0  0  0.118944  0.108337  0  4.008615  0
C  C29  1  0.52070126  0.27259949  0.58880704  1  0  0.098496  0  3.779311  0  0  0.108599  0  4.021635  0  0  0.108382  0  4.041464  0  0  0.118952  0.108368  0  4.008594  0
C  C30  1  0.27651838  0.57600428  0.27695360  1  0  0.083054  0  3.677566  0  0  0.06008  0  3.93535  0  0  0.060386  0  3.953002  0  0  0.055122  0.059802  0  3.92368  0
C  C31  1  0.72347973  0.42399471  0.72304659  1  0  0.083062  0  3.677591  0  0  0.060076  0  3.935358  0  0  0.060397  0  3.953018  0  0  0.055125  0.059799  0  3.923687  0
C  C32  1  0.23103924  0.65712449  0.21511989  1  0  0.082397  0  3.625807  0  0  0.052061  0  3.871084  0  0  0.055896  0  3.887939  0  0  0.055305  0.048946  0  3.86042  0
C  C33  1  0.76895923  0.34287634  0.78488000  1  0  0.082401  0  3.625735  0  0  0.052057  0  3.871011  0  0  0.055892  0  3.887864  0  0  0.055299  0.048939  0  3.860353  0
C  C34  1  0.62130200  0.76398704  0.51547326  1  0  0.247761  0  3.688271  0  0  0.235705  0  3.956437  0  0  0.248488  0  3.96984  0  0  0.145079  0.226837  0  3.947495  0
C  C35  1  0.37870034  0.23601201  0.48452547  1  0  0.247712  0  3.688276  0  0  0.235707  0  3.956358  0  0  0.24849  0  3.96976  0  0  0.145061  0.226839  0  3.947415  0
C  C36  1  0.68206630  0.67024398  0.56867110  1  0  -0.386971  0  3.694974  0  0  -0.469953  0  3.936872  0  0  -0.474286  0  3.942849  0  0  -0.247914  -0.466567  0  3.932673  0
C  C37  1  0.31793326  0.32975506  0.43132665  1  0  -0.386899  0  3.695041  0  0  -0.469896  0  3.936908  0  0  -0.474235  0  3.942891  0  0  -0.247895  -0.466511  0  3.93271  0
C  C38  1  0.31354960  0.97612959  0.75825633  1  0  0.056212  0  3.640962  0  0  0.017587  0  3.897177  0  0  0.020906  0  3.911882  0  0  0.052044  0.015028  0  3.888252  0
C  C39  1  0.68645305  0.02387125  0.24174462  1  0  0.056206  0  3.640966  0  0  0.017591  0  3.897174  0  0  0.020909  0  3.911884  0  0  0.052034  0.015025  0  3.888248  0
C  C40  1  0.35727161  0.09252233  0.95210839  1  0  0.092515  0  3.621005  0  0  0.061758  0  3.873431  0  0  0.06696  0  3.885655  0  0  0.057758  0.05783  0  3.866256  0
C  C41  1  0.64272684  0.90747848  0.04789234  1  0  0.09253  0  3.621001  0  0  0.061766  0  3.87344  0  0  0.066969  0  3.885663  0  0  0.057753  0.057838  0  3.866264  0
C  C42  1  0.16322493  0.09402287  0.95105586  1  0  0.094111  0  3.648057  0  0  0.065566  0  3.900853  0  0  0.068976  0  3.914327  0  0  0.05863  0.062716  0  3.892818  0
C  C43  1  0.83677213  0.90597793  0.04894480  1  0  0.094075  0  3.648022  0  0  0.06552  0  3.900842  0  0  0.068929  0  3.914315  0  0  0.058612  0.06267  0  3.892806  0
C  C44  1  0.11918663  0.98165711  0.75447177  1  0  0.126586  0  3.72317  0  0  0.125178  0  3.965871  0  0  0.128007  0  3.984147  0  0  0.123358  0.122629  0  3.954465  0
C  C45  1  0.88081426  0.01834188  0.24552940  1  0  0.126537  0  3.723158  0  0  0.125129  0  3.965852  0  0  0.127935  0  3.984115  0  0  0.123357  0.122576  0  3.954456  0
C  C46  1  0.99481389  0.92343073  0.64393339  1  0  0.225106  0  3.67802  0  0  0.21892  0  3.93725  0  0  0.228454  0  3.952083  0  0  0.142555  0.212443  0  3.927571  0
C  C47  1  0.00518560  0.07656826  0.35606771  1  0  0.225156  0  3.678128  0  0  0.218989  0  3.937314  0  0  0.2286  0  3.952037  0  0  0.142575  0.212511  0  3.927631  0
C  C48  1  0.08006425  0.86994097  0.53226749  1  0  -0.376438  0  3.692812  0  0  -0.454658  0  3.92616  0  0  -0.459733  0  3.935687  0  0  -0.239733  -0.450725  0  3.919421  0
C  C49  1  0.91994000  0.13006082  0.46773214  1  0  -0.376586  0  3.692796  0  0  -0.45481  0  3.926173  0  0  -0.459906  0  3.935676  0  0  -0.239786  -0.450857  0  3.919445  0
C  C50  1  0.26930805  0.62440963  0.75447757  1  0  0.589833  0  3.674356  0  0  0.526742  0  4.032768  0  0  0.554268  0  4.006426  0  0  0.287406  0.506736  0  4.052322  0
C  C51  1  0.73069453  0.37559117  0.24552673  1  0  0.589748  0  3.674593  0  0  0.526658  0  4.033004  0  0  0.55418  0  4.00665  0  0  0.287368  0.506618  0  4.052618  0
S  S52  1  0.12174792  0.69331914  0.87280445  1  0  1.102408  0  5.87928  0  0  1.001834  0  6.420286  0  0  1.045588  0  6.400053  0  0  0.477136  0.971803  0  6.433412  0
S  S53  1  0.87824962  0.30668439  0.12719786  1  0  1.102378  0  5.879248  0  0  1.001824  0  6.420252  0  0  1.045578  0  6.400023  0  0  0.477127  0.971802  0  6.433386  0
N  N54  1  0.43281510  0.03342997  0.85525026  1  0  -0.230745  0  3.261928  0  0  -0.161036  0  3.548097  0  0  -0.170697  0  3.559075  0  0  -0.321237  -0.15494  0  3.540997  0
N  N55  1  0.56718596  0.96656994  0.14475118  1  0  -0.230774  0  3.261947  0  0  -0.161056  0  3.548106  0  0  -0.170716  0  3.559081  0  0  -0.321247  -0.15496  0  3.54101  0
N  N56  1  0.30928353  0.77480108  0.25330850  1  0  -0.254543  0  3.258141  0  0  -0.18392  0  3.538898  0  0  -0.19664  0  3.553456  0  0  -0.31764  -0.174997  0  3.528705  0
N  N57  1  0.69071726  0.22519706  0.74668905  1  0  -0.254491  0  3.257998  0  0  -0.183837  0  3.538732  0  0  -0.196559  0  3.553293  0  0  -0.317574  -0.174913  0  3.528537  0
N  N58  1  0.04510419  0.04181447  0.85296072  1  0  -0.260351  0  3.254414  0  0  -0.1958  0  3.534745  0  0  -0.204883  0  3.545588  0  0  -0.313942  -0.189956  0  3.527776  0
N  N59  1  0.95489584  0.95818728  0.14703953  1  0  -0.26027  0  3.254284  0  0  -0.195733  0  3.534639  0  0  -0.204816  0  3.545488  0  0  -0.313905  -0.189888  0  3.527672  0
N  N60  1  0.81479032  0.92153252  0.64959496  1  0  -0.184241  0  3.254951  0  0  -0.139082  0  3.546951  0  0  -0.150595  0  3.5633  0  0  -0.189145  -0.131666  0  3.536039  0
N  N61  1  0.18520815  0.07846830  0.35040494  1  0  -0.184236  0  3.255018  0  0  -0.139079  0  3.547003  0  0  -0.150618  0  3.563328  0  0  -0.189127  -0.131663  0  3.536093  0
N  N62  1  0.69082677  0.87882965  0.55330376  1  0  -0.242988  0  3.164535  0  0  -0.208577  0  3.447258  0  0  -0.225301  0  3.468625  0  0  -0.195438  -0.197056  0  3.432627  0
N  N63  1  0.30917701  0.12116942  0.44669338  1  0  -0.242973  0  3.164559  0  0  -0.208583  0  3.447272  0  0  -0.225307  0  3.468644  0  0  -0.195461  -0.197063  0  3.432645  0
N  N64  1  0.39954485  0.61017851  0.37401507  1  0  -0.265346  0  3.039259  0  0  -0.238795  0  3.299181  0  0  -0.245397  0  3.314759  0  0  -0.290722  -0.234069  0  3.288703  0
N  N65  1  0.60045610  0.38982052  0.62598359  1  0  -0.265358  0  3.039224  0  0  -0.238818  0  3.299152  0  0  -0.245418  0  3.314726  0  0  -0.290743  -0.234091  0  3.288672  0
O  O66  1  0.10691900  0.60668411  0.94008551  1  0  -0.583069  0  1.968945  0  0  -0.551514  0  2.205019  0  0  -0.569264  0  2.191733  0  0  -0.333778  -0.539023  0  2.213759  0
O  O67  1  0.89307301  0.39331941  0.05991402  1  0  -0.583149  0  1.968866  0  0  -0.551598  0  2.204934  0  0  -0.569351  0  2.191651  0  0  -0.333848  -0.539105  0  2.213673  0
O  O68  1  0.94729599  0.70396322  0.80790794  1  0  -0.602296  0  2.002764  0  0  -0.568711  0  2.250895  0  0  -0.587616  0  2.239217  0  0  -0.336594  -0.555276  0  2.2584  0
O  O69  1  0.05270130  0.29603854  0.19208965  1  0  -0.602275  0  2.002779  0  0  -0.568656  0  2.250872  0  0  -0.587563  0  2.239198  0  0  -0.336524  -0.555219  0  2.258374  0
O  O70  1  0.23455754  0.81163314  0.93341765  1  0  -0.63867  0  2.088167  0  0  -0.593138  0  2.370043  0  0  -0.613921  0  2.357843  0  0  -0.348066  -0.578526  0  2.377894  0
O  O71  1  0.76544672  0.18836865  0.06658198  1  0  -0.638581  0  2.088073  0  0  -0.593118  0  2.370005  0  0  -0.613897  0  2.357797  0  0  -0.348086  -0.578507  0  2.377855  0
F  F72  1  0.27808090  0.68784080  0.67358397  1  0  -0.236509  0  1.189719  0  0  -0.197383  0  1.362938  0  0  -0.20757  0  1.348449  0  0  -0.097479  -0.189951  0  1.373141  0
F  F73  1  0.72192898  0.31215374  0.32641382  1  0  -0.236459  0  1.189791  0  0  -0.197331  0  1.363011  0  0  -0.207518  0  1.348519  0  0  -0.097444  -0.18989  0  1.373225  0
F  F74  1  0.44791689  0.62540451  0.80022007  1  0  -0.214613  0  1.188187  0  0  -0.175274  0  1.351599  0  0  -0.185273  0  1.337056  0  0  -0.087505  -0.167976  0  1.361869  0
F  F75  1  0.55208276  0.37459618  0.19978993  1  0  -0.214583  0  1.188258  0  0  -0.175244  0  1.35167  0  0  -0.185239  0  1.337124  0  0  -0.08749  -0.167938  0  1.361952  0
F  F76  1  0.19706040  0.50721888  0.69532762  1  0  -0.23088  0  1.177177  0  0  -0.195587  0  1.340167  0  0  -0.205059  0  1.325331  0  0  -0.098895  -0.188651  0  1.350653  0
F  F77  1  0.80294173  0.49278002  0.30468114  1  0  -0.230853  0  1.177188  0  0  -0.19556  0  1.340179  0  0  -0.205029  0  1.32534  0  0  -0.098869  -0.188614  0  1.350677  0
