# generated using pymatgen
data_ZnH15C22(NO)4
_symmetry_space_group_name_H-M   'P 1'
_cell_length_a   11.01796256
_cell_length_b   15.89978536
_cell_length_c   17.23393562
_cell_angle_alpha   92.61068653
_cell_angle_beta   89.90630325
_cell_angle_gamma   92.30547817
_symmetry_Int_Tables_number   1
_chemical_formula_structural   ZnH15C22(NO)4
_chemical_formula_sum   'Zn2 H30 C44 N8 O8'
_cell_volume   3013.52181055
_cell_formula_units_Z   2
loop_
 _symmetry_equiv_pos_site_id
 _symmetry_equiv_pos_as_xyz
  1  'x, y, z'
loop_
 _atom_site_type_symbol
 _atom_site_label
 _atom_site_symmetry_multiplicity
 _atom_site_fract_x
 _atom_site_fract_y
 _atom_site_fract_z
 _atom_site_occupancy
 _atom_site_pbe_bader_charge
 _atom_site_pbe_bader_spin_density
 _atom_site_pbe_cm5_charge
 _atom_site_pbe_ddec_charge
 _atom_site_pbe_ddec_spin_density
 _atom_site_pbe_ddec_sum_bond_order
 _atom_site_pbe_magmom
Zn  Zn0  1  0.50433977  0.58817940  0.49746082  1  1.283006  0  0.66838  0.813839  0  2.432733  0
Zn  Zn1  1  0.49566954  0.41182600  0.50254694  1  1.280914  0  0.668341  0.813941  0  2.433006  0
H  H2  1  0.23192770  0.12596284  0.37589899  1  0.036794  0  0.093946  0.089351  0  1.005061  0
H  H3  1  0.76805052  0.87403778  0.62408301  1  0.036604  0  0.093876  0.089296  0  1.00503  0
H  H4  1  0.59656004  0.63571221  0.74529656  1  0.084102  0  0.099635  0.101757  0  1.021742  0
H  H5  1  0.40343345  0.36427313  0.25470040  1  0.084016  0  0.099671  0.101829  0  1.021785  0
H  H6  1  0.39971716  0.72915512  0.58607591  1  0.142456  0  0.132296  0.110489  0  0.964969  0
H  H7  1  0.60032206  0.27084952  0.41393182  1  0.142438  0  0.132208  0.110321  0  0.965005  0
H  H8  1  0.40153401  0.88818737  0.58460484  1  0.113756  0  0.118338  0.126139  0  1.000845  0
H  H9  1  0.59850439  0.11181855  0.41540121  1  0.113469  0  0.118324  0.126005  0  1.000963  0
H  H10  1  0.35396578  0.12807163  0.61070416  1  0.106235  0  0.121815  0.130657  0  0.977322  0
H  H11  1  0.64605043  0.87192752  0.38928822  1  0.10605  0  0.121759  0.130628  0  0.977177  0
H  H12  1  0.36855145  0.28662120  0.60246200  1  0.124132  0  0.129226  0.10039  0  0.984596  0
H  H13  1  0.63145766  0.71338048  0.39753340  1  0.123779  0  0.129207  0.100252  0  0.984645  0
H  H14  1  0.27325663  0.25406632  0.30061489  1  0.054458  0  0.098498  0.093051  0  1.005754  0
H  H15  1  0.72673447  0.74593734  0.69937712  1  0.054491  0  0.098535  0.093103  0  1.005644  0
H  H16  1  0.19466955  0.39139939  0.34664912  1  0.071117  0  0.10316  0.103786  0  0.991094  0
H  H17  1  0.80532598  0.60860297  0.65334689  1  0.071189  0  0.103103  0.103739  0  0.990977  0
H  H18  1  0.02702752  0.27388605  0.54196055  1  0.073829  0  0.097537  0.098227  0  1.002296  0
H  H19  1  0.97297763  0.72611062  0.45803172  1  0.073688  0  0.097596  0.098252  0  1.002279  0
H  H20  1  0.10755141  0.13617003  0.49683901  1  0.043146  0  0.094188  0.088441  0  1.004596  0
H  H21  1  0.89243463  0.86382549  0.50314740  1  0.043051  0  0.094214  0.088527  0  1.004538  0
H  H22  1  0.87185643  0.37211984  0.46875942  1  0.066217  0  0.102932  0.11136  0  1.010146  0
H  H23  1  0.12813775  0.62787617  0.53124674  1  0.066342  0  0.102934  0.111384  0  1.010063  0
H  H24  1  0.62275154  0.58057214  0.10267728  1  0.083788  0  0.101686  0.112848  0  1.027195  0
H  H25  1  0.37721658  0.41942777  0.89732558  1  0.083593  0  0.101671  0.11289  0  1.027144  0
H  H26  1  0.61330763  0.64064487  0.89190917  1  0.080054  0  0.099665  0.106311  0  1.009593  0
H  H27  1  0.38668628  0.35934677  0.10808925  1  0.079713  0  0.099701  0.106349  0  1.009439  0
H  H28  1  0.66950226  0.59608556  0.31252075  1  0.466321  0  0.297644  0.301514  0  0.981947  0
H  H29  1  0.72981275  0.62241723  0.22395246  1  0.425607  0  0.307676  0.302936  0  0.942361  0
H  H30  1  0.33048702  0.40390483  0.68747934  1  0.465955  0  0.297614  0.305446  0  0.976773  0
H  H31  1  0.27015906  0.37758331  0.77604752  1  0.425388  0  0.307842  0.303315  0  0.941899  0
C  C32  1  0.48594418  0.51946156  0.65288289  1  1.516326  0  0.211777  0.599909  0  4.172334  0
C  C33  1  0.51404998  0.48054772  0.34711808  1  1.516709  0  0.211677  0.599767  0  4.172612  0
C  C34  1  0.87301855  0.50198583  0.50673837  1  -0.01139  0  -0.012227  -0.063275  0  3.930684  0
C  C35  1  0.12697955  0.49801401  0.49325579  1  -0.011441  0  -0.012267  -0.063058  0  3.930235  0
C  C36  1  0.94426713  0.57632535  0.52454482  1  0.005185  0  0.0016  0.054388  0  3.963054  0
C  C37  1  0.05573277  0.42367447  0.47545224  1  0.005197  0  0.001497  0.05422  0  3.962652  0
C  C38  1  0.48180650  0.52408851  0.73942447  1  0.028428  0  -0.026455  -0.140589  0  3.91149  0
C  C39  1  0.51817499  0.47590758  0.26057530  1  0.028584  0  -0.026399  -0.140443  0  3.911901  0
C  C40  1  0.41453502  0.46289020  0.78191763  1  0.374082  0  0.103485  0.308642  0  4.07039  0
C  C41  1  0.58543840  0.53710720  0.21808105  1  0.373024  0  0.103247  0.308286  0  4.070128  0
C  C42  1  0.42449015  0.46656286  0.86310832  1  0.023777  0  -0.106152  -0.276495  0  3.9166  0
C  C43  1  0.57548058  0.53343517  0.13689096  1  0.024002  0  -0.106074  -0.276317  0  3.917028  0
C  C44  1  0.49833722  0.52856386  0.90169138  1  0.366161  0  0.081303  0.1898  0  4.091171  0
C  C45  1  0.50163462  0.47143730  0.09831037  1  0.365707  0  0.081256  0.189619  0  4.091351  0
C  C46  1  0.55885076  0.59183162  0.86012320  1  -0.003849  0  -0.104882  -0.186691  0  4.011556  0
C  C47  1  0.44113873  0.40816191  0.13987820  1  -0.003454  0  -0.104877  -0.186536  0  4.011558  0
C  C48  1  0.54968415  0.58857443  0.77970990  1  -0.107771  0  -0.091645  -0.078656  0  4.035861  0
C  C49  1  0.45030063  0.41141660  0.22029080  1  -0.107566  0  -0.091751  -0.078941  0  4.036362  0
C  C50  1  0.54846506  0.23597758  0.45673428  1  0.425173  0  0.065789  0.114186  0  3.90288  0
C  C51  1  0.45157415  0.76402706  0.54327461  1  0.424327  0  0.065683  0.114099  0  3.902968  0
C  C52  1  0.54680475  0.14886506  0.45742410  1  0.091897  0  -0.069434  -0.182402  0  3.918381  0
C  C53  1  0.45325049  0.85113509  0.54258691  1  0.091931  0  -0.069359  -0.182627  0  3.918754  0
C  C54  1  0.26336773  0.49974790  0.49394961  1  1.545138  0  0.214213  0.592207  0  4.17174  0
C  C55  1  0.73663412  0.50026823  0.50606097  1  1.545302  0  0.214349  0.592323  0  4.172025  0
C  C56  1  0.47626639  0.10910914  0.51410221  1  0.281887  0  0.104693  0.195131  0  4.041039  0
C  C57  1  0.52375112  0.89089626  0.48589801  1  0.281586  0  0.1047  0.195322  0  4.04097  0
C  C58  1  0.40979313  0.15820071  0.56691159  1  -0.027955  0  -0.062157  -0.17685  0  3.916397  0
C  C59  1  0.59022612  0.84180344  0.43308451  1  -0.028117  0  -0.062242  -0.17708  0  3.916142  0
C  C60  1  0.41742713  0.24535018  0.56235157  1  0.542263  0  0.070474  0.123758  0  3.898403  0
C  C61  1  0.58258585  0.75465526  0.43764517  1  0.543342  0  0.070508  0.123876  0  3.898694  0
C  C62  1  0.21961158  0.25818731  0.35379255  1  0.008822  0  -0.096664  -0.082962  0  4.037461  0
C  C63  1  0.78037848  0.74181446  0.64619995  1  0.008901  0  -0.096627  -0.082894  0  4.037392  0
C  C64  1  0.17496812  0.33538352  0.37941482  1  -0.098273  0  -0.086303  -0.109753  0  3.955734  0
C  C65  1  0.82503475  0.66462007  0.62058125  1  -0.098446  0  -0.086288  -0.109925  0  3.955606  0
C  C66  1  0.10580652  0.34215747  0.44774580  1  -0.032653  0  -0.005322  0.083319  0  3.993556  0
C  C67  1  0.89418761  0.65783735  0.55224870  1  -0.032467  0  -0.005406  0.083408  0  3.993348  0
C  C68  1  0.08089527  0.26926815  0.48887230  1  -0.024615  0  -0.097604  -0.142302  0  3.992126  0
C  C69  1  0.91909088  0.73072924  0.51111652  1  -0.020622  0  -0.097777  -0.142424  0  3.992176  0
C  C70  1  0.12658046  0.19200220  0.46358819  1  -0.023375  0  -0.105564  -0.097041  0  4.079387  0
C  C71  1  0.87340116  0.80799523  0.53639772  1  -0.02681  0  -0.105454  -0.097115  0  4.07935  0
C  C72  1  0.19637474  0.18621904  0.39596802  1  -0.095937  0  -0.105232  -0.104874  0  4.061873  0
C  C73  1  0.80360692  0.81377902  0.60401908  1  -0.096235  0  -0.105247  -0.104817  0  4.061715  0
C  C74  1  0.92969439  0.42784115  0.48325155  1  0.011005  0  -0.085036  -0.14368  0  3.959829  0
C  C75  1  0.07029886  0.57215426  0.51674936  1  0.010945  0  -0.085062  -0.143782  0  3.959971  0
N  N76  1  0.51897008  0.53237414  0.98275505  1  -0.520201  0  -0.15359  -0.138901  0  3.281643  0
N  N77  1  0.48101037  0.46762005  0.01724638  1  -0.470236  0  -0.153613  -0.138774  0  3.281544  0
N  N78  1  0.48565867  0.28324925  0.50859603  1  -1.235803  0  -0.310137  -0.183765  0  3.492985  0
N  N79  1  0.51436593  0.71675362  0.49140175  1  -1.235566  0  -0.3101  -0.183732  0  3.492731  0
N  N80  1  0.46537286  0.02081817  0.52218027  1  -0.458006  0  -0.132058  -0.117258  0  3.234955  0
N  N81  1  0.53465632  0.97918530  0.47781812  1  -0.414403  0  -0.132035  -0.117287  0  3.23509  0
N  N82  1  0.65794130  0.59985368  0.25442576  1  -1.231736  0  -0.602921  -0.631789  0  3.339206  0
N  N83  1  0.34203396  0.40014432  0.74557642  1  -1.231899  0  -0.603164  -0.636033  0  3.334053  0
O  O84  1  0.50003352  0.58792272  0.61757029  1  -1.156947  0  -0.319255  -0.55324  0  2.314982  0
O  O85  1  0.50004280  0.41208049  0.38244029  1  -1.157321  0  -0.319204  -0.553384  0  2.314967  0
O  O86  1  0.47754969  0.44570487  0.61997953  1  -1.163396  0  -0.317241  -0.553955  0  2.340525  0
O  O87  1  0.52234097  0.55430360  0.38001384  1  -1.163489  0  -0.317149  -0.553148  0  2.339405  0
O  O88  1  0.31901281  0.57134627  0.48972564  1  -1.162366  0  -0.320765  -0.547678  0  2.311358  0
O  O89  1  0.68097600  0.42868150  0.51035279  1  -1.162556  0  -0.320878  -0.547765  0  2.31146  0
O  O90  1  0.31282156  0.42973085  0.50085711  1  -1.165113  0  -0.30889  -0.540159  0  2.399494  0
O  O91  1  0.68719436  0.57027493  0.49907698  1  -1.165382  0  -0.308959  -0.540236  0  2.399733  0
