# generated using pymatgen
data_VCuPH14C16N3O6F
_symmetry_space_group_name_H-M   'P 1'
_cell_length_a   8.54538060
_cell_length_b   11.34716436
_cell_length_c   11.33244597
_cell_angle_alpha   120.04321730
_cell_angle_beta   109.46838344
_cell_angle_gamma   89.99975048
_symmetry_Int_Tables_number   1
_chemical_formula_structural   VCuPH14C16N3O6F
_chemical_formula_sum   'V2 Cu2 P2 H28 C32 N6 O12 F2'
_cell_volume   877.89774225
_cell_formula_units_Z   2
loop_
 _symmetry_equiv_pos_site_id
 _symmetry_equiv_pos_as_xyz
  1  'x, y, z'
loop_
 _atom_site_type_symbol
 _atom_site_label
 _atom_site_symmetry_multiplicity
 _atom_site_fract_x
 _atom_site_fract_y
 _atom_site_fract_z
 _atom_site_occupancy
 _atom_site_hle17_ddec_charge
 _atom_site_hle17_ddec_spin_density
 _atom_site_hle17_ddec_sum_bond_order
 _atom_site_hle17_magmom
 _atom_site_hse06_10hf_ddec_charge
 _atom_site_hse06_10hf_ddec_spin_density
 _atom_site_hse06_10hf_ddec_sum_bond_order
 _atom_site_hse06_10hf_magmom
 _atom_site_hse06_ddec_charge
 _atom_site_hse06_ddec_spin_density
 _atom_site_hse06_ddec_sum_bond_order
 _atom_site_hse06_magmom
 _atom_site_pbe_cm5_charge
 _atom_site_pbe_ddec_charge
 _atom_site_pbe_ddec_spin_density
 _atom_site_pbe_ddec_sum_bond_order
 _atom_site_pbe_magmom
V  V0  1  0.48522705  0.87039320  0.52071203  1  1.987526  -0.003954  2.875271  -0.005  2.036183  -0.000449  3.262716  -0.001  2.131639  -0.00026  3.234843  0.0  1.450748  1.976829  -0.000691  3.274655  -0.001
V  V1  1  0.51477657  0.34968225  0.47929289  1  1.988016  0.003951  2.874525  0.005  2.036183  0.000449  3.262582  0.001  2.131602  0.000263  3.234771  0.0  1.450773  1.976864  0.00069  3.274469  0.001
Cu  Cu2  1  0.87452002  0.02298522  0.26873990  1  0.860209  -0.730368  1.958535  -0.512  0.835196  -0.808474  2.357571  -0.622  0.910433  -0.889972  2.297552  -0.714  0.806376  0.79256  -0.729923  2.396312  -0.546
Cu  Cu3  1  0.12547421  0.75424436  0.73125218  1  0.860218  0.730364  1.958508  0.512  0.835154  0.808473  2.357603  0.622  0.910376  0.88997  2.297581  0.714  0.806377  0.792525  0.729929  2.396315  0.546
P  P4  1  0.28421969  0.06291787  0.39945576  1  1.54917  0.000853  4.78378  0.002  1.426472  -0.003364  5.279379  -0.002  1.487872  -0.003117  5.231686  -0.003  0.355255  1.384454  -0.003336  5.309229  -0.002
P  P5  1  0.71578341  0.66346183  0.60054928  1  1.549329  -0.000855  4.7836  -0.002  1.426593  0.003363  5.279195  0.002  1.48801  0.003117  5.23149  0.003  0.355275  1.38458  0.003336  5.309045  0.002
H  H6  1  0.73046479  0.02497992  0.46036070  1  0.436215  1.4e-05  0.868063  0.0  0.417556  1.7e-05  0.913245  0.0  0.430704  1.4e-05  0.894149  0.0  0.281065  0.40904  1.3e-05  0.925557  0.0
H  H7  1  0.26952675  0.56460896  0.53962890  1  0.436299  -1.4e-05  0.867957  0.0  0.41761  -1.7e-05  0.913168  0.0  0.430758  -1.4e-05  0.894075  0.0  0.281103  0.409102  -1.3e-05  0.92547  0.0
H  H8  1  0.75843156  0.18302317  0.50743537  1  0.422675  1.4e-05  0.887714  0.0  0.394042  1.9e-05  0.950303  0.0  0.406494  2.9e-05  0.931803  0.0  0.269156  0.3854  -8e-06  0.963117  0.0
H  H9  1  0.24156569  0.67557944  0.49255847  1  0.422298  -1.4e-05  0.888199  0.0  0.394014  -1.8e-05  0.950289  0.0  0.406468  -2.9e-05  0.931788  0.0  0.269142  0.385373  8e-06  0.963103  0.0
H  H10  1  0.06454066  0.85390548  0.39484149  1  0.113639  -0.00153  0.959021  -0.003  0.116532  -0.001268  1.024083  -0.002  0.119778  -0.000857  1.020582  -0.001  0.125145  0.113822  -0.001578  1.026988  -0.003
H  H11  1  0.93545435  0.45905735  0.60515343  1  0.113768  0.001531  0.958846  0.003  0.116542  0.001268  1.024046  0.002  0.119789  0.000856  1.020543  0.001  0.125114  0.113832  0.001577  1.026955  0.003
H  H12  1  0.96270030  0.65169877  0.40357828  1  0.127988  -0.000665  0.978538  -0.001  0.134178  -0.000441  1.039984  -0.001  0.137212  -0.000302  1.038632  0.0  0.113645  0.131541  -0.00058  1.041765  -0.001
H  H13  1  0.03730066  0.24811869  0.59642277  1  0.128011  0.000664  0.978543  0.001  0.1342  0.000441  1.039985  0.001  0.137232  0.000302  1.038634  0.0  0.113624  0.131561  0.000579  1.041767  0.001
H  H14  1  0.65489523  0.53751356  0.26662500  1  0.11226  -0.00017  0.914337  0.0  0.127113  8e-06  0.962193  0.0  0.129961  3.2e-05  0.960187  0.0  0.1204  0.124976  -4.3e-05  0.963713  0.0
H  H15  1  0.34510462  0.27089211  0.73337691  1  0.112309  0.000172  0.914274  0.0  0.127108  -8e-06  0.962166  0.0  0.129955  -3.2e-05  0.960158  0.0  0.120393  0.124971  4.3e-05  0.963686  0.0
H  H16  1  0.46626152  0.61249039  0.10507166  1  0.103724  -0.001096  0.963466  -0.001  0.114756  -0.0008  1.022671  -0.001  0.116257  -0.000542  1.023451  -0.001  0.110586  0.113672  -0.001001  1.022446  -0.001
H  H17  1  0.53373140  0.50742489  0.89492841  1  0.103721  0.001096  0.963529  0.001  0.11476  0.0008  1.02271  0.001  0.11626  0.000542  1.023493  0.001  0.110585  0.113659  0.001001  1.022503  0.001
H  H18  1  0.58722522  0.17210323  0.91893533  1  0.132176  -0.000919  0.951787  -0.001  0.14555  -0.000729  1.003276  -0.001  0.149308  -0.000499  1.001063  -0.001  0.114801  0.142924  -0.000903  1.004912  -0.001
H  H19  1  0.41276369  0.25315962  0.08106943  1  0.132165  0.000919  0.951902  0.001  0.145514  0.000729  1.00341  0.001  0.149289  0.000498  1.001174  0.001  0.114754  0.142889  0.000903  1.005046  0.001
H  H20  1  0.81858822  0.37152005  0.01865370  1  0.09509  -0.000146  0.936309  0.0  0.108626  3e-05  0.989867  0.0  0.11068  4.4e-05  0.989212  0.0  0.112141  0.107069  -2e-06  0.990414  0.0
H  H21  1  0.18141373  0.35286555  0.98135152  1  0.095092  0.000146  0.936335  0.0  0.108589  -3e-05  0.989951  0.0  0.110643  -4.4e-05  0.989296  0.0  0.112123  0.107033  2e-06  0.990497  0.0
H  H22  1  0.07438689  0.43862771  0.25005326  1  0.125154  -0.000432  0.930731  0.0  0.135816  -0.000375  0.983921  0.0  0.13963  -0.000269  0.981782  0.0  0.12187  0.132725  -0.00048  0.986029  -0.001
H  H23  1  0.92561530  0.18858107  0.74994707  1  0.125154  0.000432  0.930628  0.0  0.135777  0.000375  0.983879  0.0  0.139642  0.000269  0.981676  0.0  0.121872  0.132682  0.000479  0.98599  0.001
H  H24  1  0.09148492  0.29432046  0.36174345  1  0.111265  -0.001367  0.946425  -0.003  0.115942  -0.001105  1.011538  -0.002  0.119276  -0.000723  1.008254  -0.001  0.129885  0.113078  -0.001422  1.014485  -0.003
H  H25  1  0.90851200  0.93258263  0.63825035  1  0.111295  0.001367  0.946336  0.003  0.115941  0.001105  1.011451  0.002  0.119277  0.000723  1.008166  0.001  0.129869  0.113071  0.001422  1.014417  0.003
H  H26  1  0.29388761  0.03845263  0.18258500  1  0.143483  -1.8e-05  0.951301  0.0  0.158356  -7e-06  1.007691  0.0  0.161219  -1.4e-05  1.007179  0.0  0.103336  0.156928  6e-06  1.007472  0.0
H  H27  1  0.70612011  0.85586377  0.81742284  1  0.143439  1.8e-05  0.951309  0.0  0.158325  7e-06  1.007684  0.0  0.161171  1.4e-05  1.007211  0.0  0.10332  0.156907  -6e-06  1.007455  0.0
H  H28  1  0.40798175  0.92736366  0.23062343  1  0.133095  0.000124  0.95878  0.0  0.144647  7.2e-05  1.022421  0.0  0.146873  5.8e-05  1.02238  0.0  0.10335  0.143617  7.8e-05  1.022107  0.0
H  H29  1  0.59203253  0.69673318  0.76938318  1  0.133053  -0.000124  0.958739  0.0  0.144589  -7.2e-05  1.022383  0.0  0.146821  -5.8e-05  1.022341  0.0  0.103326  0.143566  -7.9e-05  1.022062  0.0
H  H30  1  0.24151913  0.70914746  0.18246757  1  0.100839  -1.5e-05  0.978558  0.0  0.107033  -2.4e-05  1.048791  0.0  0.111634  -1.8e-05  1.044677  0.0  0.096201  0.103472  -2.4e-05  1.052089  0.0
H  H31  1  0.75850646  0.52667898  0.81754719  1  0.100986  1.4e-05  0.978333  0.0  0.106991  2.4e-05  1.048781  0.0  0.111624  1.7e-05  1.044627  0.0  0.096258  0.103408  2.4e-05  1.0521  0.0
H  H32  1  0.00001520  0.50966514  0.00001069  1  0.069579  1e-06  0.965737  0.0  0.084644  0.0  1.022383  0.0  0.087214  -0.0  1.020599  0.0  0.093144  0.082989  -0.0  1.023335  0.0
H  H33  1  0.00000178  0.94682394  0.99999935  1  0.097358  -0.0  0.949536  0.0  0.110884  0.0  1.011325  0.0  0.113884  0.0  1.010745  0.0  0.095671  0.108971  -0.0  1.011851  0.0
C  C34  1  0.93402527  0.79528424  0.32984051  1  0.157053  0.006209  3.608177  0.007  0.127928  0.001035  3.863396  0.002  0.13766  0.001673  3.879388  0.003  0.066698  0.121237  0.000212  3.854036  0.001
C  C35  1  0.06596913  0.46543988  0.67015449  1  0.157108  -0.006227  3.607788  -0.007  0.127914  -0.001033  3.863254  -0.002  0.137645  -0.001673  3.879246  -0.003  0.066719  0.121215  -0.00021  3.853903  -0.001
C  C36  1  0.87612050  0.68315557  0.33447983  1  -0.068184  -0.003232  3.621281  -0.005  -0.084818  -0.001699  3.872234  -0.003  -0.089437  -0.001008  3.889695  -0.002  -0.061735  -0.082187  -0.002593  3.861644  -0.004
C  C37  1  0.12387630  0.34867376  0.66551657  1  -0.068267  0.003256  3.621254  0.005  -0.084932  0.001698  3.87227  0.003  -0.089555  0.001008  3.889738  0.002  -0.061765  -0.0823  0.00259  3.861685  0.004
C  C38  1  0.70589018  0.61782564  0.25562567  1  0.017094  0.003098  3.678327  0.003  -0.003153  0.001101  3.931749  0.001  0.001102  0.001006  3.945979  0.001  -0.054414  -0.005985  0.001252  3.922733  0.001
C  C39  1  0.29410855  0.36220069  0.74437650  1  0.017027  -0.003121  3.678431  -0.003  -0.003111  -0.001101  3.931748  -0.001  0.001146  -0.001007  3.945972  -0.001  -0.054426  -0.005946  -0.001255  3.922729  -0.001
C  C40  1  0.60071474  0.65900790  0.16545882  1  -0.12398  0.001054  3.709524  0.001  -0.146293  7.8e-05  3.962215  0.0  -0.150089  0.000307  3.980717  0.0  -0.071792  -0.145622  -0.000525  3.951015  0.0
C  C41  1  0.39927943  0.49355076  0.83454186  1  -0.124022  -0.001033  3.70967  -0.001  -0.146336  -7.8e-05  3.962268  0.0  -0.150135  -0.000307  3.980768  0.0  -0.071803  -0.145649  0.000529  3.95108  0.0
C  C42  1  0.66942558  0.76439148  0.15648457  1  0.160983  -0.003261  3.767349  -0.003  0.157586  -0.003599  4.013178  -0.004  0.161869  -0.002597  4.035751  -0.003  0.114864  0.155648  -0.004184  3.998834  -0.004
C  C43  1  0.33056606  0.60790586  0.84351308  1  0.160754  0.003243  3.767588  0.003  0.157425  0.003601  4.013334  0.004  0.161716  0.002599  4.035911  0.003  0.114725  0.155487  0.004186  3.998988  0.004
C  C44  1  0.57623296  0.81638023  0.06368798  1  0.144183  0.01873  3.681816  0.02  0.136352  0.008213  3.927893  0.01  0.146154  0.008322  3.939694  0.011  0.143429  0.126757  0.007736  3.923972  0.009
C  C45  1  0.42375851  0.75269215  0.93630846  1  0.144251  -0.018726  3.681841  -0.02  0.136369  -0.008211  3.927923  -0.01  0.146141  -0.008321  3.93975  -0.011  0.143441  0.126762  -0.007735  3.924016  -0.009
C  C46  1  0.58590008  0.01915035  0.04985908  1  0.161709  0.018162  3.644463  0.019  0.152303  0.006952  3.892507  0.009  0.163218  0.007571  3.902153  0.01  0.150548  0.14209  0.0055  3.88973  0.007
C  C47  1  0.41408788  0.96928587  0.95013192  1  0.161805  -0.018161  3.644464  -0.019  0.152303  -0.00695  3.892538  -0.009  0.163211  -0.007569  3.902187  -0.01  0.150598  0.142094  -0.00551  3.88976  -0.007
C  C48  1  0.70966936  0.13956887  0.09728402  1  0.176769  -0.001831  3.740212  -0.002  0.174186  -0.002485  3.985776  -0.003  0.179339  -0.001603  4.006903  -0.002  0.1233  0.171382  -0.002931  3.972685  -0.003
C  C49  1  0.29032383  0.04228156  0.90270937  1  0.176773  0.001828  3.740317  0.002  0.174258  0.002485  3.985825  0.003  0.179411  0.001603  4.006958  0.002  0.123353  0.171453  0.00293  3.972734  0.003
C  C50  1  0.69503816  0.20848634  0.02206801  1  -0.11834  0.000156  3.671894  0.0  -0.136689  -0.000246  3.910728  0.0  -0.140975  -0.000152  3.928693  0.0  -0.068422  -0.134879  -0.000679  3.899425  -0.001
C  C51  1  0.30495797  0.18641378  0.97793100  1  -0.118337  -0.000152  3.672112  0.0  -0.136685  0.000244  3.910925  0.0  -0.140984  0.00015  3.928878  0.0  -0.068383  -0.134878  0.000681  3.899626  0.001
C  C52  1  0.82725090  0.31664044  0.07600220  1  -0.012305  0.004183  3.732726  0.004  -0.031237  0.00169  3.987389  0.001  -0.028806  0.001666  4.007125  0.002  -0.061163  -0.03282  0.001744  3.974767  0.001
C  C53  1  0.17274852  0.24063833  0.92399564  1  -0.012284  -0.004188  3.732801  -0.004  -0.031181  -0.00169  3.987445  -0.001  -0.028752  -0.001664  4.007201  -0.002  -0.061147  -0.032762  -0.001745  3.974824  -0.001
C  C54  1  0.96982592  0.35288351  0.20185828  1  -0.086515  -0.004317  3.670544  -0.006  -0.10148  -0.002304  3.919161  -0.003  -0.107316  -0.001692  3.937924  -0.003  -0.061658  -0.098269  -0.002932  3.907927  -0.004
C  C55  1  0.03017573  0.15102962  0.79814002  1  -0.086519  0.004321  3.670535  0.006  -0.101495  0.002305  3.919122  0.003  -0.107375  0.001692  3.937868  0.003  -0.061675  -0.098287  0.002932  3.907895  0.004
C  C56  1  0.97954126  0.27533823  0.26754253  1  0.160968  0.005465  3.618617  0.006  0.134182  0.000919  3.867678  0.002  0.144664  0.001709  3.882306  0.003  0.069566  0.1267  -2.9e-05  3.859663  0.001
C  C57  1  0.02045581  0.00779828  0.73245471  1  0.160872  -0.005468  3.618605  -0.006  0.134193  -0.00092  3.867564  -0.002  0.144673  -0.001709  3.882207  -0.003  0.06955  0.126703  2.8e-05  3.859555  -0.001
C  C58  1  0.28654554  0.96186278  0.21399787  1  -0.502216  0.001045  3.697394  0.001  -0.522547  0.000448  3.926446  0.0  -0.53358  0.000357  3.93401  0.0  -0.173072  -0.514534  0.000434  3.919739  0.0
C  C59  1  0.71346383  0.74786121  0.78600650  1  -0.502133  -0.001043  3.697277  -0.001  -0.522482  -0.000448  3.926408  0.0  -0.53354  -0.000356  3.934024  0.0  -0.173063  -0.514483  -0.000436  3.919713  0.0
C  C60  1  0.13967452  0.84126369  0.10232575  1  0.146985  8.6e-05  3.795782  0.0  0.163525  7.8e-05  4.044975  0.0  0.165762  9.8e-05  4.07059  0.0  -0.015904  0.161962  4.3e-05  4.027452  0.0
C  C61  1  0.86033786  0.73893815  0.89767831  1  0.14665  -0.000117  3.795809  0.0  0.163241  -7.6e-05  4.044922  0.0  0.165482  -9.8e-05  4.070552  0.0  -0.016002  0.161678  -4.3e-05  4.027399  0.0
C  C62  1  0.13790715  0.71680449  0.10063235  1  -0.137297  -5.3e-05  3.724391  0.0  -0.161832  -8.1e-05  3.981113  0.0  -0.165228  -4.8e-05  4.000328  0.0  -0.103529  -0.159119  -0.000109  3.967418  0.0
C  C63  1  0.86211494  0.61617596  0.89938050  1  -0.136969  8.6e-05  3.724174  0.0  -0.161567  8.1e-05  3.981096  0.0  -0.164983  4.9e-05  4.000302  0.0  -0.103551  -0.158838  0.000112  3.967416  0.0
C  C64  1  0.00000986  0.60583191  0.00000634  1  -0.053282  -1.7e-05  3.807844  0.0  -0.065476  -1e-06  4.062278  0.0  -0.064257  0.0  4.081796  0.0  -0.098656  -0.065467  3e-06  4.047364  0.0
C  C65  1  0.00000501  0.85044970  0.00000015  1  -0.225339  1.6e-05  3.725353  0.0  -0.270602  -0.0  4.018101  0.0  -0.275546  -1e-06  4.034028  0.0  -0.107748  -0.267601  -1e-06  4.007942  0.0
N  N66  1  0.83252400  0.83510370  0.24380277  1  -0.315181  -0.082473  3.303151  -0.101  -0.271706  -0.058273  3.587854  -0.076  -0.303536  -0.04526  3.614486  -0.062  -0.334608  -0.252638  -0.065515  3.571616  -0.082
N  N67  1  0.16746654  0.59130124  0.75619387  1  -0.31491  0.082491  3.303024  0.101  -0.271423  0.058271  3.587696  0.076  -0.30325  0.04526  3.614315  0.062  -0.334399  -0.252358  0.06551  3.57147  0.082
N  N68  1  0.65212926  0.94317550  0.10740017  1  -0.311566  -0.081394  3.371625  -0.1  -0.27909  -0.057582  3.671158  -0.076  -0.301706  -0.049983  3.683308  -0.069  -0.331989  -0.265294  -0.059588  3.667125  -0.075
N  N69  1  0.34786173  0.83577060  0.89259169  1  -0.31164  0.081384  3.371475  0.1  -0.279106  0.057575  3.671032  0.076  -0.301703  0.049977  3.683171  0.069  -0.332067  -0.265309  0.059577  3.666991  0.075
N  N70  1  0.85327275  0.17093479  0.21533281  1  -0.312116  -0.073504  3.26185  -0.09  -0.272042  -0.05621  3.550242  -0.074  -0.300183  -0.04551  3.570054  -0.063  -0.326589  -0.255898  -0.061095  3.539169  -0.077
N  N71  1  0.14672160  0.95559804  0.78465684  1  -0.312053  0.073503  3.261782  0.09  -0.272051  0.056208  3.550179  0.074  -0.30019  0.045511  3.569984  0.063  -0.326603  -0.2559  0.061089  3.5391  0.077
O  O72  1  0.79873144  0.09543462  0.45840734  1  -0.868052  0.001317  1.86275  0.0  -0.829458  0.000775  2.05359  0.0  -0.85261  0.000971  2.014893  0.0  -0.606549  -0.812541  0.000399  2.079231  0.0
O  O73  1  0.20126468  0.63701935  0.54158437  1  -0.868117  -0.001318  1.863159  0.0  -0.829491  -0.000776  2.053546  0.0  -0.852637  -0.000973  2.014812  0.0  -0.60658  -0.812588  -0.000395  2.079174  0.0
O  O74  1  0.11021476  0.10292932  0.38639326  1  -0.810714  -0.079749  2.073882  -0.102  -0.768918  -0.042088  2.385646  -0.058  -0.811319  -0.030991  2.365353  -0.044  -0.386006  -0.737991  -0.049588  2.397252  -0.066
O  O75  1  0.88978415  0.71653854  0.61360583  1  -0.810707  0.079755  2.073923  0.102  -0.768911  0.042091  2.385703  0.058  -0.811312  0.030992  2.365406  0.044  -0.385976  -0.737975  0.049595  2.397292  0.066
O  O76  1  0.31500559  0.97661639  0.47209568  1  -0.881276  -0.005734  2.017249  -0.008  -0.840373  -0.001761  2.291772  -0.003  -0.875588  -0.000682  2.275263  -0.001  -0.42209  -0.816129  -0.003456  2.301673  -0.005
O  O77  1  0.68499637  0.50452012  0.52790312  1  -0.881177  0.005734  2.016864  0.008  -0.840456  0.00176  2.291711  0.003  -0.875667  0.000682  2.275207  0.001  -0.422125  -0.816221  0.003459  2.301603  0.005
O  O78  1  0.61932617  0.91342824  0.46552989  1  -0.814915  0.004017  1.397048  0.005  -0.828188  0.000856  1.654906  0.001  -0.866325  0.000451  1.649308  0.001  -0.602811  -0.804804  0.001641  1.658291  0.002
O  O79  1  0.38067060  0.44789792  0.53446714  1  -0.815073  -0.004016  1.396858  -0.005  -0.828184  -0.000856  1.654837  -0.001  -0.86631  -0.000451  1.649251  -0.001  -0.602805  -0.804819  -0.001635  1.658217  -0.002
O  O80  1  0.42519965  0.19319743  0.48777723  1  -0.873953  -0.027176  2.027998  -0.034  -0.842106  -0.009024  2.310421  -0.013  -0.880154  -0.004644  2.295327  -0.007  -0.419393  -0.814256  -0.014524  2.318245  -0.019
O  O81  1  0.57479851  0.70542600  0.51223641  1  -0.874237  0.02718  2.028379  0.034  -0.842152  0.009025  2.310444  0.013  -0.880205  0.004646  2.295341  0.007  -0.419379  -0.814293  0.014529  2.318265  0.019
O  O82  1  0.54718129  0.96774220  0.70023634  1  -0.778099  0.000198  1.252885  0.0  -0.80489  -0.000233  1.499032  0.0  -0.838916  -0.000157  1.49252  0.0  -0.613045  -0.78339  -0.000393  1.502434  0.0
O  O83  1  0.45282771  0.26749850  0.29976750  1  -0.778231  -0.000196  1.252654  0.0  -0.804879  0.000234  1.498977  0.0  -0.838901  0.000156  1.492486  0.0  -0.613072  -0.783391  0.000391  1.502368  0.0
F  F84  1  0.28423570  0.72696598  0.39644428  1  -0.609577  0.001298  0.826996  0.002  -0.568909  0.000551  0.992945  0.001  -0.593545  0.00022  0.976737  0.0  -0.358743  -0.550912  0.000873  1.002219  0.001
F  F85  1  0.71576513  0.33052488  0.60356175  1  -0.610001  -0.001298  0.826917  -0.002  -0.56893  -0.00055  0.992918  -0.001  -0.593561  -0.000219  0.976723  0.0  -0.358741  -0.55092  -0.000874  1.002169  -0.001
