# generated using pymatgen
data_Cu4H24WC36S4(N9Cl)2
_symmetry_space_group_name_H-M   'P 1'
_cell_length_a   13.99894963
_cell_length_b   20.12226080
_cell_length_c   20.12223292
_cell_angle_alpha   105.67805665
_cell_angle_beta   90.00123998
_cell_angle_gamma   89.99978706
_symmetry_Int_Tables_number   1
_chemical_formula_structural   Cu4H24WC36S4(N9Cl)2
_chemical_formula_sum   'Cu16 H96 W4 C144 S16 N72 Cl8'
_cell_volume   5457.35697692
_cell_formula_units_Z   4
loop_
 _symmetry_equiv_pos_site_id
 _symmetry_equiv_pos_as_xyz
  1  'x, y, z'
loop_
 _atom_site_type_symbol
 _atom_site_label
 _atom_site_symmetry_multiplicity
 _atom_site_fract_x
 _atom_site_fract_y
 _atom_site_fract_z
 _atom_site_occupancy
 _atom_site_pbe_bader_charge
 _atom_site_pbe_bader_spin_density
 _atom_site_pbe_cm5_charge
 _atom_site_pbe_ddec_charge
 _atom_site_pbe_ddec_spin_density
 _atom_site_pbe_ddec_sum_bond_order
 _atom_site_pbe_magmom
Cu  Cu0  1  0.82715272  0.22383534  0.11130173  1  0.582162  0  0.395322  0.368804  0  2.82183  0
Cu  Cu1  1  0.82692142  0.27622570  0.38857341  1  0.581788  0  0.395072  0.36845  0  2.820754  0
Cu  Cu2  1  0.67307906  0.88858281  0.77622321  1  0.581701  0  0.395057  0.36843  0  2.820589  0
Cu  Cu3  1  0.67286634  0.61130960  0.72383763  1  0.581614  0  0.395363  0.368881  0  2.821725  0
Cu  Cu4  1  0.17283668  0.77617291  0.88868997  1  0.581717  0  0.395258  0.368873  0  2.821662  0
Cu  Cu5  1  0.17306441  0.72376919  0.61141883  1  0.581762  0  0.395018  0.368469  0  2.820649  0
Cu  Cu6  1  0.32693606  0.11142254  0.22378116  1  0.581703  0  0.395019  0.368397  0  2.820793  0
Cu  Cu7  1  0.32715734  0.38869160  0.27616369  1  0.58178  0  0.395399  0.368969  0  2.821955  0
Cu  Cu8  1  0.81544438  0.11465705  0.24194245  1  0.61122  0  0.486107  0.32767  0  2.809627  0
Cu  Cu9  1  0.81569732  0.38549130  0.25796085  1  0.611322  0  0.486887  0.328051  0  2.81095  0
Cu  Cu10  1  0.68430216  0.75797875  0.88550309  1  0.61152  0  0.486869  0.328054  0  2.810642  0
Cu  Cu11  1  0.68456282  0.74195119  0.61466150  1  0.611354  0  0.486131  0.327693  0  2.809471  0
Cu  Cu12  1  0.18454573  0.88533741  0.75805515  1  0.610975  0  0.486106  0.327556  0  2.809768  0
Cu  Cu13  1  0.18429350  0.61449983  0.74202049  1  0.611484  0  0.486925  0.328111  0  2.810956  0
Cu  Cu14  1  0.31571438  0.24202454  0.11450075  1  0.611376  0  0.486891  0.328077  0  2.81099  0
Cu  Cu15  1  0.31543873  0.25805867  0.38533458  1  0.611487  0  0.486165  0.327717  0  2.809405  0
H  H16  1  0.83123192  0.26362015  0.98273108  1  0.136919  0  0.107462  0.086424  0  1.030418  0
H  H17  1  0.83111421  0.23650805  0.51725793  1  0.137712  0  0.107612  0.086654  0  1.030655  0
H  H18  1  0.66888583  0.01726934  0.73651016  1  0.137474  0  0.107708  0.086678  0  1.030654  0
H  H19  1  0.66875950  0.48274184  0.76362800  1  0.136132  0  0.107472  0.086472  0  1.030374  0
H  H20  1  0.16875891  0.73638055  0.01727160  1  0.137118  0  0.107521  0.08654  0  1.030188  0
H  H21  1  0.16887733  0.76348689  0.48273781  1  0.137516  0  0.107603  0.086655  0  1.030612  0
H  H22  1  0.33112642  0.98273599  0.26349272  1  0.13746  0  0.107632  0.086679  0  1.030579  0
H  H23  1  0.33123918  0.51727330  0.23637789  1  0.137073  0  0.107501  0.086526  0  1.030289  0
H  H24  1  0.73605392  0.33561847  0.92229969  1  0.126616  0  0.11165  0.11481  0  1.027223  0
H  H25  1  0.73600936  0.16451592  0.57772308  1  0.129322  0  0.111761  0.114599  0  1.027324  0
H  H26  1  0.76399411  0.07772821  0.66451426  1  0.129046  0  0.111745  0.114528  0  1.027326  0
H  H27  1  0.76393408  0.42230550  0.83561886  1  0.126981  0  0.111683  0.114872  0  1.027224  0
H  H28  1  0.26394620  0.66438789  0.07770295  1  0.126704  0  0.111683  0.114879  0  1.027144  0
H  H29  1  0.26398361  0.83547748  0.42227275  1  0.129104  0  0.111782  0.11459  0  1.027368  0
H  H30  1  0.23602101  0.92228023  0.33548991  1  0.129196  0  0.111779  0.11459  0  1.027332  0
H  H31  1  0.23605246  0.57770556  0.16438895  1  0.126642  0  0.111713  0.11494  0  1.027052  0
H  H32  1  0.51850477  0.35096350  0.07879066  1  0.114933  0  0.1031  0.11195  0  1.034683  0
H  H33  1  0.51840307  0.14906248  0.42127947  1  0.114687  0  0.103132  0.111817  0  1.034833  0
H  H34  1  0.98158475  0.92128038  0.64906120  1  0.114753  0  0.103165  0.111856  0  1.034776  0
H  H35  1  0.98149981  0.57879052  0.85097710  1  0.115098  0  0.103122  0.112008  0  1.034743  0
H  H36  1  0.48149034  0.64903560  0.92120763  1  0.114963  0  0.103126  0.111974  0  1.034748  0
H  H37  1  0.48158990  0.85093757  0.57871409  1  0.11449  0  0.103164  0.111813  0  1.034922  0
H  H38  1  0.01841751  0.07871823  0.35093945  1  0.114742  0  0.103166  0.111887  0  1.034768  0
H  H39  1  0.01850674  0.42120154  0.14903231  1  0.115064  0  0.10307  0.11193  0  1.03474  0
H  H40  1  0.62502212  0.28232758  0.13428102  1  0.115836  0  0.108858  0.092994  0  1.000861  0
H  H41  1  0.62484170  0.21767732  0.36572191  1  0.116096  0  0.109069  0.0929  0  1.000869  0
H  H42  1  0.87514915  0.86572913  0.71768348  1  0.116231  0  0.10905  0.0929  0  1.000854  0
H  H43  1  0.87498657  0.63428916  0.78234051  1  0.115876  0  0.108892  0.092938  0  1.000966  0
H  H44  1  0.37496299  0.71766892  0.86571511  1  0.115853  0  0.108891  0.09303  0  1.000894  0
H  H45  1  0.37514985  0.78231919  0.63427522  1  0.116128  0  0.10902  0.092833  0  1.000915  0
H  H46  1  0.12485739  0.13427567  0.28231776  1  0.116165  0  0.109033  0.092897  0  1.000911  0
H  H47  1  0.12503283  0.36571686  0.21767397  1  0.115782  0  0.108876  0.092932  0  1.000991  0
H  H48  1  0.49813200  0.50807723  0.78664991  1  0.161318  0  0.103123  0.11603  0  1.054036  0
H  H49  1  0.49825289  0.99189866  0.71338611  1  0.159666  0  0.103263  0.116262  0  1.053687  0
H  H50  1  0.00174237  0.21338677  0.49189404  1  0.159557  0  0.103258  0.116339  0  1.053581  0
H  H51  1  0.00187509  0.28663726  0.00807037  1  0.161255  0  0.10314  0.116097  0  1.053985  0
H  H52  1  0.50187026  0.49192549  0.21335030  1  0.16141  0  0.103134  0.116037  0  1.054073  0
H  H53  1  0.50173508  0.00810614  0.28661564  1  0.159518  0  0.10326  0.116255  0  1.053539  0
H  H54  1  0.99825560  0.78661687  0.50809895  1  0.15964  0  0.103295  0.116312  0  1.053653  0
H  H55  1  0.99813860  0.71335214  0.99193339  1  0.161193  0  0.103167  0.116092  0  1.05408  0
H  H56  1  0.38998022  0.57111694  0.72941372  1  0.138426  0  0.110995  0.100055  0  1.003519  0
H  H57  1  0.39020488  0.92878129  0.77058365  1  0.134589  0  0.110872  0.09987  0  1.003291  0
H  H58  1  0.10978888  0.27058147  0.42877557  1  0.134948  0  0.110852  0.09983  0  1.003287  0
H  H59  1  0.11003337  0.22940487  0.07111044  1  0.138477  0  0.110964  0.100015  0  1.003406  0
H  H60  1  0.61001847  0.42887537  0.27057736  1  0.137725  0  0.111003  0.100112  0  1.003613  0
H  H61  1  0.60978095  0.07122304  0.22942096  1  0.134949  0  0.110856  0.099811  0  1.003316  0
H  H62  1  0.89021195  0.72942066  0.57121952  1  0.134895  0  0.110869  0.099809  0  1.003278  0
H  H63  1  0.88999531  0.77058240  0.92888730  1  0.138331  0  0.110976  0.10018  0  1.003634  0
H  H64  1  0.16509513  0.55815440  0.86104491  1  0.095125  0  0.110969  0.078332  0  1.028021  0
H  H65  1  0.16522550  0.94178148  0.63902538  1  0.096708  0  0.110959  0.078374  0  1.02779  0
H  H66  1  0.33477529  0.13903544  0.44179561  1  0.095899  0  0.110936  0.078319  0  1.027821  0
H  H67  1  0.33490714  0.36105156  0.05815633  1  0.094962  0  0.110951  0.078304  0  1.028006  0
H  H68  1  0.83490570  0.44184930  0.13895208  1  0.095091  0  0.110986  0.078383  0  1.028004  0
H  H69  1  0.83477247  0.05821141  0.36097033  1  0.096552  0  0.110873  0.078238  0  1.027727  0
H  H70  1  0.66522911  0.86097767  0.55821175  1  0.096725  0  0.11096  0.078291  0  1.027773  0
H  H71  1  0.66509726  0.63896117  0.94185987  1  0.095062  0  0.110954  0.078305  0  1.028063  0
H  H72  1  0.26407344  0.49351177  0.92405593  1  0.11449  0  0.106115  0.106782  0  1.054046  0
H  H73  1  0.26415402  0.00646870  0.57604857  1  0.117369  0  0.10613  0.106437  0  1.054721  0
H  H74  1  0.23584449  0.07606153  0.50648422  1  0.116464  0  0.106096  0.106337  0  1.054872  0
H  H75  1  0.23592659  0.42405614  0.99351133  1  0.113995  0  0.106123  0.106819  0  1.054107  0
H  H76  1  0.73593167  0.50648831  0.07593914  1  0.114036  0  0.106098  0.106775  0  1.054056  0
H  H77  1  0.73583966  0.99352678  0.42394879  1  0.11695  0  0.106114  0.10636  0  1.054781  0
H  H78  1  0.76415919  0.92395417  0.49352429  1  0.116589  0  0.106162  0.106479  0  1.054638  0
H  H79  1  0.76407209  0.57594779  0.00650063  1  0.114646  0  0.10608  0.106706  0  1.05414  0
H  H80  1  0.89905226  0.97208634  0.23732068  1  0.071143  0  0.110354  0.07807  0  0.993943  0
H  H81  1  0.89948359  0.52785481  0.26247304  1  0.071776  0  0.109911  0.077644  0  0.993901  0
H  H82  1  0.60050215  0.76247556  0.02785531  1  0.071881  0  0.109917  0.077638  0  0.994111  0
H  H83  1  0.60095105  0.73733637  0.47209354  1  0.071204  0  0.11032  0.07794  0  0.993971  0
H  H84  1  0.10095214  0.02791475  0.76267364  1  0.071738  0  0.110331  0.077982  0  0.993925  0
H  H85  1  0.10051366  0.47214380  0.73752711  1  0.071741  0  0.109967  0.077695  0  0.993973  0
H  H86  1  0.39949225  0.23752449  0.97213776  1  0.071634  0  0.10992  0.077632  0  0.993931  0
H  H87  1  0.39902906  0.26267738  0.52792192  1  0.071886  0  0.110454  0.077976  0  0.993806  0
H  H88  1  0.04872851  0.90988621  0.18562310  1  0.116657  0  0.110396  0.11716  0  1.003006  0
H  H89  1  0.04915974  0.59003939  0.31421578  1  0.113559  0  0.110282  0.117148  0  1.002772  0
H  H90  1  0.45082673  0.81421289  0.09003443  1  0.113631  0  0.110249  0.117153  0  1.002905  0
H  H91  1  0.45127615  0.68563266  0.40989117  1  0.11553  0  0.110358  0.116999  0  1.003187  0
H  H92  1  0.95127732  0.09011083  0.81437566  1  0.116446  0  0.110362  0.117067  0  1.003148  0
H  H93  1  0.95083394  0.40995466  0.68578917  1  0.113325  0  0.110232  0.117104  0  1.002817  0
H  H94  1  0.54916196  0.18578037  0.90995193  1  0.113477  0  0.110244  0.117111  0  1.002858  0
H  H95  1  0.54870825  0.31437952  0.59012240  1  0.116812  0  0.110301  0.117033  0  1.003185  0
H  H96  1  0.08232784  0.06266427  0.07259666  1  0.132704  0  0.112873  0.126605  0  1.005927  0
H  H97  1  0.08244600  0.43741056  0.42743085  1  0.132334  0  0.112846  0.126426  0  1.00607  0
H  H98  1  0.41755275  0.92743142  0.93740459  1  0.132195  0  0.11283  0.126392  0  1.005942  0
H  H99  1  0.41768576  0.57259321  0.56265746  1  0.132826  0  0.11294  0.126572  0  1.005826  0
H  H100  1  0.91768799  0.93734158  0.92740634  1  0.132709  0  0.112955  0.126625  0  1.005984  0
H  H101  1  0.91754269  0.56258497  0.57257000  1  0.13236  0  0.112841  0.126388  0  1.005954  0
H  H102  1  0.58244022  0.07256133  0.06258214  1  0.132458  0  0.11289  0.126431  0  1.005921  0
H  H103  1  0.58231650  0.42740658  0.43735293  1  0.133004  0  0.112972  0.126643  0  1.005848  0
H  H104  1  0.93270305  0.11760028  0.12665411  1  0.141127  0  0.091748  0.063031  0  1.099882  0
H  H105  1  0.93281624  0.38249417  0.37336112  1  0.142728  0  0.091638  0.062614  0  1.099789  0
H  H106  1  0.56718755  0.87336803  0.88250235  1  0.143101  0  0.0916  0.062512  0  1.099931  0
H  H107  1  0.56730912  0.62664994  0.61759882  1  0.141079  0  0.091831  0.063133  0  1.099844  0
H  H108  1  0.06730706  0.88240410  0.87335399  1  0.141113  0  0.091821  0.063054  0  1.099839  0
H  H109  1  0.06717744  0.61749457  0.62663253  1  0.142843  0  0.09162  0.062543  0  1.100024  0
H  H110  1  0.43281113  0.12663257  0.11749335  1  0.143251  0  0.091634  0.062564  0  1.099944  0
H  H111  1  0.43269956  0.37335131  0.38240649  1  0.141238  0  0.091792  0.063087  0  1.099767  0
W  W112  1  0.82388219  0.25006337  0.24995118  1  1.52576  0  0.828428  0.74147  0  5.809334  0
W  W113  1  0.67611615  0.74996011  0.75006656  1  1.525955  0  0.828401  0.741288  0  5.809708  0
W  W114  1  0.17610721  0.74993099  0.75003993  1  1.526002  0  0.828341  0.741248  0  5.809595  0
W  W115  1  0.32389111  0.25004618  0.24993158  1  1.525477  0  0.828447  0.741402  0  5.809743  0
C  C116  1  0.76202919  0.28529541  0.00224879  1  0.460672  0  0.045493  0.100002  0  3.912199  0
C  C117  1  0.76190662  0.21482108  0.49775875  1  0.467832  0  0.04522  0.099344  0  3.913509  0
C  C118  1  0.73808947  0.99776995  0.71482377  1  0.469507  0  0.045108  0.099331  0  3.913466  0
C  C119  1  0.73796712  0.50225660  0.78530337  1  0.461328  0  0.045561  0.099853  0  3.911977  0
C  C120  1  0.23796236  0.71469904  0.99774881  1  0.460393  0  0.045503  0.099888  0  3.91196  0
C  C121  1  0.23808206  0.78517385  0.50223649  1  0.468166  0  0.045185  0.099327  0  3.913468  0
C  C122  1  0.26192350  0.00223646  0.28518186  1  0.46874  0  0.045146  0.099353  0  3.913815  0
C  C123  1  0.26203800  0.49774986  0.21470575  1  0.460398  0  0.04539  0.099701  0  3.911935  0
C  C124  1  0.70832533  0.32416820  0.96848986  1  0.009953  0  -0.072385  -0.137617  0  3.914108  0
C  C125  1  0.70824664  0.17594101  0.53153344  1  0.000646  0  -0.072232  -0.136981  0  3.914515  0
C  C126  1  0.79175923  0.03154148  0.67594642  1  0.000541  0  -0.07221  -0.136879  0  3.914309  0
C  C127  1  0.79167098  0.46849512  0.82417400  1  0.009994  0  -0.072448  -0.137622  0  3.914175  0
C  C128  1  0.29167622  0.67583193  0.03150919  1  0.009927  0  -0.072449  -0.137679  0  3.914063  0
C  C129  1  0.29174990  0.82405031  0.46846038  1  0.001324  0  -0.072139  -0.136849  0  3.914499  0
C  C130  1  0.20825089  0.96846285  0.32405818  1  0.00051  0  -0.072212  -0.136892  0  3.91458  0
C  C131  1  0.20832628  0.53150877  0.17583546  1  0.010019  0  -0.072399  -0.137604  0  3.914032  0
C  C132  1  0.61871395  0.34873440  0.99547926  1  0.006916  0  0.003473  0.035729  0  4.000085  0
C  C133  1  0.61863886  0.15134194  0.50457931  1  0.006097  0  0.003135  0.03574  0  4.000357  0
C  C134  1  0.88135635  0.00458147  0.65134033  1  0.00548  0  0.003123  0.035745  0  4.000428  0
C  C135  1  0.88128516  0.49548019  0.84873834  1  0.006918  0  0.003616  0.035919  0  4.000062  0
C  C136  1  0.38128473  0.65126521  0.00451866  1  0.006959  0  0.003456  0.035687  0  3.999946  0
C  C137  1  0.38135268  0.84865505  0.49541595  1  0.005237  0  0.003032  0.035648  0  4.000394  0
C  C138  1  0.11865091  0.99542231  0.34866215  1  0.005875  0  0.003028  0.035519  0  4.000527  0
C  C139  1  0.11871638  0.50451751  0.15126953  1  0.007203  0  0.00355  0.035745  0  3.999942  0
C  C140  1  0.58746964  0.33315587  0.05592043  1  -0.073462  0  -0.08049  -0.154316  0  3.956546  0
C  C141  1  0.58735569  0.16690592  0.44413919  1  -0.074199  0  -0.080177  -0.15417  0  3.956328  0
C  C142  1  0.91263409  0.94414123  0.66690887  1  -0.073332  0  -0.080246  -0.15423  0  3.956581  0
C  C143  1  0.91253369  0.55592304  0.83316581  1  -0.074022  0  -0.080613  -0.154563  0  3.956836  0
C  C144  1  0.41252475  0.66684269  0.94407623  1  -0.073341  0  -0.080523  -0.154308  0  3.9566  0
C  C145  1  0.41263586  0.83309212  0.55585734  1  -0.073276  0  -0.080255  -0.154304  0  3.956562  0
C  C146  1  0.08737531  0.05586153  0.33309433  1  -0.073432  0  -0.080211  -0.154147  0  3.956661  0
C  C147  1  0.08746785  0.44407422  0.16684692  1  -0.073684  0  -0.080427  -0.154268  0  3.956546  0
C  C148  1  0.64657309  0.29499612  0.08697023  1  0.516931  0  0.042625  0.094641  0  3.922645  0
C  C149  1  0.64642682  0.20505640  0.41305472  1  0.51621  0  0.042387  0.094618  0  3.922791  0
C  C150  1  0.85356948  0.91306371  0.70506254  1  0.515039  0  0.042521  0.094818  0  3.922993  0
C  C151  1  0.85342944  0.58697635  0.79500791  1  0.517138  0  0.042633  0.094742  0  3.922879  0
C  C152  1  0.35341131  0.70499677  0.91302548  1  0.516557  0  0.042634  0.094645  0  3.922992  0
C  C153  1  0.35356972  0.79493957  0.58694128  1  0.51539  0  0.042538  0.09484  0  3.922837  0
C  C154  1  0.14643849  0.08694060  0.29494056  1  0.515197  0  0.042576  0.094805  0  3.922983  0
C  C155  1  0.14657996  0.41302390  0.20499913  1  0.516802  0  0.042556  0.094752  0  3.922973  0
C  C156  1  0.55934473  0.38960038  0.96127437  1  0.938741  0  0.242252  0.239437  0  3.986068  0
C  C157  1  0.55932989  0.11046649  0.53880313  1  0.938208  0  0.242104  0.238942  0  3.986507  0
C  C158  1  0.94066737  0.03880521  0.61047239  1  0.938187  0  0.242149  0.238859  0  3.986379  0
C  C159  1  0.94065376  0.46127178  0.88960128  1  0.937711  0  0.242234  0.239281  0  3.986261  0
C  C160  1  0.44065967  0.61040707  0.03873203  1  0.938973  0  0.242281  0.239405  0  3.986  0
C  C161  1  0.44066379  0.88952376  0.46118842  1  0.939227  0  0.242276  0.239122  0  3.986219  0
C  C162  1  0.05933703  0.96119236  0.38952749  1  0.939198  0  0.242246  0.239068  0  3.986237  0
C  C163  1  0.05934207  0.53872904  0.11040889  1  0.938952  0  0.242194  0.239197  0  3.986122  0
C  C164  1  0.45230223  0.45807165  0.89794165  1  0.952111  0  0.240359  0.239272  0  3.98608  0
C  C165  1  0.45238205  0.04192566  0.60212365  1  0.945723  0  0.240453  0.239644  0  3.985872  0
C  C166  1  0.04761869  0.10213386  0.54194284  1  0.945798  0  0.240471  0.239592  0  3.986026  0
C  C167  1  0.04769772  0.39793577  0.95806900  1  0.952757  0  0.240246  0.239293  0  3.986232  0
C  C168  1  0.54770145  0.54193470  0.10206099  1  0.951731  0  0.240296  0.239193  0  3.986235  0
C  C169  1  0.54761164  0.95805732  0.39786256  1  0.945231  0  0.240445  0.239638  0  3.985789  0
C  C170  1  0.95238500  0.89786730  0.45805648  1  0.94582  0  0.240437  0.239485  0  3.985982  0
C  C171  1  0.95230525  0.60205986  0.04193835  1  0.953007  0  0.240435  0.239464  0  3.986169  0
C  C172  1  0.39046850  0.49484696  0.86096438  1  -0.053764  0  0.003825  0.03786  0  3.991064  0
C  C173  1  0.39058364  0.00510311  0.63906887  1  -0.016197  0  0.003453  0.03762  0  3.992133  0
C  C174  1  0.10941924  0.13908110  0.50511855  1  -0.049263  0  0.003539  0.037766  0  3.991823  0
C  C175  1  0.10953073  0.36096262  0.99484595  1  -0.054335  0  0.003786  0.037914  0  3.991021  0
C  C176  1  0.60953161  0.50515362  0.13902982  1  -0.053682  0  0.003757  0.037724  0  3.991222  0
C  C177  1  0.60940718  0.99488870  0.36092357  1  -0.048211  0  0.003526  0.03775  0  3.992054  0
C  C178  1  0.89058516  0.86092676  0.49488100  1  -0.048596  0  0.003584  0.037886  0  3.991929  0
C  C179  1  0.89047152  0.63903611  0.00516268  1  -0.055444  0  0.003674  0.037446  0  3.991309  0
C  C180  1  0.42503104  0.51737759  0.80529044  1  0.004199  0  -0.072278  -0.132133  0  3.901306  0
C  C181  1  0.42517716  0.98253972  0.69471192  1  0.016599  0  -0.072022  -0.132033  0  3.901802  0
C  C182  1  0.07482131  0.19471948  0.48255136  1  0.017098  0  -0.072088  -0.132164  0  3.90199  0
C  C183  1  0.07497640  0.30528074  0.01736893  1  0.004345  0  -0.072257  -0.132217  0  3.90099  0
C  C184  1  0.57496978  0.48262301  0.19470526  1  0.004132  0  -0.072366  -0.132102  0  3.901496  0
C  C185  1  0.57481581  0.01745576  0.30528544  1  0.016591  0  -0.072106  -0.13212  0  3.901869  0
C  C186  1  0.92517595  0.80528375  0.51744849  1  0.016832  0  -0.072082  -0.132178  0  3.90216  0
C  C187  1  0.92503728  0.69471121  0.98263300  1  0.004179  0  -0.07236  -0.132038  0  3.901501  0
C  C188  1  0.36416245  0.55303633  0.77263772  1  0.464186  0  0.047789  0.102004  0  3.886493  0
C  C189  1  0.36434520  0.94686930  0.72737303  1  0.454191  0  0.047809  0.102153  0  3.887099  0
C  C190  1  0.13564966  0.22737895  0.44687830  1  0.453618  0  0.047888  0.102153  0  3.887213  0
C  C191  1  0.13584576  0.27263500  0.05303313  1  0.46393  0  0.047801  0.102037  0  3.886373  0
C  C192  1  0.63583624  0.44696531  0.22735923  1  0.464531  0  0.047739  0.101828  0  3.886681  0
C  C193  1  0.63564706  0.05312567  0.27262420  1  0.453538  0  0.047878  0.102275  0  3.887334  0
C  C194  1  0.86434903  0.77262632  0.55312058  1  0.45368  0  0.047858  0.102253  0  3.887554  0
C  C195  1  0.86416936  0.72736631  0.94697617  1  0.464762  0  0.047717  0.10167  0  3.886839  0
C  C196  1  0.23916049  0.54556523  0.84600406  1  0.499041  0  0.036596  0.083929  0  3.937034  0
C  C197  1  0.23930482  0.95434057  0.65405033  1  0.495091  0  0.036801  0.084109  0  3.936205  0
C  C198  1  0.26069704  0.15406534  0.45435832  1  0.496342  0  0.03697  0.084241  0  3.936145  0
C  C199  1  0.26084071  0.34601050  0.04556812  1  0.499343  0  0.036738  0.084165  0  3.93714  0
C  C200  1  0.76083891  0.45443431  0.15398987  1  0.499484  0  0.036661  0.083851  0  3.937219  0
C  C201  1  0.76068957  0.04565129  0.34594561  1  0.495207  0  0.036984  0.084426  0  3.936261  0
C  C202  1  0.73930593  0.84594878  0.54564780  1  0.495664  0  0.036978  0.084531  0  3.936445  0
C  C203  1  0.73916512  0.65399698  0.95444127  1  0.499365  0  0.036747  0.08406  0  3.93727  0
C  C204  1  0.29496875  0.50948911  0.88125250  1  -0.044676  0  -0.081696  -0.152205  0  3.948014  0
C  C205  1  0.29506923  0.99046544  0.61883125  1  -0.077589  0  -0.08174  -0.151884  0  3.94856  0
C  C206  1  0.20493407  0.11884656  0.49048663  1  -0.044411  0  -0.081752  -0.151862  0  3.9485  0
C  C207  1  0.20503387  0.38124896  0.00948317  1  -0.044458  0  -0.081696  -0.152326  0  3.948232  0
C  C208  1  0.70503423  0.49052083  0.11874907  1  -0.044462  0  -0.081594  -0.151997  0  3.947867  0
C  C209  1  0.70492517  0.00952377  0.38115954  1  -0.044943  0  -0.081784  -0.15193  0  3.948852  0
C  C210  1  0.79507247  0.88116344  0.50951893  1  -0.045107  0  -0.08188  -0.152233  0  3.948696  0
C  C211  1  0.79496624  0.61875651  0.99052868  1  -0.044812  0  -0.081601  -0.151898  0  3.94796  0
C  C212  1  0.94199569  0.99020551  0.20041333  1  0.456395  0  0.036854  0.080261  0  3.964163  0
C  C213  1  0.94236732  0.50976739  0.29944195  1  0.442517  0  0.036817  0.079508  0  3.964144  0
C  C214  1  0.55762509  0.79944852  0.00977267  1  0.442603  0  0.036839  0.079612  0  3.96422  0
C  C215  1  0.55801167  0.70042254  0.49021049  1  0.45582  0  0.03689  0.080571  0  3.963986  0
C  C216  1  0.05800871  0.00979772  0.79958651  1  0.455696  0  0.036862  0.080313  0  3.964099  0
C  C217  1  0.05763137  0.49022607  0.70055788  1  0.443676  0  0.036854  0.079621  0  3.96394  0
C  C218  1  0.44237359  0.20055412  0.99022206  1  0.443594  0  0.036876  0.079789  0  3.964049  0
C  C219  1  0.44198416  0.29958916  0.50980544  1  0.455699  0  0.03683  0.080541  0  3.964207  0
C  C220  1  0.02464007  0.95597130  0.17206154  1  -0.042027  0  -0.077912  -0.147996  0  3.944202  0
C  C221  1  0.02499385  0.54399435  0.32780757  1  -0.025864  0  -0.077807  -0.147513  0  3.943392  0
C  C222  1  0.47499148  0.82781194  0.04399451  1  -0.025938  0  -0.077735  -0.147608  0  3.943657  0
C  C223  1  0.47537359  0.67206506  0.45597137  1  -0.04033  0  -0.077924  -0.148043  0  3.944145  0
C  C224  1  0.97536505  0.04402940  0.82794064  1  -0.041694  0  -0.077956  -0.148005  0  3.944307  0
C  C225  1  0.97500197  0.45600019  0.67219552  1  -0.027188  0  -0.077723  -0.147436  0  3.943352  0
C  C226  1  0.52500077  0.17218340  0.95599288  1  -0.026759  0  -0.077812  -0.147642  0  3.94329  0
C  C227  1  0.52462510  0.32793986  0.54403835  1  -0.042428  0  -0.077901  -0.148062  0  3.944312  0
C  C228  1  0.07833918  0.98271428  0.12639554  1  0.116176  0  0.016974  0.064113  0  3.964674  0
C  C229  1  0.07860637  0.51728902  0.37355123  1  0.066761  0  0.016601  0.064062  0  3.963186  0
C  C230  1  0.42139065  0.87355254  0.01728285  1  0.06558  0  0.016582  0.064105  0  3.963166  0
C  C231  1  0.42166709  0.62639423  0.48270696  1  0.115271  0  0.016932  0.064057  0  3.964577  0
C  C232  1  0.92166594  0.01729264  0.87361023  1  0.115518  0  0.01698  0.064118  0  3.964475  0
C  C233  1  0.92139089  0.48270602  0.62645149  1  0.06746  0  0.016591  0.063912  0  3.963627  0
C  C234  1  0.57860304  0.12644231  0.98270690  1  0.06596  0  0.016594  0.064002  0  3.963022  0
C  C235  1  0.57833231  0.37360441  0.51729519  1  0.115237  0  0.017012  0.064152  0  3.964614  0
C  C236  1  0.04397118  0.04115451  0.10896384  1  -0.021949  0  -0.067593  -0.122016  0  3.882521  0
C  C237  1  0.04415262  0.45889560  0.39102587  1  0.026873  0  -0.06745  -0.121939  0  3.882838  0
C  C238  1  0.45584951  0.89103419  0.95889669  1  0.027594  0  -0.067456  -0.12192  0  3.882561  0
C  C239  1  0.45604047  0.60896344  0.54114766  1  -0.021825  0  -0.067536  -0.121698  0  3.882101  0
C  C240  1  0.95603751  0.95885084  0.89104053  1  -0.022026  0  -0.067608  -0.121937  0  3.882422  0
C  C241  1  0.95584535  0.54109677  0.60896970  1  0.026423  0  -0.06752  -0.121869  0  3.882725  0
C  C242  1  0.54414418  0.10896431  0.04109598  1  0.026899  0  -0.067475  -0.121889  0  3.88251  0
C  C243  1  0.54396107  0.39103578  0.45885912  1  -0.021856  0  -0.067621  -0.121895  0  3.882528  0
C  C244  1  0.96061320  0.07195623  0.13941525  1  0.410952  0  0.042412  0.109868  0  3.902758  0
C  C245  1  0.96080600  0.42809277  0.36055202  1  0.413335  0  0.042839  0.110751  0  3.902578  0
C  C246  1  0.53919822  0.86055724  0.92809870  1  0.412841  0  0.042939  0.110889  0  3.902797  0
C  C247  1  0.53939784  0.63941220  0.57195377  1  0.410842  0  0.042295  0.109631  0  3.902462  0
C  C248  1  0.03939334  0.92804812  0.86059035  1  0.411098  0  0.0423  0.109779  0  3.902679  0
C  C249  1  0.03918983  0.57190011  0.63944319  1  0.413632  0  0.042912  0.110807  0  3.902676  0
C  C250  1  0.46080118  0.13944335  0.07189650  1  0.413248  0  0.042878  0.110916  0  3.902573  0
C  C251  1  0.46060371  0.36058546  0.42805211  1  0.410934  0  0.042416  0.109874  0  3.902534  0
C  C252  1  0.16960423  0.95221620  0.09790679  1  0.998599  0  0.245351  0.247095  0  4.002861  0
C  C253  1  0.16986287  0.54779378  0.40207605  1  1.000031  0  0.245761  0.248103  0  4.000481  0
C  C254  1  0.33013491  0.90207857  0.04778689  1  0.999978  0  0.245698  0.248093  0  4.000617  0
C  C255  1  0.33040270  0.59790685  0.45220680  1  0.999554  0  0.24541  0.247175  0  4.002783  0
C  C256  1  0.83040017  0.04778860  0.90209545  1  0.999414  0  0.245456  0.247206  0  4.002739  0
C  C257  1  0.83013725  0.45220491  0.59792959  1  0.999617  0  0.245557  0.248017  0  4.000592  0
C  C258  1  0.66985877  0.09791575  0.95220173  1  1.00062  0  0.245791  0.248243  0  4.000509  0
C  C259  1  0.66959884  0.40208927  0.54779868  1  0.999905  0  0.245599  0.24735  0  4.002769  0
S  S260  1  0.73202149  0.17200365  0.17611131  1  -0.673335  0  -0.405867  -0.449012  0  2.773516  0
S  S261  1  0.73205411  0.32818537  0.32375924  1  -0.672614  0  -0.40569  -0.448447  0  2.772153  0
S  S262  1  0.76794691  0.82376058  0.82817878  1  -0.672565  0  -0.405622  -0.448321  0  2.77236  0
S  S263  1  0.76798274  0.67612032  0.67200845  1  -0.67333  0  -0.405842  -0.448983  0  2.773531  0
S  S264  1  0.26797791  0.82798969  0.82388004  1  -0.673481  0  -0.405819  -0.448978  0  2.773535  0
S  S265  1  0.26793386  0.67181312  0.67623293  1  -0.672621  0  -0.405643  -0.448365  0  2.772413  0
S  S266  1  0.23206820  0.17623332  0.17181569  1  -0.672576  0  -0.405648  -0.448413  0  2.772431  0
S  S267  1  0.23202666  0.32389006  0.32798826  1  -0.673375  0  -0.405979  -0.449234  0  2.773912  0
S  S268  1  0.91583824  0.30423985  0.18913135  1  -0.677203  0  -0.412047  -0.453303  0  2.780373  0
S  S269  1  0.91570922  0.19588872  0.31072336  1  -0.675906  0  -0.41205  -0.452718  0  2.782606  0
S  S270  1  0.58429421  0.81073537  0.69589061  1  -0.676262  0  -0.412095  -0.452749  0  2.782714  0
S  S271  1  0.58416002  0.68914066  0.80424254  1  -0.677071  0  -0.411933  -0.453209  0  2.780087  0
S  S272  1  0.08415259  0.69575713  0.81086292  1  -0.677087  0  -0.412015  -0.453304  0  2.780209  0
S  S273  1  0.08428232  0.80410926  0.68926918  1  -0.675965  0  -0.41208  -0.452728  0  2.782595  0
S  S274  1  0.41572090  0.18928069  0.30410756  1  -0.676071  0  -0.412101  -0.452682  0  2.782598  0
S  S275  1  0.41584724  0.31086410  0.19575670  1  -0.676841  0  -0.41206  -0.453344  0  2.780474  0
N  N276  1  0.73254349  0.27129188  0.06079173  1  -1.234597  0  -0.346583  -0.20088  0  3.597782  0
N  N277  1  0.73238004  0.22880558  0.43921439  1  -1.233695  0  -0.346553  -0.200642  0  3.598136  0
N  N278  1  0.76761548  0.93922475  0.72880679  1  -1.23413  0  -0.346661  -0.200813  0  3.598333  0
N  N279  1  0.76746125  0.56080101  0.77130326  1  -1.234621  0  -0.346675  -0.200788  0  3.597661  0
N  N280  1  0.26744591  0.72870205  0.93920474  1  -1.234185  0  -0.3466  -0.200947  0  3.597786  0
N  N281  1  0.26761222  0.77119556  0.56078343  1  -1.234022  0  -0.34665  -0.2008  0  3.59821  0
N  N282  1  0.23240035  0.06078119  0.27120270  1  -1.234454  0  -0.346666  -0.2009  0  3.598448  0
N  N283  1  0.23254886  0.43920240  0.22870856  1  -1.234648  0  -0.346582  -0.200857  0  3.597461  0
N  N284  1  0.59761472  0.40931557  0.90749844  1  -0.545308  0  -0.140428  -0.129337  0  3.204931  0
N  N285  1  0.59763493  0.09079162  0.59259403  1  -0.546042  0  -0.140449  -0.128968  0  3.204456  0
N  N286  1  0.90236420  0.09259457  0.59079296  1  -0.546218  0  -0.140446  -0.128834  0  3.204423  0
N  N287  1  0.90238618  0.40749161  0.90931025  1  -0.544253  0  -0.14042  -0.12922  0  3.204924  0
N  N288  1  0.40239254  0.59069758  0.09251141  1  -0.545626  0  -0.140405  -0.129126  0  3.204889  0
N  N289  1  0.40235804  0.90919811  0.40739689  1  -0.546172  0  -0.140528  -0.129064  0  3.204424  0
N  N290  1  0.09764163  0.90739983  0.40920115  1  -0.546107  0  -0.14051  -0.128985  0  3.204277  0
N  N291  1  0.09761465  0.59250455  0.09069822  1  -0.54568  0  -0.140407  -0.128972  0  3.205093  0
N  N292  1  0.54328662  0.44359660  0.87513422  1  -0.517001  0  -0.139483  -0.123025  0  3.192255  0
N  N293  1  0.54334703  0.05647814  0.62495298  1  -0.515736  0  -0.139011  -0.122892  0  3.191385  0
N  N294  1  0.95665208  0.12495975  0.55648623  1  -0.515607  0  -0.13898  -0.122968  0  3.191406  0
N  N295  1  0.95671145  0.37512970  0.94359588  1  -0.517064  0  -0.139607  -0.123232  0  3.192255  0
N  N296  1  0.45671707  0.55641028  0.12486905  1  -0.516776  0  -0.13955  -0.123156  0  3.19236  0
N  N297  1  0.45664523  0.94350948  0.37503392  1  -0.515871  0  -0.139055  -0.12294  0  3.191238  0
N  N298  1  0.04334804  0.87503361  0.44350662  1  -0.515803  0  -0.139054  -0.122905  0  3.191242  0
N  N299  1  0.04329009  0.62486444  0.05641506  1  -0.516861  0  -0.139571  -0.123282  0  3.192571  0
N  N300  1  0.47032481  0.40723373  0.98625133  1  -0.56118  0  -0.151788  -0.147955  0  3.235501  0
N  N301  1  0.47032360  0.09278382  0.51382742  1  -0.55925  0  -0.151991  -0.148213  0  3.236434  0
N  N302  1  0.02967379  0.01383124  0.59278785  1  -0.559208  0  -0.152116  -0.148352  0  3.236246  0
N  N303  1  0.02967492  0.48624571  0.90723102  1  -0.561029  0  -0.151726  -0.147799  0  3.235772  0
N  N304  1  0.52968031  0.59278042  0.01375678  1  -0.561249  0  -0.151832  -0.147935  0  3.235941  0
N  N305  1  0.52967223  0.90720176  0.48616144  1  -0.558879  0  -0.151998  -0.148201  0  3.236544  0
N  N306  1  0.97032918  0.98616721  0.40720132  1  -0.559159  0  -0.151954  -0.148143  0  3.236452  0
N  N307  1  0.97032162  0.51375304  0.09277812  1  -0.561237  0  -0.151905  -0.148008  0  3.235974  0
N  N308  1  0.41620458  0.44248550  0.95437306  1  -0.581268  0  -0.153609  -0.146085  0  3.230877  0
N  N309  1  0.41624785  0.05751925  0.54570795  1  -0.582177  0  -0.153523  -0.146095  0  3.231904  0
N  N310  1  0.08375093  0.04571485  0.55752716  1  -0.582111  0  -0.153507  -0.145971  0  3.231833  0
N  N311  1  0.08379662  0.45436600  0.94247873  1  -0.581302  0  -0.153493  -0.146114  0  3.230995  0
N  N312  1  0.58380339  0.55753071  0.04563509  1  -0.580824  0  -0.153432  -0.146034  0  3.231057  0
N  N313  1  0.58374440  0.94246477  0.45427952  1  -0.582473  0  -0.153466  -0.146045  0  3.231945  0
N  N314  1  0.91625633  0.95428413  0.44246315  1  -0.582518  0  -0.15354  -0.146101  0  3.232014  0
N  N315  1  0.91620064  0.54563114  0.05752602  1  -0.581171  0  -0.153438  -0.146042  0  3.231028  0
N  N316  1  0.27240296  0.56730133  0.79228495  1  -1.220296  0  -0.357616  -0.201196  0  3.641191  0
N  N317  1  0.27258020  0.93259132  0.70775023  1  -1.216458  0  -0.357423  -0.201421  0  3.64118  0
N  N318  1  0.22741493  0.20775480  0.43259766  1  -1.21662  0  -0.357528  -0.20137  0  3.640971  0
N  N319  1  0.22760425  0.29228457  0.06729600  1  -1.22031  0  -0.357715  -0.201315  0  3.641371  0
N  N320  1  0.72759858  0.43270440  0.20771007  1  -1.220437  0  -0.357603  -0.201061  0  3.641487  0
N  N321  1  0.72740920  0.06740521  0.29224889  1  -1.215899  0  -0.357443  -0.201615  0  3.641264  0
N  N322  1  0.77258661  0.79225563  0.56740204  1  -1.216787  0  -0.357579  -0.201589  0  3.641612  0
N  N323  1  0.77240729  0.70772134  0.93271149  1  -1.220276  0  -0.35761  -0.201172  0  3.641476  0
N  N324  1  0.91100083  0.04807795  0.18559255  1  -1.239319  0  -0.360299  -0.200813  0  3.623699  0
N  N325  1  0.91127950  0.45194348  0.31431811  1  -1.239775  0  -0.360423  -0.200651  0  3.624948  0
N  N326  1  0.58871943  0.81432779  0.95195241  1  -1.239796  0  -0.360491  -0.200691  0  3.625015  0
N  N327  1  0.58900478  0.68560024  0.54808183  1  -1.239212  0  -0.360351  -0.20095  0  3.623538  0
N  N328  1  0.08899500  0.95192319  0.81440478  1  -1.239222  0  -0.360255  -0.200717  0  3.623587  0
N  N329  1  0.08872204  0.54804675  0.68567244  1  -1.239692  0  -0.360525  -0.200754  0  3.624908  0
N  N330  1  0.41127854  0.18567480  0.04803882  1  -1.239751  0  -0.360535  -0.200916  0  3.625079  0
N  N331  1  0.41099676  0.31440370  0.45193112  1  -1.239291  0  -0.360437  -0.201115  0  3.623842  0
N  N332  1  0.20852932  0.97701479  0.04772531  1  -0.501704  0  -0.141673  -0.125086  0  3.228932  0
N  N333  1  0.20875005  0.52296470  0.45224739  1  -0.533112  0  -0.141417  -0.125083  0  3.227975  0
N  N334  1  0.29124592  0.95224832  0.02296134  1  -0.532511  0  -0.141403  -0.125108  0  3.228393  0
N  N335  1  0.29147229  0.54772646  0.47700809  1  -0.501579  0  -0.141671  -0.125086  0  3.228818  0
N  N336  1  0.79146365  0.02298168  0.95226882  1  -0.501575  0  -0.141788  -0.125125  0  3.228941  0
N  N337  1  0.79124649  0.47702834  0.54775829  1  -0.532777  0  -0.141227  -0.1248  0  3.227767  0
N  N338  1  0.70874491  0.04774553  0.97703014  1  -0.533139  0  -0.141444  -0.12522  0  3.228329  0
N  N339  1  0.70852997  0.45226450  0.52299656  1  -0.5018  0  -0.141833  -0.125293  0  3.22885  0
N  N340  1  0.20908543  0.90340605  0.12374740  1  -0.564344  0  -0.156633  -0.149732  0  3.238956  0
N  N341  1  0.20939331  0.59658322  0.37622633  1  -0.58997  0  -0.156896  -0.150646  0  3.238034  0
N  N342  1  0.29060619  0.87623048  0.09657803  1  -0.589902  0  -0.156866  -0.150581  0  3.238001  0
N  N343  1  0.29091550  0.62375320  0.40340211  1  -0.564749  0  -0.156686  -0.149739  0  3.239004  0
N  N344  1  0.79091469  0.09659197  0.87624813  1  -0.56474  0  -0.156649  -0.149787  0  3.238989  0
N  N345  1  0.79060609  0.40341444  0.62377855  1  -0.590207  0  -0.15695  -0.150805  0  3.238082  0
N  N346  1  0.70939250  0.12376442  0.90341471  1  -0.590376  0  -0.156899  -0.150606  0  3.238118  0
N  N347  1  0.70907890  0.37624501  0.59660589  1  -0.564961  0  -0.156677  -0.14973  0  3.239064  0
Cl  Cl348  1  0.92637402  0.16852999  0.02410872  1  -0.679243  0  -0.369433  -0.521486  0  1.22915  0
Cl  Cl349  1  0.92614787  0.33150725  0.47579332  1  -0.679591  0  -0.369659  -0.521785  0  1.228763  0
Cl  Cl350  1  0.57383945  0.97580369  0.83150566  1  -0.679397  0  -0.369623  -0.521723  0  1.228533  0
Cl  Cl351  1  0.57364392  0.52412543  0.66853208  1  -0.678991  0  -0.369514  -0.521588  0  1.229215  0
Cl  Cl352  1  0.07362681  0.83146959  0.97588770  1  -0.679262  0  -0.369421  -0.521488  0  1.229263  0
Cl  Cl353  1  0.07383296  0.66848966  0.52419646  1  -0.679471  0  -0.369641  -0.52173  0  1.228587  0
Cl  Cl354  1  0.42615423  0.02419630  0.16848342  1  -0.679441  0  -0.369658  -0.521765  0  1.22856  0
Cl  Cl355  1  0.42637691  0.47588140  0.33146720  1  -0.67915  0  -0.369453  -0.521523  0  1.229228  0
