# generated using pymatgen
data_HoH22C19N6O13
_symmetry_space_group_name_H-M   'P 1'
_cell_length_a   8.24237173
_cell_length_b   10.05764796
_cell_length_c   15.44100000
_cell_angle_alpha   92.84255045
_cell_angle_beta   92.31046923
_cell_angle_gamma   102.97518359
_symmetry_Int_Tables_number   1
_chemical_formula_structural   HoH22C19N6O13
_chemical_formula_sum   'Ho2 H44 C38 N12 O26'
_cell_volume   1244.08206119
_cell_formula_units_Z   2
loop_
 _symmetry_equiv_pos_site_id
 _symmetry_equiv_pos_as_xyz
  1  'x, y, z'
loop_
 _atom_site_type_symbol
 _atom_site_label
 _atom_site_symmetry_multiplicity
 _atom_site_fract_x
 _atom_site_fract_y
 _atom_site_fract_z
 _atom_site_occupancy
 _atom_site_hle17_bader_spin_density
 _atom_site_hle17_ddec_charge
 _atom_site_hle17_ddec_spin_density
 _atom_site_hle17_ddec_sum_bond_order
 _atom_site_hle17_magmom
 _atom_site_hse06_10hf_bader_spin_density
 _atom_site_hse06_10hf_ddec_charge
 _atom_site_hse06_10hf_ddec_spin_density
 _atom_site_hse06_10hf_ddec_sum_bond_order
 _atom_site_hse06_10hf_magmom
 _atom_site_hse06_bader_spin_density
 _atom_site_hse06_ddec_charge
 _atom_site_hse06_ddec_spin_density
 _atom_site_hse06_ddec_sum_bond_order
 _atom_site_hse06_magmom
 _atom_site_pbe_bader_charge
 _atom_site_pbe_bader_spin_density
 _atom_site_pbe_cm5_charge
 _atom_site_pbe_ddec_charge
 _atom_site_pbe_ddec_spin_density
 _atom_site_pbe_ddec_sum_bond_order
 _atom_site_pbe_magmom
Ho  Ho0  1  0.04929614  0.14820520  0.28772303  1  0  2.130734  0  1.729595  0  0  1.965552  0  2.239609  0  0  2.02228  0  2.191961  0  2.147434  0  1.552807  1.922668  0  2.276516  0
Ho  Ho1  1  0.95070171  0.85179402  0.71227884  1  0  2.130766  0  1.729598  0  0  1.965578  0  2.239614  0  0  2.02231  0  2.191959  0  2.147361  0  1.552794  1.922692  0  2.276524  0
H  H2  1  0.68338255  0.05788272  0.25700401  1  0  0.402258  0  0.905239  0  0  0.374612  0  0.969746  0  0  0.386225  0  0.95318  0  0.669856  0  0.303662  0.366473  0  0.981331  0
H  H3  1  0.31661587  0.94211854  0.74299665  1  0  0.402235  0  0.905266  0  0  0.374599  0  0.969764  0  0  0.386212  0  0.953198  0  0.669849  0  0.303653  0.366459  0  0.981348  0
H  H4  1  0.76757168  0.13414109  0.43981798  1  0  0.085869  0  0.973716  0  0  0.097924  0  1.046961  0  0  0.098925  0  1.046319  0  0.10201  0  0.099432  0.097231  0  1.047279  0
H  H5  1  0.23242468  0.86585711  0.56018318  1  0  0.085828  0  0.973708  0  0  0.097909  0  1.046936  0  0  0.098911  0  1.046293  0  0.101994  0  0.099431  0.097215  0  1.047255  0
H  H6  1  0.58988731  0.16816010  0.38127227  1  0  0.07645  0  0.937552  0  0  0.094067  0  1.00165  0  0  0.094754  0  1.001167  0  0.036909  0  0.093795  0.093586  0  1.001806  0
H  H7  1  0.41010904  0.83183809  0.61872824  1  0  0.076439  0  0.937565  0  0  0.094069  0  1.001648  0  0  0.094756  0  1.001166  0  0.036923  0  0.093791  0.09359  0  1.001801  0
H  H8  1  0.60527185  0.99571733  0.39542914  1  0  0.072108  0  0.934754  0  0  0.09098  0  0.998956  0  0  0.091631  0  0.998203  0  0.069384  0  0.093624  0.090568  0  0.999292  0
H  H9  1  0.39472451  0.00428087  0.60457138  1  0  0.072094  0  0.934801  0  0  0.090966  0  0.999003  0  0  0.091619  0  0.99825  0  0.069456  0  0.093623  0.090553  0  0.99934  0
H  H10  1  0.35633098  0.17814471  0.45716649  1  0  0.127153  0  0.9762  0  0  0.134883  0  1.03864  0  0  0.138624  0  1.037847  0  0.118441  0  0.114124  0.13228  0  1.039243  0
H  H11  1  0.64366004  0.82184735  0.54283889  1  0  0.127104  0  0.976203  0  0  0.134827  0  1.038673  0  0  0.138571  0  1.037875  0  0.116973  0  0.114064  0.132206  0  1.039294  0
H  H12  1  0.56018636  0.28912024  0.57763407  1  0  0.100034  0  0.937756  0  0  0.112658  0  0.993457  0  0  0.11545  0  0.99062  0  0.097927  0  0.109864  0.110524  0  0.995527  0
H  H13  1  0.43980579  0.71087591  0.42236887  1  0  0.10005  0  0.937776  0  0  0.112653  0  0.993501  0  0  0.115444  0  0.990665  0  0.097853  0  0.109903  0.11052  0  0.995568  0
H  H14  1  0.48987488  0.47595856  0.67580560  1  0  0.118893  0  0.975662  0  0  0.123714  0  1.042075  0  0  0.127863  0  1.040117  0  0.110783  0  0.105621  0.120692  0  1.043633  0
H  H15  1  0.51011548  0.52403555  0.32419724  1  0  0.118889  0  0.975707  0  0  0.123704  0  1.04212  0  0  0.127849  0  1.040168  0  0.110736  0  0.105619  0.120681  0  1.043678  0
H  H16  1  0.21249899  0.53337619  0.65159670  1  0  0.109092  0  0.939393  0  0  0.117669  0  1.001573  0  0  0.120775  0  0.998723  0  0.162154  0  0.130379  0.11544  0  1.003413  0
H  H17  1  0.78749137  0.46661792  0.34840420  1  0  0.109092  0  0.9394  0  0  0.117678  0  1.001569  0  0  0.120806  0  0.998691  0  0.162163  0  0.130389  0.115424  0  1.003437  0
H  H18  1  0.95092080  0.47494660  0.59421013  1  0  0.101476  0  0.918037  0  0  0.11743  0  0.977136  0  0  0.118687  0  0.976054  0  0.108673  0  0.121756  0.116284  0  0.978333  0
H  H19  1  0.04907284  0.52505057  0.40578964  1  0  0.101407  0  0.918122  0  0  0.117371  0  0.97719  0  0  0.118628  0  0.976109  0  0.108661  0  0.121741  0.116225  0  0.978388  0
H  H20  1  0.89229788  0.35387403  0.50329326  1  0  0.096578  0  0.942643  0  0  0.108025  0  1.010152  0  0  0.109615  0  1.008781  0  0.118437  0  0.119217  0.106838  0  1.011041  0
H  H21  1  0.10769520  0.64612110  0.49670514  1  0  0.096581  0  0.942653  0  0  0.108017  0  1.010148  0  0  0.109604  0  1.008776  0  0.118511  0  0.119253  0.106831  0  1.011038  0
H  H22  1  0.77449278  0.77627469  0.25939115  1  0  0.132138  0  0.947573  0  0  0.140662  0  1.007414  0  0  0.144047  0  1.007606  0  0.108858  0  0.1141  0.138233  0  1.007633  0
H  H23  1  0.22550564  0.22372658  0.74060627  1  0  0.132152  0  0.9475  0  0  0.140685  0  1.007333  0  0  0.144073  0  1.007518  0  0.108803  0  0.114106  0.138257  0  1.007551  0
H  H24  1  0.60476662  0.57009988  0.17359604  1  0  0.095023  0  0.955519  0  0  0.104128  0  1.019935  0  0  0.106422  0  1.017673  0  0.125991  0  0.106673  0.10239  0  1.021478  0
H  H25  1  0.39523665  0.42990138  0.82640018  1  0  0.095036  0  0.9555  0  0  0.104129  0  1.019946  0  0  0.106425  0  1.017683  0  0.126308  0  0.106669  0.10239  0  1.021494  0
H  H26  1  0.63983655  0.54506885  0.01255520  1  0  0.102026  0  0.966636  0  0  0.112736  0  1.027394  0  0  0.114947  0  1.028644  0  0.07965  0  0.105653  0.111214  0  1.026593  0
H  H27  1  0.36016952  0.45492934  0.98744163  1  0  0.101931  0  0.96671  0  0  0.112665  0  1.027445  0  0  0.114874  0  1.028697  0  0.079517  0  0.105654  0.111147  0  1.026635  0
H  H28  1  0.84692471  0.72682082  0.94464935  1  0  0.103357  0  0.961508  0  0  0.1112  0  1.025315  0  0  0.114041  0  1.022758  0  0.135285  0  0.126492  0.109096  0  1.027241  0
H  H29  1  0.15308314  0.27317942  0.05534824  1  0  0.103419  0  0.961461  0  0  0.111267  0  1.025258  0  0  0.11411  0  1.022693  0  0.135335  0  0.126533  0.109162  0  1.027184  0
H  H30  1  0.08561411  0.88884481  0.96460275  1  0  0.099386  0  0.952723  0  0  0.111286  0  1.020057  0  0  0.112954  0  1.018415  0  0.103015  0  0.117784  0.110039  0  1.021319  0
H  H31  1  0.91439103  0.11115441  0.03539539  1  0  0.099334  0  0.952726  0  0  0.111342  0  1.019948  0  0  0.113009  0  1.018307  0  0.103085  0  0.117777  0.110104  0  1.021221  0
H  H32  1  0.13922455  0.98812052  0.06626327  1  0  0.105327  0  0.93124  0  0  0.118075  0  0.993588  0  0  0.119843  0  0.992525  0  0.119533  0  0.121577  0.116721  0  0.994454  0
H  H33  1  0.86078208  0.01187972  0.93373558  1  0  0.105405  0  0.93119  0  0  0.118095  0  0.993615  0  0  0.119864  0  0.992553  0  0.119327  0  0.121587  0.116752  0  0.994487  0
H  H34  1  0.37921412  0.83307901  0.28200931  1  0  0.124548  0  0.972424  0  0  0.130065  0  1.039229  0  0  0.134045  0  1.037694  0  0.095901  0  0.107376  0.12719  0  1.040608  0
H  H35  1  0.62078357  0.16692838  0.71798894  1  0  0.124526  0  0.972419  0  0  0.130024  0  1.03925  0  0  0.134005  0  1.037713  0  0.095919  0  0.107355  0.127153  0  1.04062  0
H  H36  1  0.16162723  0.62806846  0.22756367  1  0  0.100679  0  0.935326  0  0  0.110701  0  0.995164  0  0  0.114014  0  0.991799  0  0.093152  0  0.106743  0.1082  0  0.997687  0
H  H37  1  0.83837261  0.37193791  0.77243459  1  0  0.100647  0  0.935282  0  0  0.110659  0  0.995149  0  0  0.113971  0  0.991786  0  0.093055  0  0.106732  0.108159  0  0.997674  0
H  H38  1  0.11910246  0.56770084  0.06666864  1  0  0.108785  0  0.968895  0  0  0.116751  0  1.034037  0  0  0.119556  0  1.034545  0  0.094858  0  0.103436  0.114738  0  1.033901  0
H  H39  1  0.88090203  0.43230043  0.93333085  1  0  0.108762  0  0.968859  0  0  0.116708  0  1.034026  0  0  0.119511  0  1.034537  0  0.094816  0  0.103413  0.114698  0  1.033885  0
H  H40  1  0.29985899  0.71596941  0.96602978  1  0  0.10517  0  0.946455  0  0  0.110039  0  1.016794  0  0  0.113898  0  1.012034  0  0.141287  0  0.125749  0.107207  0  1.020253  0
H  H41  1  0.70014494  0.28402981  0.03396833  1  0  0.105148  0  0.946489  0  0  0.110032  0  1.016822  0  0  0.113895  0  1.012054  0  0.141329  0  0.125718  0.107196  0  1.020291  0
H  H42  1  0.52475137  0.87545124  0.94390064  1  0  0.097823  0  0.935963  0  0  0.106375  0  1.00872  0  0  0.10855  0  1.006245  0  0.127079  0  0.116075  0.104655  0  1.010686  0
H  H43  1  0.47525348  0.12454695  0.05609681  1  0  0.097716  0  0.936148  0  0  0.106387  0  1.008764  0  0  0.108556  0  1.006291  0  0.126732  0  0.116088  0.104649  0  1.010748  0
H  H44  1  0.65826923  0.96104003  0.03408364  1  0  0.079336  0  0.960009  0  0  0.090452  0  1.031058  0  0  0.091297  0  1.031004  0  0.084054  0  0.112449  0.089693  0  1.031286  0
H  H45  1  0.34173470  0.03895919  0.96591383  1  0  0.07934  0  0.960017  0  0  0.090455  0  1.031064  0  0  0.091301  0  1.031004  0  0.084158  0  0.112464  0.089694  0  1.031293  0
C  C46  1  0.67646199  0.09963552  0.38527391  1  0  0.002507  0  3.637959  0  0  -0.088432  0  3.903673  0  0  -0.081346  0  3.906682  0  0.346855  0  -0.147776  -0.093117  0  3.90109  0
C  C47  1  0.32353437  0.90036268  0.61472660  1  0  0.00254  0  3.638074  0  0  -0.088428  0  3.903769  0  0  -0.081341  0  3.906772  0  0.34682  0  -0.14778  -0.093112  0  3.901185  0
C  C48  1  0.17635272  0.29543217  0.48668891  1  0  0.535454  0  3.795935  0  0  0.49775  0  4.06491  0  0  0.525659  0  4.067592  0  1.190222  0  0.23309  0.478966  0  4.062693  0
C  C49  1  0.82363829  0.70455989  0.51331453  1  0  0.535468  0  3.796079  0  0  0.497851  0  4.064949  0  0  0.525749  0  4.067641  0  1.190309  0  0.233088  0.479074  0  4.062722  0
C  C50  1  0.33046436  0.25700247  0.50178064  1  0  -0.2353  0  3.695337  0  0  -0.255244  0  3.952554  0  0  -0.268128  0  3.970719  0  -0.018779  0  -0.090971  -0.247344  0  3.940354  0
C  C51  1  0.66952693  0.74299061  0.49822348  1  0  -0.235286  0  3.695467  0  0  -0.255256  0  3.952676  0  0  -0.268141  0  3.970846  0  -0.017364  0  -0.091004  -0.247343  0  3.940487  0
C  C52  1  0.44180629  0.31942059  0.56828086  1  0  0.020547  0  3.746367  0  0  -0.000326  0  3.999844  0  0  0.007799  0  4.016354  0  -0.026793  0  -0.066106  -0.005076  0  3.988118  0
C  C53  1  0.55818651  0.68057352  0.43172139  1  0  0.020572  0  3.7465  0  0  -0.000297  0  3.999992  0  0  0.007827  0  4.016502  0  -0.026615  0  -0.066081  -0.005048  0  3.988264  0
C  C54  1  0.40323732  0.42186299  0.62415610  1  0  -0.147476  0  3.779002  0  0  -0.165625  0  4.045775  0  0  -0.175818  0  4.06779  0  0.103043  0  -0.099205  -0.158958  0  4.03066  0
C  C55  1  0.59675361  0.57813316  0.37584746  1  0  -0.147459  0  3.779265  0  0  -0.165573  0  4.046019  0  0  -0.175765  0  4.06804  0  0.102872  0  -0.09919  -0.158906  0  4.0309  0
C  C56  1  0.25314248  0.45682855  0.61074153  1  0  0.08869  0  3.637441  0  0  0.046317  0  3.89139  0  0  0.055865  0  3.907229  0  0.269903  0  0.049043  0.040425  0  3.880062  0
C  C57  1  0.74684667  0.54316556  0.38925935  1  0  0.088675  0  3.637695  0  0  0.046273  0  3.891684  0  0  0.055805  0  3.907513  0  0.269963  0  0.049007  0.040404  0  3.880353  0
C  C58  1  0.98728907  0.44144379  0.53070805  1  0  -0.023442  0  3.592328  0  0  -0.093447  0  3.860861  0  0  -0.088983  0  3.869526  0  0.279403  0  -0.05386  -0.096431  0  3.855379  0
C  C59  1  0.01270430  0.55855237  0.46929168  1  0  -0.023368  0  3.592386  0  0  -0.093272  0  3.860825  0  0  -0.088804  0  3.86949  0  0.252872  0  -0.053866  -0.096259  0  3.855348  0
C  C60  1  0.89943654  0.86362059  0.14964003  1  0  0.538519  0  3.811788  0  0  0.499409  0  4.082873  0  0  0.527547  0  4.085752  0  1.216554  0  0.233124  0.480979  0  4.079948  0
C  C61  1  0.10056795  0.13638067  0.85036011  1  0  0.538475  0  3.811857  0  0  0.499449  0  4.082815  0  0  0.527584  0  4.085696  0  1.216849  0  0.23317  0.481018  0  4.079889  0
C  C62  1  0.78444941  0.76098192  0.18971825  1  0  -0.242134  0  3.688282  0  0  -0.261628  0  3.948314  0  0  -0.27533  0  3.966732  0  -0.04157  0  -0.093955  -0.253397  0  3.935959  0
C  C63  1  0.21555265  0.23901934  0.81027989  1  0  -0.242172  0  3.688174  0  0  -0.261676  0  3.948199  0  0  -0.275377  0  3.966618  0  -0.041055  0  -0.093983  -0.253445  0  3.935843  0
C  C64  1  0.69113885  0.64888404  0.14187114  1  0  0.043639  0  3.739721  0  0  0.017742  0  4.001417  0  0  0.027217  0  4.016664  0  0.026328  0  -0.062596  0.012081  0  3.990272  0
C  C65  1  0.30886685  0.35111722  0.85812514  1  0  0.043669  0  3.739458  0  0  0.017727  0  4.001228  0  0  0.027201  0  4.01647  0  0.025392  0  -0.062608  0.012065  0  3.99009  0
C  C66  1  0.70988957  0.63365056  0.05173724  1  0  -0.145971  0  3.765764  0  0  -0.16596  0  4.033843  0  0  -0.176033  0  4.055739  0  0.047886  0  -0.100734  -0.159138  0  4.01852  0
C  C67  1  0.29011529  0.36634763  0.94826086  1  0  -0.145925  0  3.765677  0  0  -0.165894  0  4.033767  0  0  -0.175969  0  4.055671  0  0.047927  0  -0.100727  -0.159074  0  4.018447  0
C  C68  1  0.82380483  0.73080833  0.01345878  1  0  0.088614  0  3.654618  0  0  0.045668  0  3.912706  0  0  0.056044  0  3.927762  0  0.325767  0  0.045768  0.039158  0  3.902081  0
C  C69  1  0.17620087  0.26919293  0.98653879  1  0  0.088558  0  3.654818  0  0  0.045588  0  3.912925  0  0  0.055973  0  3.927969  0  0.325763  0  0.045715  0.039077  0  3.902299  0
C  C70  1  0.03879843  0.94358638  0.01765485  1  0  -0.031093  0  3.576085  0  0  -0.096432  0  3.835132  0  0  -0.092378  0  3.843888  0  0.283196  0  -0.056638  -0.09896  0  3.829161  0
C  C71  1  0.96120549  0.05641283  0.98234391  1  0  -0.03101  0  3.57607  0  0  -0.096438  0  3.835163  0  0  -0.092388  0  3.843923  0  0.256975  0  -0.056656  -0.098993  0  3.829163  0
C  C72  1  0.45963613  0.88911773  0.15528330  1  0  0.49904  0  3.837107  0  0  0.459268  0  4.109849  0  0  0.485895  0  4.115201  0  1.182365  0  0.219331  0.441523  0  4.105889  0
C  C73  1  0.54036893  0.11088558  0.84471432  1  0  0.498925  0  3.837273  0  0  0.459122  0  4.110085  0  0  0.485742  0  4.115449  0  1.182335  0  0.219282  0.44139  0  4.106107  0
C  C74  1  0.35948978  0.80321616  0.21306695  1  0  -0.239109  0  3.694877  0  0  -0.25562  0  3.951898  0  0  -0.268679  0  3.971133  0  0.044416  0  -0.100645  -0.247349  0  3.939109  0
C  C75  1  0.64050977  0.19678919  0.78693127  1  0  -0.239048  0  3.694863  0  0  -0.255514  0  3.951911  0  0  -0.268571  0  3.971147  0  0.044139  0  -0.100554  -0.247246  0  3.939118  0
C  C76  1  0.23916511  0.69073701  0.18235107  1  0  0.024936  0  3.736626  0  0  0.004137  0  3.9905  0  0  0.012258  0  4.006777  0  -0.08252  0  -0.071049  -0.000751  0  3.979156  0
C  C77  1  0.76083594  0.30926936  0.81764657  1  0  0.024978  0  3.736423  0  0  0.004167  0  3.990333  0  0  0.012288  0  4.006608  0  -0.082256  0  -0.071058  -0.000723  0  3.978995  0
C  C78  1  0.21444244  0.65545152  0.09217786  1  0  -0.168871  0  3.796854  0  0  -0.189464  0  4.06625  0  0  -0.200349  0  4.089995  0  0.077155  0  -0.112643  -0.182517  0  4.050223  0
C  C79  1  0.78555991  0.34455077  0.90782032  1  0  -0.168867  0  3.796823  0  0  -0.189435  0  4.066213  0  0  -0.200315  0  4.089953  0  0.077363  0  -0.112661  -0.182488  0  4.050187  0
C  C80  1  0.31171313  0.73614613  0.03627346  1  0  0.078817  0  3.681023  0  0  0.037315  0  3.940135  0  0  0.047842  0  3.955112  0  0.304097  0  0.042197  0.030726  0  3.929718  0
C  C81  1  0.68829257  0.26385514  0.96372541  1  0  0.078767  0  3.681089  0  0  0.037266  0  3.940175  0  0  0.047793  0  3.955153  0  0.303926  0  0.042216  0.030676  0  3.929757  0
C  C82  1  0.53048509  0.93436330  0.00598205  1  0  -0.025027  0  3.61792  0  0  -0.093477  0  3.881911  0  0  -0.089299  0  3.891536  0  0.284387  0  -0.059369  -0.096041  0  3.875378  0
C  C83  1  0.46952062  0.06563797  0.99401487  1  0  -0.02502  0  3.618157  0  0  -0.093513  0  3.882091  0  0  -0.089313  0  3.89169  0  0.261563  0  -0.059385  -0.096063  0  3.87557  0
N  N84  1  0.93299724  0.35286821  0.19174946  1  0  0.693835  0  4.154004  0  0  0.729241  0  4.444431  0  0  0.756375  0  4.449244  0  0.824999  0  0.087456  0.709969  0  4.441141  0
N  N85  1  0.06700389  0.64713408  0.80825193  1  0  0.693917  0  4.153806  0  0  0.729299  0  4.444247  0  0  0.75644  0  4.449057  0  0.825325  0  0.087434  0.710029  0  4.440958  0
N  N86  1  0.36780571  0.27828621  0.22191624  1  0  0.69452  0  4.151549  0  0  0.733215  0  4.434005  0  0  0.761678  0  4.438936  0  0.827384  0  0.08413  0.714003  0  4.430285  0
N  N87  1  0.63219700  0.72171301  0.77808703  1  0  0.694709  0  4.151335  0  0  0.733319  0  4.433844  0  0  0.761784  0  4.438765  0  0.8271  0  0.084045  0.714109  0  4.430125  0
N  N88  1  0.14839092  0.93100750  0.37367402  1  0  0.703186  0  4.138377  0  0  0.752471  0  4.407488  0  0  0.782166  0  4.410727  0  0.828144  0  0.086069  0.732467  0  4.404737  0
N  N89  1  0.85161114  0.06899377  0.62632542  1  0  0.703132  0  4.138463  0  0  0.752423  0  4.407568  0  0  0.782117  0  4.410807  0  0.828098  0  0.08603  0.732418  0  4.404821  0
N  N90  1  0.14292534  0.39574948  0.54424659  1  0  -0.125779  0  3.439002  0  0  -0.03098  0  3.650847  0  0  -0.049484  0  3.673634  0  -1.209022  0  -0.221406  -0.018942  0  3.635473  0
N  N91  1  0.85706653  0.60424565  0.45575502  1  0  -0.125855  0  3.439022  0  0  -0.031103  0  3.65085  0  0  -0.049603  0  3.673643  0  -1.209148  0  -0.22146  -0.019066  0  3.635473  0
N  N92  1  0.91584819  0.84273244  0.06071476  1  0  -0.139009  0  3.446017  0  0  -0.043169  0  3.655458  0  0  -0.062453  0  3.679257  0  -1.224383  0  -0.230672  -0.030242  0  3.638936  0
N  N93  1  0.08415630  0.15726883  0.93928538  1  0  -0.139062  0  3.446199  0  0  -0.043233  0  3.655642  0  0  -0.062514  0  3.67944  0  -1.224386  0  -0.230677  -0.030291  0  3.639134  0
N  N94  1  0.42880295  0.84911592  0.06660010  1  0  -0.147252  0  3.470554  0  0  -0.047544  0  3.675429  0  0  -0.067581  0  3.701152  0  -1.198786  0  -0.235135  -0.034332  0  3.657861  0
N  N95  1  0.57120033  0.15088534  0.93339872  1  0  -0.147122  0  3.470543  0  0  -0.047439  0  3.67545  0  0  -0.067477  0  3.701174  0  -1.198759  0  -0.235089  -0.034229  0  3.657873  0
O  O96  1  0.99283577  0.37811185  0.27066821  1  0  -0.543331  0  1.803711  0  0  -0.539158  0  2.039187  0  0  -0.555455  0  2.031871  0  -0.578875  0  -0.237304  -0.527378  0  2.044207  0
O  O97  1  0.00717115  0.62188941  0.72933263  1  0  -0.543339  0  1.803723  0  0  -0.539146  0  2.039189  0  0  -0.555445  0  2.031872  0  -0.57912  0  -0.237245  -0.527368  0  2.044213  0
O  O98  1  0.92561208  0.23113224  0.15953958  1  0  -0.533581  0  1.841388  0  0  -0.525598  0  2.081112  0  0  -0.541543  0  2.074276  0  -0.588531  0  -0.238795  -0.514115  0  2.085426  0
O  O99  1  0.07438597  0.76887209  0.84045987  1  0  -0.533658  0  1.841296  0  0  -0.525662  0  2.081019  0  0  -0.541601  0  2.074167  0  -0.588638  0  -0.238832  -0.514177  0  2.085334  0
O  O100  1  0.88732142  0.43984715  0.14925450  1  0  -0.380252  0  1.787451  0  0  -0.368788  0  1.991916  0  0  -0.380914  0  1.988207  0  -0.471068  0  -0.136704  -0.360336  0  1.994113  0
O  O101  1  0.11267663  0.56015718  0.85074883  1  0  -0.380248  0  1.787364  0  0  -0.368773  0  1.991826  0  0  -0.380899  0  1.988114  0  -0.471033  0  -0.136692  -0.360322  0  1.994023  0
O  O102  1  0.32296934  0.31319656  0.29691811  1  0  -0.540084  0  1.80742  0  0  -0.527916  0  2.032322  0  0  -0.546139  0  2.027915  0  -0.578723  0  -0.235195  -0.514882  0  2.034953  0
O  O103  1  0.67703523  0.68680061  0.70308708  1  0  -0.540084  0  1.807395  0  0  -0.527896  0  2.032329  0  0  -0.546116  0  2.027917  0  -0.578594  0  -0.23515  -0.514864  0  2.034959  0
O  O104  1  0.26113741  0.18367366  0.17775882  1  0  -0.535525  0  1.823633  0  0  -0.529032  0  2.061627  0  0  -0.545678  0  2.055453  0  -0.573867  0  -0.2385  -0.517374  0  2.065727  0
O  O105  1  0.73886243  0.81633271  0.82224073  1  0  -0.535643  0  1.823579  0  0  -0.529108  0  2.061565  0  0  -0.54575  0  2.055381  0  -0.573595  0  -0.238512  -0.517452  0  2.065667  0
O  O106  1  0.50360304  0.33264651  0.19368990  1  0  -0.380718  0  1.726039  0  0  -0.376019  0  1.916517  0  0  -0.387651  0  1.911182  0  -0.479843  0  -0.150438  -0.368047  0  1.920178  0
O  O107  1  0.49640125  0.66734964  0.80631590  1  0  -0.380823  0  1.726028  0  0  -0.376062  0  1.916481  0  0  -0.387711  0  1.911167  0  -0.479876  0  -0.150385  -0.368091  0  1.920145  0
O  O108  1  0.99752041  0.94309472  0.37476739  1  0  -0.502379  0  1.773863  0  0  -0.502043  0  1.992396  0  0  -0.518058  0  1.986297  0  -0.545914  0  -0.222059  -0.490617  0  1.996215  0
O  O109  1  0.00247958  0.05690348  0.62523061  1  0  -0.502353  0  1.773921  0  0  -0.502035  0  1.992479  0  0  -0.518062  0  1.986404  0  -0.545946  0  -0.222032  -0.490608  0  1.996299  0
O  O110  1  0.25199715  0.02782463  0.33955530  1  0  -0.5566  0  1.831554  0  0  -0.552679  0  2.066619  0  0  -0.570985  0  2.061018  0  -0.587986  0  -0.251021  -0.539682  0  2.070056  0
O  O111  1  0.74800220  0.97217561  0.66044340  1  0  -0.556576  0  1.831539  0  0  -0.552647  0  2.066593  0  0  -0.570952  0  2.060994  0  -0.587947  0  -0.250983  -0.539647  0  2.070027  0
O  O112  1  0.19464907  0.83215497  0.40275024  1  0  -0.402689  0  1.765336  0  0  -0.398616  0  1.96241  0  0  -0.411555  0  1.956386  0  -0.501116  0  -0.14945  -0.389589  0  1.966523  0
O  O113  1  0.80535655  0.16785039  0.59725200  1  0  -0.402698  0  1.765339  0  0  -0.398623  0  1.962416  0  0  -0.411562  0  1.956394  0  -0.501087  0  -0.149469  -0.389596  0  1.96653  0
O  O114  1  0.76516577  0.10088768  0.30712415  1  0  -0.652826  0  2.230822  0  0  -0.580873  0  2.477131  0  0  -0.601627  0  2.463043  0  -1.191421  0  -0.494393  -0.565953  0  2.486341  0
O  O115  1  0.23483236  0.89911256  0.69287711  1  0  -0.652815  0  2.230918  0  0  -0.580856  0  2.477215  0  0  -0.601611  0  2.463128  0  -1.191428  0  -0.494384  -0.565937  0  2.486427  0
O  O116  1  0.06951392  0.24600693  0.42482355  1  0  -0.706258  0  2.093528  0  0  -0.654568  0  2.355054  0  0  -0.680575  0  2.346953  0  -1.190922  0  -0.41013  -0.636093  0  2.359921  0
O  O117  1  0.93047924  0.75398411  0.57517861  1  0  -0.706223  0  2.093608  0  0  -0.654604  0  2.355192  0  0  -0.680608  0  2.347097  0  -1.19086  0  -0.410053  -0.63613  0  2.360055  0
O  O118  1  0.98799174  0.97116467  0.18825837  1  0  -0.709797  0  2.147805  0  0  -0.657008  0  2.414485  0  0  -0.683246  0  2.407628  0  -1.203065  0  -0.419808  -0.638404  0  2.41788  0
O  O119  1  0.01201052  0.02884170  0.81174059  1  0  -0.709781  0  2.147765  0  0  -0.656998  0  2.414361  0  0  -0.683234  0  2.407503  0  -1.203287  0  -0.41982  -0.638396  0  2.417755  0
O  O120  1  0.57126093  0.99546178  0.17566106  1  0  -0.571996  0  2.013179  0  0  -0.522879  0  2.235982  0  0  -0.545522  0  2.229206  0  -1.181535  0  -0.302022  -0.507196  0  2.240275  0
O  O121  1  0.42874469  0.00454357  0.82433858  1  0  -0.571894  0  2.013201  0  0  -0.522814  0  2.236076  0  0  -0.545455  0  2.229303  0  -1.181519  0  -0.302026  -0.507135  0  2.240362  0
