# generated using pymatgen
data_Zr6H25C54Br5O36
_symmetry_space_group_name_H-M   'P 1'
_cell_length_a   14.78606316
_cell_length_b   14.75632539
_cell_length_c   14.74833731
_cell_angle_alpha   60.10767182
_cell_angle_beta   60.04451199
_cell_angle_gamma   60.08713872
_symmetry_Int_Tables_number   1
_chemical_formula_structural   Zr6H25C54Br5O36
_chemical_formula_sum   'Zr6 H25 C54 Br5 O36'
_cell_volume   2279.51768135
_cell_formula_units_Z   1
loop_
 _symmetry_equiv_pos_site_id
 _symmetry_equiv_pos_as_xyz
  1  'x, y, z'
loop_
 _atom_site_type_symbol
 _atom_site_label
 _atom_site_symmetry_multiplicity
 _atom_site_fract_x
 _atom_site_fract_y
 _atom_site_fract_z
 _atom_site_occupancy
 _atom_site_pbe_bader_charge
 _atom_site_pbe_bader_spin_density
 _atom_site_pbe_cm5_charge
 _atom_site_pbe_ddec_charge
 _atom_site_pbe_ddec_spin_density
 _atom_site_pbe_ddec_sum_bond_order
 _atom_site_pbe_magmom
Zr  Zr0  1  0.87920304  0.88284670  0.61706475  1  2.630955  0  1.622042  2.374585  0  2.760132  0
Zr  Zr1  1  0.11961536  0.12035576  0.38201246  1  2.637163  0  1.628449  2.383318  0  2.741011  0
Zr  Zr2  1  0.11758310  0.87960968  0.62104951  1  2.63338  0  1.618961  2.375619  0  2.733739  0
Zr  Zr3  1  0.88071583  0.12032105  0.37889336  1  2.639885  0  1.6343  2.376339  0  2.751347  0
Zr  Zr4  1  0.12090103  0.88187705  0.37893811  1  2.637731  0  1.626213  2.375954  0  2.757045  0
Zr  Zr5  1  0.87975883  0.12218956  0.61822511  1  2.636469  0  1.628205  2.377402  0  2.74063  0
H  H6  1  0.09632542  0.71745405  0.59212392  1  0.58736  0  0.32409  0.41278  0  0.877182  0
H  H7  1  0.09730168  0.09508353  0.21737566  1  0.603742  0  0.324896  0.412742  0  0.87709  0
H  H8  1  0.09335609  0.09291254  0.59721972  1  0.620877  0  0.331868  0.426081  0  0.851137  0
H  H9  1  0.71707171  0.09709255  0.59037946  1  0.608381  0  0.332888  0.426549  0  0.851098  0
H  H10  1  0.82078838  0.63469865  0.57415905  1  0.093259  0  0.112419  0.118908  0  0.984365  0
H  H11  1  0.17483932  0.54380852  0.41953095  1  0.124634  0  0.100215  0.114118  0  1.033229  0
H  H12  1  0.82901606  0.46220326  0.57049412  1  0.105971  0  0.116075  0.12224  0  0.980518  0
H  H13  1  0.60130905  0.83862451  0.93997639  1  0.115348  0  0.10949  0.115981  0  0.989374  0
H  H14  1  0.57334066  0.16222712  0.89240262  1  0.136313  0  0.105449  0.125518  0  1.008617  0
H  H15  1  0.43368443  0.84474520  0.11151708  1  0.13769  0  0.105501  0.110139  0  1.022022  0
H  H16  1  0.16681492  0.88526336  0.05204254  1  0.133752  0  0.111249  0.118536  0  0.987796  0
H  H17  1  0.82568045  0.09265068  0.13303248  1  0.101145  0  0.110361  0.126766  0  1.000345  0
H  H18  1  0.15479368  0.88973894  0.88586115  1  0.137479  0  0.102536  0.105248  0  1.027396  0
H  H19  1  0.60100706  0.43907601  0.62395976  1  0.097497  0  0.112933  0.11972  0  0.986648  0
H  H20  1  0.59594270  0.41547599  0.34806425  1  0.104559  0  0.111899  0.130668  0  0.996365  0
H  H21  1  0.42960380  0.60688289  0.61938544  1  0.101903  0  0.106801  0.111541  0  1.015122  0
H  H22  1  0.05231503  0.55935903  0.72851545  1  0.057739  0  0.10248  0.102618  0  1.021064  0
H  H23  1  0.10768008  0.37740849  0.71650126  1  0.087469  0  0.106515  0.105873  0  0.993421  0
H  H24  1  0.04430068  0.22632226  0.06870991  1  0.06857  0  0.103947  0.104541  0  1.030936  0
H  H25  1  0.10335219  0.20999338  0.88802207  1  0.076862  0  0.10649  0.10404  0  0.990304  0
H  H26  1  0.60339623  0.11753955  0.33090195  1  0.099227  0  0.112817  0.121199  0  0.986874  0
H  H27  1  0.59073657  0.85636306  0.64567304  1  0.098552  0  0.109863  0.126837  0  1.005358  0
H  H28  1  0.43341898  0.10795026  0.34145235  1  0.148058  0  0.107715  0.117576  0  1.005475  0
H  H29  1  0.92851488  0.65536080  0.18363033  1  0.653547  0  0.305645  0.356141  0  0.990307  0
H  H30  1  0.82592875  0.78541351  0.91516404  1  0.635788  0  0.331441  0.372718  0  0.905534  0
C  C31  1  0.99617803  0.70135902  0.49541150  1  1.568304  0  0.236881  0.640633  0  4.09707  0
C  C32  1  0.30786313  0.00182122  0.20000216  1  1.55435  0  0.234646  0.647803  0  4.096947  0
C  C33  1  0.00151495  0.30537724  0.49749352  1  1.600294  0  0.23959  0.655884  0  4.093304  0
C  C34  1  0.69705286  0.00031192  0.80459674  1  1.534031  0  0.23521  0.636812  0  4.099709  0
C  C35  1  0.99108466  0.70030835  0.81053642  1  1.588705  0  0.228327  0.61463  0  4.186926  0
C  C36  1  0.70249900  0.99511911  0.49084557  1  1.587063  0  0.239079  0.641456  0  4.095674  0
C  C37  1  0.98829236  0.31116661  0.20695983  1  1.616547  0  0.238951  0.652696  0  4.136444  0
C  C38  1  0.30883499  0.98776378  0.50083439  1  1.579322  0  0.234769  0.647874  0  4.094725  0
C  C39  1  0.30896686  0.70131488  0.49253835  1  1.559229  0  0.234494  0.647652  0  4.09412  0
C  C40  1  0.98820398  0.99395497  0.81203712  1  1.562045  0  0.236309  0.653242  0  4.08563  0
C  C41  1  0.70410340  0.31137469  0.49202539  1  1.565151  0  0.243758  0.650671  0  4.083318  0
C  C42  1  0.00096243  0.99382382  0.19832289  1  1.569316  0  0.238484  0.64021  0  4.099584  0
C  C43  1  0.00531403  0.40490032  0.49704448  1  -0.002569  0  -0.011154  -0.077181  0  3.917212  0
C  C44  1  0.99732992  0.59965640  0.49560452  1  -0.034082  0  -0.009109  -0.011499  0  3.962369  0
C  C45  1  0.10329027  0.42773613  0.45589857  1  -0.085849  0  -0.006936  0.099161  0  3.928401  0
C  C46  1  0.89934344  0.57664803  0.54036608  1  0.023231  0  -0.077873  -0.094504  0  3.958375  0
C  C47  1  0.09911467  0.52548300  0.45301529  1  0.007862  0  -0.090813  -0.154854  0  3.96759  0
C  C48  1  0.90403043  0.48088770  0.53924356  1  -0.023939  0  -0.06762  -0.059467  0  3.942196  0
C  C49  1  0.40874251  0.00599865  0.09870518  1  -0.056042  0  -0.014004  -0.080183  0  3.908444  0
C  C50  1  0.59722469  0.00042969  0.90664792  1  -0.030438  0  -0.011835  -0.013029  0  3.962899  0
C  C51  1  0.44934305  0.09597526  0.03648602  1  -0.063171  0  -0.004458  0.104375  0  3.909552  0
C  C52  1  0.55850889  0.91014755  0.96765363  1  -0.02092  0  -0.083893  -0.099627  0  3.973817  0
C  C53  1  0.54249267  0.09263206  0.94126051  1  -0.000485  0  -0.089861  -0.151063  0  3.970868  0
C  C54  1  0.46562644  0.91376719  0.06221044  1  0.004107  0  -0.076332  -0.069921  0  3.95445  0
C  C55  1  0.98433542  0.99231935  0.91609128  1  0.037915  0  -0.012658  -0.077521  0  3.909949  0
C  C56  1  0.99699287  0.99064770  0.10092290  1  -0.038238  0  -0.010399  -0.015242  0  3.967151  0
C  C57  1  0.89045862  0.04828957  0.98785523  1  -0.150764  0  -0.001396  0.107443  0  3.914795  0
C  C58  1  0.09019020  0.93140243  0.03282230  1  -0.016152  0  -0.081978  -0.099288  0  3.967755  0
C  C59  1  0.89766413  0.04838960  0.07837841  1  0.042469  0  -0.085252  -0.146852  0  3.956241  0
C  C60  1  0.08315662  0.93353265  0.94133982  1  -0.032306  0  -0.077115  -0.072256  0  3.960154  0
C  C61  1  0.41460187  0.60506248  0.48333065  1  0.031293  0  -0.016486  -0.087283  0  3.91581  0
C  C62  1  0.60735062  0.41644955  0.48703695  1  -0.03453  0  -0.003879  -0.004881  0  3.944719  0
C  C63  1  0.46394181  0.55104348  0.40495366  1  -0.158915  0  -0.00367  0.104634  0  3.907123  0
C  C64  1  0.56204002  0.47097580  0.56302424  1  0.010645  0  -0.077959  -0.090637  0  3.955855  0
C  C65  1  0.55901939  0.45787439  0.40742171  1  0.064675  0  -0.085581  -0.147311  0  3.953448  0
C  C66  1  0.46721403  0.56368319  0.56042376  1  0.013366  0  -0.075184  -0.072339  0  3.955861  0
C  C67  1  0.98328509  0.60279901  0.91652769  1  -0.011849  0  -0.000978  -0.077891  0  3.920909  0
C  C68  1  0.01980999  0.49813667  0.90619649  1  -0.019673  0  0.00421  0.067917  0  3.963085  0
C  C69  1  0.94331573  0.61521360  0.01897162  1  0.010298  0  -0.014281  -0.1167  0  3.976048  0
C  C70  1  0.05399843  0.48626579  0.80279098  1  -0.042708  0  -0.083566  -0.116035  0  3.950534  0
C  C71  1  0.08389388  0.38456823  0.79618948  1  -0.032258  0  -0.079896  -0.067102  0  4.002194  0
C  C72  1  0.98257266  0.41585115  0.10765957  1  -0.010991  0  0.013818  -0.047214  0  3.858738  0
C  C73  1  0.94523169  0.51879717  0.11751018  1  0.033175  0  -0.005131  -0.084972  0  3.903456  0
C  C74  1  0.01793077  0.40269631  0.00420753  1  0.037908  0  0.007192  0.066309  0  3.943967  0
C  C75  1  0.04971366  0.29893043  0.99435518  1  -0.026313  0  -0.081911  -0.11502  0  3.944095  0
C  C76  1  0.08150383  0.29009986  0.89306202  1  -0.057146  0  -0.079655  -0.06511  0  4.000291  0
C  C77  1  0.41440382  0.97980500  0.49973748  1  0.003377  0  -0.013732  -0.081873  0  3.907922  0
C  C78  1  0.60570739  0.98851664  0.48920006  1  -0.004935  0  -0.008227  -0.010232  0  3.954953  0
C  C79  1  0.46122663  0.90668326  0.58489606  1  -0.12957  0  -0.003807  0.105986  0  3.909277  0
C  C80  1  0.56302830  0.05900800  0.40177323  1  -0.021571  0  -0.07881  -0.094437  0  3.959182  0
C  C81  1  0.55569454  0.91156288  0.57918921  1  0.025915  0  -0.088263  -0.154232  0  3.966003  0
C  C82  1  0.46890339  0.05377842  0.40785698  1  -0.019457  0  -0.077019  -0.071941  0  3.951329  0
C  C83  1  0.90501968  0.51633276  0.23576875  1  1.584185  0  0.230747  0.571408  0  4.123373  0
C  C84  1  0.89955080  0.73064285  0.02085783  1  1.506175  0  0.24793  0.589186  0  4.066477  0
Br  Br85  1  0.24792639  0.32651047  0.40997810  1  -0.04903  0  0.022023  -0.069886  0  1.467846  0
Br  Br86  1  0.38558651  0.22897548  0.06972680  1  -0.029337  0  0.034566  -0.047283  0  1.425045  0
Br  Br87  1  0.74684375  0.12198740  0.97532233  1  -0.030785  0  0.036738  -0.05067  0  1.494186  0
Br  Br88  1  0.40972143  0.59261309  0.29134659  1  -0.042622  0  0.037657  -0.054535  0  1.444452  0
Br  Br89  1  0.40455541  0.79719642  0.71504626  1  -0.042085  0  0.036645  -0.052389  0  1.4201  0
O  O90  1  0.91824270  0.74072337  0.57237608  1  -1.186482  0  -0.357438  -0.621058  0  2.273699  0
O  O91  1  0.26525840  0.07665031  0.24302633  1  -1.174159  0  -0.363571  -0.618562  0  2.394981  0
O  O92  1  0.07671804  0.26472168  0.42099148  1  -1.184765  0  -0.361153  -0.62174  0  2.361136  0
O  O93  1  0.73762018  0.92068748  0.76776098  1  -1.185296  0  -0.358352  -0.630395  0  2.278106  0
O  O94  1  0.07249665  0.73232449  0.77025340  1  -1.16523  0  -0.331651  -0.578891  0  2.255929  0
O  O95  1  0.73978486  0.07354376  0.41480382  1  -1.185978  0  -0.347399  -0.610355  0  2.261085  0
O  O96  1  0.91792579  0.26600021  0.23959326  1  -1.177047  0  -0.363218  -0.624944  0  2.314124  0
O  O97  1  0.26342053  0.91559340  0.57896720  1  -1.184371  0  -0.365975  -0.624936  0  2.387232  0
O  O98  1  0.26556162  0.74347112  0.41813967  1  -1.182162  0  -0.366817  -0.62663  0  2.40225  0
O  O99  1  0.91663421  0.07383090  0.76734312  1  -1.180674  0  -0.356927  -0.618965  0  2.358826  0
O  O100  1  0.74180535  0.27166879  0.57037469  1  -1.17537  0  -0.353965  -0.617233  0  2.275908  0
O  O101  1  0.08101290  0.92024713  0.23430145  1  -1.177657  0  -0.355333  -0.616034  0  2.274764  0
O  O102  1  0.06650085  0.91716866  0.77259620  1  -1.180824  0  -0.355775  -0.620725  0  2.274556  0
O  O103  1  0.73876670  0.26670349  0.42041796  1  -1.176398  0  -0.351083  -0.61098  0  2.289322  0
O  O104  1  0.92437387  0.07112745  0.23745298  1  -1.182991  0  -0.353042  -0.615537  0  2.292275  0
O  O105  1  0.26776087  0.73408068  0.57488498  1  -1.176366  0  -0.346357  -0.609742  0  2.257067  0
O  O106  1  0.91389553  0.74051073  0.77105945  1  -1.179989  0  -0.349635  -0.629495  0  2.297913  0
O  O107  1  0.27036283  0.06746833  0.42469616  1  -1.180472  0  -0.344018  -0.610197  0  2.307703  0
O  O108  1  0.06999140  0.27042266  0.23928936  1  -1.17376  0  -0.345545  -0.610946  0  2.275921  0
O  O109  1  0.73915038  0.92213874  0.57086811  1  -1.185993  0  -0.358507  -0.617515  0  2.296173  0
O  O110  1  0.73408901  0.07952831  0.76156318  1  -1.167621  0  -0.348591  -0.60755  0  2.317083  0
O  O111  1  0.07447513  0.73934450  0.42044848  1  -1.182259  0  -0.351712  -0.610345  0  2.28179  0
O  O112  1  0.27027840  0.92445791  0.23579568  1  -1.174388  0  -0.347159  -0.610598  0  2.275339  0
O  O113  1  0.92345155  0.26800734  0.57462844  1  -1.173773  0  -0.346672  -0.611691  0  2.263864  0
O  O114  1  0.79729500  0.06876726  0.56519004  1  -1.235034  0  -0.695703  -1.073518  0  2.361048  0
O  O115  1  0.06686752  0.06666251  0.56946957  1  -1.24588  0  -0.692992  -1.067103  0  2.352201  0
O  O116  1  0.06860364  0.06819010  0.29773737  1  -1.235359  0  -0.695116  -1.068375  0  2.373858  0
O  O117  1  0.06592498  0.79765866  0.56861292  1  -1.224398  0  -0.694186  -1.068848  0  2.363588  0
O  O118  1  0.14810263  0.95036572  0.45207982  1  -1.198206  0  -0.791516  -1.145515  0  2.133202  0
O  O119  1  0.95120185  0.95064340  0.44871232  1  -1.203361  0  -0.7924  -1.150123  0  2.128008  0
O  O120  1  0.95085450  0.14847585  0.45033143  1  -1.192438  0  -0.78958  -1.134265  0  2.122626  0
O  O121  1  0.94859748  0.95105368  0.64897389  1  -1.201268  0  -0.789018  -1.148138  0  2.11684  0
O  O122  1  0.91019281  0.59275151  0.25451187  1  -1.157763  0  -0.336533  -0.474187  0  2.270239  0
O  O123  1  0.87195870  0.44086166  0.31372346  1  -1.124322  0  -0.261711  -0.436691  0  2.13862  0
O  O124  1  0.83701617  0.81168164  0.95738280  1  -1.122734  0  -0.309375  -0.43833  0  2.273166  0
O  O125  1  0.91769445  0.75650572  0.07627237  1  -1.118738  0  -0.257032  -0.435661  0  2.158697  0
