# generated using pymatgen
data_ZnH9C8NO9
_symmetry_space_group_name_H-M   'P 1'
_cell_length_a   6.98739924
_cell_length_b   7.24542243
_cell_length_c   10.82564347
_cell_angle_alpha   97.13201406
_cell_angle_beta   91.36607183
_cell_angle_gamma   100.52091597
_symmetry_Int_Tables_number   1
_chemical_formula_structural   ZnH9C8NO9
_chemical_formula_sum   'Zn2 H18 C16 N2 O18'
_cell_volume   534.07502145
_cell_formula_units_Z   2
loop_
 _symmetry_equiv_pos_site_id
 _symmetry_equiv_pos_as_xyz
  1  'x, y, z'
loop_
 _atom_site_type_symbol
 _atom_site_label
 _atom_site_symmetry_multiplicity
 _atom_site_fract_x
 _atom_site_fract_y
 _atom_site_fract_z
 _atom_site_occupancy
 _atom_site_hle17_bader_spin_density
 _atom_site_hle17_ddec_charge
 _atom_site_hle17_ddec_spin_density
 _atom_site_hle17_ddec_sum_bond_order
 _atom_site_hle17_magmom
 _atom_site_hse06_10hf_bader_spin_density
 _atom_site_hse06_10hf_ddec_charge
 _atom_site_hse06_10hf_ddec_spin_density
 _atom_site_hse06_10hf_ddec_sum_bond_order
 _atom_site_hse06_10hf_magmom
 _atom_site_hse06_bader_spin_density
 _atom_site_hse06_ddec_charge
 _atom_site_hse06_ddec_spin_density
 _atom_site_hse06_ddec_sum_bond_order
 _atom_site_hse06_magmom
 _atom_site_pbe_bader_spin_density
 _atom_site_pbe_cm5_charge
 _atom_site_pbe_ddec_charge
 _atom_site_pbe_ddec_spin_density
 _atom_site_pbe_ddec_sum_bond_order
 _atom_site_pbe_magmom
Zn  Zn0  1  0.26131280  0.77962746  0.48407281  1  0  1.246304  0  1.649907  0  0  1.088038  0  2.097578  0  0  1.133781  0  2.036177  0  0  0.686139  1.055678  0  2.140123  0
Zn  Zn1  1  0.73868789  0.22037424  0.51592688  1  0  1.246276  0  1.649892  0  0  1.088014  0  2.097552  0  0  1.133751  0  2.036153  0  0  0.686129  1.055652  0  2.140087  0
H  H2  1  0.27943668  0.00159945  0.86723284  1  0  0.128506  0  0.949825  0  0  0.129482  0  1.02427  0  0  0.133989  0  1.019618  0  0  0.115924  0.12627  0  1.027589  0
H  H3  1  0.72056059  0.99839941  0.13276748  1  0  0.128504  0  0.949835  0  0  0.12948  0  1.024279  0  0  0.133986  0  1.019628  0  0  0.115924  0.126269  0  1.027601  0
H  H4  1  0.18468312  0.51014121  0.09150018  1  0  0.124004  0  0.948882  0  0  0.130033  0  1.013001  0  0  0.134141  0  1.009807  0  0  0.114411  0.127032  0  1.015367  0
H  H5  1  0.81531729  0.48985906  0.90850032  1  0  0.124026  0  0.948874  0  0  0.130061  0  1.012988  0  0  0.13417  0  1.009794  0  0  0.114417  0.12706  0  1.015354  0
H  H6  1  0.28474844  0.69407101  0.91619625  1  0  0.111292  0  0.940628  0  0  0.118115  0  1.004658  0  0  0.121693  0  1.002776  0  0  0.107405  0.11556  0  1.006168  0
H  H7  1  0.71524999  0.30592644  0.08380397  1  0  0.11128  0  0.940621  0  0  0.118099  0  1.004654  0  0  0.121677  0  1.002775  0  0  0.107414  0.115545  0  1.006161  0
H  H8  1  0.86780224  0.65465654  0.46944312  1  0  0.427942  0  0.875034  0  0  0.395933  0  0.940328  0  0  0.405827  0  0.926052  0  0  0.298384  0.388929  0  0.950435  0
H  H9  1  0.13219844  0.34534515  0.53055750  1  0  0.427939  0  0.875023  0  0  0.395961  0  0.940306  0  0  0.405864  0  0.926013  0  0  0.298375  0.388959  0  0.950413  0
H  H10  1  0.90314226  0.85583104  0.55941926  1  0  0.442365  0  0.852951  0  0  0.413018  0  0.912996  0  0  0.423383  0  0.89797  0  0  0.298978  0.405684  0  0.923614  0
H  H11  1  0.09685700  0.14417066  0.44058041  1  0  0.442319  0  0.853017  0  0  0.412965  0  0.91308  0  0  0.423331  0  0.898048  0  0  0.298934  0.40563  0  0.923698  0
H  H12  1  0.03445776  0.48750046  0.33654528  1  0  0.427227  0  0.845088  0  0  0.397007  0  0.921586  0  0  0.406682  0  0.91041  0  0  0.30266  0.390115  0  0.929504  0
H  H13  1  0.96554178  0.51250265  0.66345359  1  0  0.427187  0  0.845105  0  0  0.396968  0  0.921619  0  0  0.406644  0  0.910458  0  0  0.302647  0.390088  0  0.929536  0
H  H14  1  0.25582689  0.47568683  0.31554737  1  0  0.429103  0  0.868198  0  0  0.394685  0  0.940339  0  0  0.404741  0  0.925823  0  0  0.29669  0.387585  0  0.950569  0
H  H15  1  0.74417380  0.52431487  0.68445140  1  0  0.429087  0  0.868191  0  0  0.39467  0  0.940355  0  0  0.404725  0  0.925841  0  0  0.2967  0.387569  0  0.950585  0
H  H16  1  0.19565474  0.95770275  0.27602917  1  0  0.427996  0  0.835542  0  0  0.397301  0  0.910917  0  0  0.407234  0  0.898956  0  0  0.308986  0.390261  0  0.91941  0
H  H17  1  0.80434709  0.04229752  0.72397227  1  0  0.428023  0  0.835461  0  0  0.397331  0  0.910832  0  0  0.407264  0  0.898874  0  0  0.309025  0.390292  0  0.91932  0
H  H18  1  0.34890759  0.11307499  0.35712660  1  0  0.436761  0  0.85331  0  0  0.3991  0  0.937268  0  0  0.410377  0  0.920843  0  0  0.300389  0.391105  0  0.9489  0
H  H19  1  0.65109452  0.88692669  0.64287496  1  0  0.43673  0  0.853333  0  0  0.39907  0  0.937308  0  0  0.410347  0  0.920883  0  0  0.300395  0.39107  0  0.948949  0
C  C20  1  0.38671430  0.56881132  0.68878932  1  0  0.699068  0  3.858666  0  0  0.637987  0  4.168086  0  0  0.673308  0  4.156503  0  0  0.227249  0.61379  0  4.175242  0
C  C21  1  0.61328441  0.43118754  0.31121010  1  0  0.699123  0  3.858604  0  0  0.638067  0  4.167978  0  0  0.673402  0  4.156375  0  0  0.227274  0.613875  0  4.175126  0
C  C22  1  0.33385507  0.45029542  0.79241553  1  0  -0.015695  0  3.652024  0  0  -0.011229  0  3.893436  0  0  -0.010726  0  3.911257  0  0  0.010168  -0.011592  0  3.88164  0
C  C23  1  0.66614221  0.54970345  0.20758294  1  0  -0.015721  0  3.652014  0  0  -0.011272  0  3.893414  0  0  -0.01078  0  3.911241  0  0  0.010161  -0.01163  0  3.88161  0
C  C24  1  0.33059082  0.25409996  0.77845443  1  0  -0.065265  0  3.691069  0  0  -0.047457  0  3.924471  0  0  -0.056253  0  3.945281  0  0  -0.008205  -0.042019  0  3.910841  0
C  C25  1  0.66940672  0.74590031  0.22154601  1  0  -0.06526  0  3.691057  0  0  -0.047414  0  3.924414  0  0  -0.056209  0  3.945221  0  0  -0.0082  -0.041978  0  3.910787  0
C  C26  1  0.28205976  0.15306504  0.87840253  1  0  -0.077537  0  3.687259  0  0  -0.119393  0  3.951608  0  0  -0.114871  0  3.966345  0  0  -0.068355  -0.122082  0  3.941648  0
C  C27  1  0.71793779  0.84693524  0.12159699  1  0  -0.077557  0  3.687233  0  0  -0.119428  0  3.951571  0  0  -0.114905  0  3.966305  0  0  -0.068368  -0.122123  0  3.941625  0
C  C28  1  0.22948397  0.24724154  0.98852126  1  0  0.058847  0  3.731172  0  0  0.049915  0  3.998122  0  0  0.045041  0  4.020642  0  0  0.075744  0.052894  0  3.982939  0
C  C29  1  0.77051500  0.75275874  0.01147921  1  0  0.0589  0  3.731133  0  0  0.049974  0  3.998082  0  0  0.045101  0  4.020601  0  0  0.075758  0.052953  0  3.982905  0
C  C30  1  0.22676922  0.44131368  0.00381342  1  0  -0.072207  0  3.69595  0  0  -0.09894  0  3.953513  0  0  -0.096722  0  3.971634  0  0  -0.069489  -0.100084  0  3.941167  0
C  C31  1  0.77322949  0.55868519  0.99618601  1  0  -0.072281  0  3.695952  0  0  -0.099039  0  3.953536  0  0  -0.09682  0  3.971651  0  0  -0.06951  -0.100188  0  3.941205  0
C  C32  1  0.28286343  0.54223588  0.90551327  1  0  -0.071627  0  3.694748  0  0  -0.093615  0  3.952758  0  0  -0.098699  0  3.973396  0  0  -0.077423  -0.090387  0  3.938994  0
C  C33  1  0.71713384  0.45776298  0.09448705  1  0  -0.07155  0  3.694705  0  0  -0.093531  0  3.952721  0  0  -0.098614  0  3.97336  0  0  -0.077399  -0.09031  0  3.938957  0
C  C34  1  0.37554917  0.14873389  0.65740782  1  0  0.678825  0  3.889324  0  0  0.623141  0  4.182942  0  0  0.658583  0  4.174802  0  0  0.217775  0.599033  0  4.187877  0
C  C35  1  0.62445268  0.85126639  0.34259178  1  0  0.678712  0  3.889208  0  0  0.623019  0  4.182827  0  0  0.658464  0  4.174682  0  0  0.21772  0.598914  0  4.187761  0
N  N36  1  0.16660468  0.13825142  0.08911757  1  0  0.504091  0  3.891441  0  0  0.523406  0  4.200902  0  0  0.545319  0  4.208564  0  0  0.049187  0.508727  0  4.195791  0
N  N37  1  0.83339545  0.86174743  0.91088280  1  0  0.50404  0  3.891356  0  0  0.523336  0  4.200834  0  0  0.545249  0  4.208494  0  0  0.049133  0.508657  0  4.195728  0
O  O38  1  0.24863696  0.56951608  0.60871548  1  0  -0.666036  0  2.083956  0  0  -0.58739  0  2.330103  0  0  -0.616663  0  2.315887  0  0  -0.299721  -0.566735  0  2.339425  0
O  O39  1  0.75136461  0.43048278  0.39128399  1  0  -0.666094  0  2.083914  0  0  -0.587429  0  2.330001  0  0  -0.616683  0  2.315757  0  0  -0.299756  -0.56678  0  2.33931  0
O  O40  1  0.55557392  0.66726233  0.69438189  1  0  -0.618265  0  2.003826  0  0  -0.561728  0  2.234105  0  0  -0.588232  0  2.225065  0  0  -0.300395  -0.542655  0  2.23964  0
O  O41  1  0.44442478  0.33273652  0.30561938  1  0  -0.618267  0  2.003865  0  0  -0.561758  0  2.23416  0  0  -0.588271  0  2.225114  0  0  -0.300384  -0.542691  0  2.239692  0
O  O42  1  0.46764381  0.24580319  0.57986669  1  0  -0.663668  0  2.103894  0  0  -0.59474  0  2.370354  0  0  -0.62163  0  2.355927  0  0  -0.316339  -0.576031  0  2.379777  0
O  O43  1  0.53235631  0.75419566  0.42013645  1  0  -0.663617  0  2.103708  0  0  -0.594714  0  2.370201  0  0  -0.621615  0  2.355793  0  0  -0.316307  -0.576007  0  2.379628  0
O  O44  1  0.31655857  0.97100827  0.64280803  1  0  -0.634952  0  2.083252  0  0  -0.569201  0  2.350357  0  0  -0.596849  0  2.337111  0  0  -0.309044  -0.549916  0  2.358816  0
O  O45  1  0.68344156  0.02899060  0.35719141  1  0  -0.634881  0  2.083247  0  0  -0.569138  0  2.35036  0  0  -0.596783  0  2.33711  0  0  -0.309034  -0.549852  0  2.358815  0
O  O46  1  0.22204238  0.98378258  0.09288693  1  0  -0.387825  0  1.733877  0  0  -0.358968  0  1.938551  0  0  -0.372973  0  1.935048  0  0  -0.134205  -0.34975  0  1.941093  0
O  O47  1  0.77795802  0.01621769  0.90711448  1  0  -0.387816  0  1.733837  0  0  -0.358932  0  1.938492  0  0  -0.372935  0  1.934985  0  0  -0.134177  -0.349714  0  1.941035  0
O  O48  1  0.05784374  0.20095006  0.16574448  1  0  -0.34935  0  1.798516  0  0  -0.324254  0  2.022438  0  0  -0.33491  0  2.018011  0  0  -0.111353  -0.317625  0  2.025955  0
O  O49  1  0.94215496  0.79904880  0.83425495  1  0  -0.349326  0  1.798477  0  0  -0.324226  0  2.022401  0  0  -0.334881  0  2.017975  0  0  -0.111327  -0.317596  0  2.025923  0
O  O50  1  0.96548622  0.76669495  0.50396168  1  0  -0.856971  0  1.931911  0  0  -0.788922  0  2.143668  0  0  -0.811037  0  2.109628  0  0  -0.59015  -0.773282  0  2.167351  0
O  O51  1  0.03451446  0.23330674  0.49603986  1  0  -0.856912  0  1.931952  0  0  -0.788917  0  2.143588  0  0  -0.811035  0  2.10955  0  0  -0.590093  -0.773281  0  2.167267  0
O  O52  1  0.16320922  0.56461622  0.32690108  1  0  -0.828477  0  1.896258  0  0  -0.769876  0  2.110254  0  0  -0.791589  0  2.080961  0  0  -0.572639  -0.754318  0  2.130494  0
O  O53  1  0.83679147  0.43538547  0.67309861  1  0  -0.828408  0  1.896227  0  0  -0.769822  0  2.110237  0  0  -0.791532  0  2.080969  0  0  -0.572637  -0.754284  0  2.130434  0
O  O54  1  0.24154301  0.00300249  0.36295355  1  0  -0.834473  0  1.975218  0  0  -0.771431  0  2.195481  0  0  -0.792939  0  2.163684  0  0  -0.552783  -0.756157  0  2.217529  0
O  O55  1  0.75845855  0.99699637  0.63704684  1  0  -0.834439  0  1.975131  0  0  -0.771411  0  2.195411  0  0  -0.792919  0  2.163615  0  0  -0.552803  -0.756133  0  2.217459  0
