# generated using pymatgen
data_CdH13C12N5Cl2
_symmetry_space_group_name_H-M   'P 1'
_cell_length_a   7.60945637
_cell_length_b   9.58414560
_cell_length_c   10.22892042
_cell_angle_alpha   75.37251267
_cell_angle_beta   82.67253718
_cell_angle_gamma   88.88224775
_symmetry_Int_Tables_number   1
_chemical_formula_structural   CdH13C12N5Cl2
_chemical_formula_sum   'Cd2 H26 C24 N10 Cl4'
_cell_volume   715.85995582
_cell_formula_units_Z   2
loop_
 _symmetry_equiv_pos_site_id
 _symmetry_equiv_pos_as_xyz
  1  'x, y, z'
loop_
 _atom_site_type_symbol
 _atom_site_label
 _atom_site_symmetry_multiplicity
 _atom_site_fract_x
 _atom_site_fract_y
 _atom_site_fract_z
 _atom_site_occupancy
 _atom_site_hle17_bader_spin_density
 _atom_site_hle17_ddec_charge
 _atom_site_hle17_ddec_spin_density
 _atom_site_hle17_ddec_sum_bond_order
 _atom_site_hle17_magmom
 _atom_site_hse06_10hf_bader_spin_density
 _atom_site_hse06_10hf_ddec_charge
 _atom_site_hse06_10hf_ddec_spin_density
 _atom_site_hse06_10hf_ddec_sum_bond_order
 _atom_site_hse06_10hf_magmom
 _atom_site_hse06_bader_spin_density
 _atom_site_hse06_ddec_charge
 _atom_site_hse06_ddec_spin_density
 _atom_site_hse06_ddec_sum_bond_order
 _atom_site_hse06_magmom
 _atom_site_pbe_bader_spin_density
 _atom_site_pbe_cm5_charge
 _atom_site_pbe_ddec_charge
 _atom_site_pbe_ddec_spin_density
 _atom_site_pbe_ddec_sum_bond_order
 _atom_site_pbe_magmom
Cd  Cd0  1  0.36757682  0.60063833  0.34830190  1  0  0.975801  0  1.890276  0  0  0.797588  0  2.359809  0  0  0.84388  0  2.317504  0  0  0.631899  0.766312  0  2.387639  0
Cd  Cd1  1  0.63242246  0.39935776  0.65170044  1  0  0.975759  0  1.890283  0  0  0.797547  0  2.359824  0  0  0.843838  0  2.317522  0  0  0.631892  0.766269  0  2.387654  0
H  H2  1  0.93447368  0.23490247  0.31478847  1  0  0.118288  0  0.969382  0  0  0.122193  0  1.040288  0  0  0.125692  0  1.038405  0  0  0.0964  0.120534  0  1.040276  0
H  H3  1  0.06553745  0.76509256  0.68520707  1  0  0.118336  0  0.969201  0  0  0.122211  0  1.040147  0  0  0.125708  0  1.038265  0  0  0.09642  0.120554  0  1.040135  0
H  H4  1  0.65232288  0.09831474  0.39897573  1  0  0.086436  0  0.96868  0  0  0.095712  0  1.034849  0  0  0.09819  0  1.033518  0  0  0.09148  0.093681  0  1.036468  0
H  H5  1  0.34768558  0.90168026  0.60101813  1  0  0.086449  0  0.968678  0  0  0.095712  0  1.03486  0  0  0.098193  0  1.033524  0  0  0.091499  0.093678  0  1.036484  0
H  H6  1  0.63768806  0.83219371  0.44255273  1  0  0.086761  0  0.991168  0  0  0.092176  0  1.064591  0  0  0.094999  0  1.063409  0  0  0.086159  0.089942  0  1.065978  0
H  H7  1  0.36232436  0.16779808  0.55744248  1  0  0.086751  0  0.991177  0  0  0.092212  0  1.064555  0  0  0.095036  0  1.06337  0  0  0.086175  0.089977  0  1.06594  0
H  H8  1  0.91200554  0.68950407  0.41130778  1  0  0.113083  0  0.978219  0  0  0.118065  0  1.047582  0  0  0.120868  0  1.046065  0  0  0.095066  0.116246  0  1.048259  0
H  H9  1  0.08801224  0.31049636  0.58868380  1  0  0.113176  0  0.978282  0  0  0.11816  0  1.047645  0  0  0.12098  0  1.046086  0  0  0.095087  0.116336  0  1.048335  0
H  H10  1  0.26168712  0.28812684  0.26819600  1  0  0.096062  0  0.975372  0  0  0.102779  0  1.047677  0  0  0.104509  0  1.046214  0  0  0.11313  0.101149  0  1.049328  0
H  H11  1  0.73830425  0.71186817  0.73181131  1  0  0.095985  0  0.975369  0  0  0.102755  0  1.04765  0  0  0.104488  0  1.046188  0  0  0.113109  0.101124  0  1.049301  0
H  H12  1  0.47350495  0.20636320  0.24987213  1  0  0.095312  0  0.93992  0  0  0.105074  0  1.0083  0  0  0.106205  0  1.007079  0  0  0.13104  0.104028  0  1.009362  0
H  H13  1  0.52649317  0.79364909  0.75012930  1  0  0.09521  0  0.939917  0  0  0.104987  0  1.008367  0  0  0.106121  0  1.007147  0  0  0.131015  0.10394  0  1.009426  0
H  H14  1  0.07257464  0.30858493  0.05669115  1  0  0.117727  0  0.956119  0  0  0.129965  0  1.014901  0  0  0.132443  0  1.013947  0  0  0.123258  0.128032  0  1.01572  0
H  H15  1  0.92741823  0.69142952  0.94331322  1  0  0.117725  0  0.956152  0  0  0.129989  0  1.014886  0  0  0.132483  0  1.013931  0  0  0.123261  0.128048  0  1.015721  0
H  H16  1  0.20030747  0.39220369  0.78197241  1  0  0.106367  0  0.993068  0  0  0.112151  0  1.060404  0  0  0.114457  0  1.059416  0  0  0.10073  0.110412  0  1.061218  0
H  H17  1  0.79968272  0.60780750  0.21803302  1  0  0.106299  0  0.99305  0  0  0.112151  0  1.060328  0  0  0.114461  0  1.059332  0  0  0.100726  0.110408  0  1.061154  0
H  H18  1  0.70224379  0.28519235  0.10343898  1  0  0.084982  0  0.931672  0  0  0.101774  0  0.991858  0  0  0.103258  0  0.991709  0  0  0.095902  0.101179  0  0.99098  0
H  H19  1  0.29774756  0.71480478  0.89656488  1  0  0.084975  0  0.931757  0  0  0.101802  0  0.991894  0  0  0.103286  0  0.991746  0  0  0.095909  0.101208  0  0.991015  0
H  H20  1  0.77331955  0.30888443  0.92848734  1  0  0.091671  0  0.955891  0  0  0.105733  0  1.02106  0  0  0.107525  0  1.020233  0  0  0.0918  0.104545  0  1.021473  0
H  H21  1  0.22667307  0.69111160  0.07151276  1  0  0.09167  0  0.955908  0  0  0.105727  0  1.021091  0  0  0.107518  0  1.020265  0  0  0.091824  0.104536  0  1.021507  0
H  H22  1  0.70765089  0.04304003  0.95357706  1  0  0.093483  0  0.987061  0  0  0.107256  0  1.058063  0  0  0.108248  0  1.059364  0  0  0.080152  0.106307  0  1.057386  0
H  H23  1  0.29233253  0.95695602  0.04643081  1  0  0.093485  0  0.986953  0  0  0.107289  0  1.057964  0  0  0.108282  0  1.059268  0  0  0.080167  0.10634  0  1.057287  0
H  H24  1  0.64614714  0.01895020  0.13055890  1  0  0.0928  0  0.995167  0  0  0.104432  0  1.073819  0  0  0.105765  0  1.074462  0  0  0.078984  0.103347  0  1.073606  0
H  H25  1  0.35383362  0.98104689  0.86944703  1  0  0.092802  0  0.994958  0  0  0.104431  0  1.073656  0  0  0.105765  0  1.074296  0  0  0.079015  0.103348  0  1.073436  0
H  H26  1  0.86771803  0.06853272  0.05820142  1  0  0.095085  0  0.958654  0  0  0.115831  0  1.020726  0  0  0.117223  0  1.021527  0  0  0.082354  0.1148  0  1.020147  0
H  H27  1  0.13226402  0.93146005  0.94180446  1  0  0.09494  0  0.95871  0  0  0.115729  0  1.020754  0  0  0.117121  0  1.021551  0  0  0.08229  0.114699  0  1.020174  0
C  C28  1  0.07481418  0.88422438  0.33931026  1  0  0.116349  0  3.815103  0  0  0.117179  0  4.058331  0  0  0.117213  0  4.082223  0  0  0.09663  0.117261  0  4.042104  0
C  C29  1  0.92519293  0.11577488  0.66067878  1  0  0.116423  0  3.814594  0  0  0.117245  0  4.05781  0  0  0.117271  0  4.081741  0  0  0.096636  0.117322  0  4.041575  0
C  C30  1  0.08030336  0.03643207  0.31050672  1  0  0.096763  0  3.791704  0  0  0.079716  0  4.040719  0  0  0.084423  0  4.062802  0  0  0.105776  0.07667  0  4.025757  0
C  C31  1  0.91972097  0.96356192  0.68948382  1  0  0.096705  0  3.791622  0  0  0.079753  0  4.040556  0  0  0.084422  0  4.062685  0  0  0.105858  0.076733  0  4.025573  0
C  C32  1  0.92916689  0.11811659  0.33054549  1  0  -0.148569  0  3.733655  0  0  -0.163564  0  3.990405  0  0  -0.16795  0  4.010526  0  0  -0.092657  -0.160625  0  3.976007  0
C  C33  1  0.07084284  0.88188159  0.66944159  1  0  -0.148587  0  3.734067  0  0  -0.163601  0  3.990826  0  0  -0.167975  0  4.010961  0  0  -0.092639  -0.160671  0  3.976418  0
C  C34  1  0.77246128  0.03971933  0.37805507  1  0  -0.040021  0  3.73941  0  0  -0.062827  0  4.001989  0  0  -0.062846  0  4.023474  0  0  -0.088574  -0.063241  0  3.989003  0
C  C35  1  0.22753790  0.96027026  0.62194495  1  0  -0.039949  0  3.739587  0  0  -0.062724  0  4.00214  0  0  -0.062743  0  4.023618  0  0  -0.088558  -0.063149  0  3.989193  0
C  C36  1  0.76477105  0.88753517  0.40466172  1  0  -0.072951  0  3.751363  0  0  -0.090863  0  4.009271  0  0  -0.09506  0  4.03239  0  0  -0.095301  -0.088171  0  3.994652  0
C  C37  1  0.23523481  0.11246093  0.59533604  1  0  -0.073071  0  3.751591  0  0  -0.091017  0  4.009449  0  0  -0.095227  0  4.032597  0  0  -0.095405  -0.088325  0  3.994817  0
C  C38  1  0.91486308  0.80678887  0.38704167  1  0  -0.111275  0  3.710325  0  0  -0.128268  0  3.95343  0  0  -0.129529  0  3.97427  0  0  -0.08362  -0.127354  0  3.938863  0
C  C39  1  0.08515469  0.19321585  0.61294593  1  0  -0.11139  0  3.710369  0  0  -0.128378  0  3.953418  0  0  -0.12963  0  3.97426  0  0  -0.083624  -0.127463  0  3.938847  0
C  C40  1  0.33997256  0.21224511  0.22044570  1  0  0.080838  0  3.614478  0  0  0.002578  0  3.859944  0  0  0.011647  0  3.867739  0  0  0.059546  -0.003578  0  3.855275  0
C  C41  1  0.66002813  0.78775856  0.77955660  1  0  0.080989  0  3.614418  0  0  0.002488  0  3.85988  0  0  0.01153  0  3.86769  0  0  0.059592  -0.003649  0  3.855198  0
C  C42  1  0.20508864  0.30794977  0.00382232  1  0  -0.060115  0  3.679265  0  0  -0.103475  0  3.941694  0  0  -0.102085  0  3.960259  0  0  -0.004787  -0.10412  0  3.928188  0
C  C43  1  0.79490554  0.69206467  0.99618094  1  0  -0.059979  0  3.679101  0  0  -0.103512  0  3.941458  0  0  -0.102154  0  3.960042  0  0  -0.004756  -0.104148  0  3.927942  0
C  C44  1  0.27060080  0.34837482  0.86876655  1  0  0.011489  0  3.767445  0  0  -0.020453  0  4.030919  0  0  -0.018054  0  4.051812  0  0  -0.010298  -0.022033  0  4.016022  0
C  C45  1  0.72939204  0.65163854  0.13123711  1  0  0.011661  0  3.767268  0  0  -0.020338  0  4.030777  0  0  -0.017934  0  4.051672  0  0  -0.010189  -0.021918  0  4.015875  0
C  C46  1  0.49923288  0.27871560  0.98018366  1  0  0.339977  0  3.63576  0  0  0.312928  0  3.899774  0  0  0.32966  0  3.914069  0  0  0.222585  0.302189  0  3.889629  0
C  C47  1  0.50076109  0.72128260  0.01981674  1  0  0.339936  0  3.635871  0  0  0.312787  0  3.899778  0  0  0.329508  0  3.91408  0  0  0.222571  0.302054  0  3.88963  0
C  C48  1  0.68275612  0.24503584  0.01429636  1  0  -0.168006  0  3.734655  0  0  -0.204312  0  3.988055  0  0  -0.207137  0  3.999169  0  0  -0.15916  -0.202786  0  3.980106  0
C  C49  1  0.31723655  0.75496238  0.98570613  1  0  -0.167997  0  3.734627  0  0  -0.204343  0  3.988047  0  0  -0.207166  0  3.999165  0  0  -0.159184  -0.202816  0  3.980092  0
C  C50  1  0.72842457  0.08422288  0.04100045  1  0  -0.275688  0  3.686943  0  0  -0.346495  0  3.930317  0  0  -0.349217  0  3.941071  0  0  -0.255165  -0.34431  0  3.923257  0
C  C51  1  0.27155756  0.91577425  0.95900923  1  0  -0.275475  0  3.686655  0  0  -0.346372  0  3.93001  0  0  -0.349092  0  3.940759  0  0  -0.255137  -0.344183  0  3.922948  0
N  N52  1  0.24662939  0.83876410  0.31703934  1  0  -0.24549  0  3.153876  0  0  -0.194926  0  3.443785  0  0  -0.206521  0  3.457748  0  0  -0.200449  -0.187406  0  3.434046  0
N  N53  1  0.75338711  0.16123745  0.68295601  1  0  -0.245385  0  3.153864  0  0  -0.194868  0  3.443802  0  0  -0.206457  0  3.457777  0  0  -0.200421  -0.187348  0  3.434057  0
N  N54  1  0.35412397  0.95021011  0.27655666  1  0  -0.0567  0  2.886484  0  0  -0.058615  0  3.168322  0  0  -0.051339  0  3.178291  0  0  -0.068017  -0.063216  0  3.162341  0
N  N55  1  0.64589257  0.04978933  0.72344409  1  0  -0.056868  0  2.886513  0  0  -0.058727  0  3.168337  0  0  -0.051463  0  3.178313  0  0  -0.068058  -0.063319  0  3.162354  0
N  N56  1  0.25666656  0.07079654  0.27127673  1  0  -0.022252  0  3.514337  0  0  0.056877  0  3.749774  0  0  0.043757  0  3.773433  0  0  -0.128938  0.065583  0  3.73399  0
N  N57  1  0.74334465  0.92920284  0.72872164  1  0  -0.022083  0  3.513893  0  0  0.056979  0  3.749458  0  0  0.043893  0  3.773121  0  0  -0.129006  0.065655  0  3.733692  0
N  N58  1  0.34983144  0.26371953  0.07339223  1  0  -0.125033  0  3.509317  0  0  -0.03984  0  3.73401  0  0  -0.055808  0  3.757962  0  0  -0.240052  -0.029118  0  3.717384  0
N  N59  1  0.65016129  0.73628624  0.92660841  1  0  -0.125272  0  3.509605  0  0  -0.039588  0  3.733849  0  0  -0.055538  0  3.757804  0  0  -0.240074  -0.028874  0  3.717222  0
N  N60  1  0.45242179  0.33021932  0.85543197  1  0  -0.425907  0  3.215512  0  0  -0.351909  0  3.490189  0  0  -0.374586  0  3.507676  0  0  -0.358652  -0.336521  0  3.477709  0
N  N61  1  0.54756827  0.66978213  0.14457097  1  0  -0.425996  0  3.21554  0  0  -0.352051  0  3.490307  0  0  -0.374725  0  3.50779  0  0  -0.358764  -0.336663  0  3.477824  0
Cl  Cl62  1  0.09654856  0.48830205  0.30630226  1  0  -0.584348  0  0.911217  0  0  -0.52273  0  1.176891  0  0  -0.538904  0  1.156469  0  0  -0.312267  -0.511337  0  1.189541  0
Cl  Cl63  1  0.90344943  0.51169620  0.69370065  1  0  -0.584332  0  0.911224  0  0  -0.522716  0  1.176886  0  0  -0.538894  0  1.15647  0  0  -0.312262  -0.511329  0  1.189544  0
Cl  Cl64  1  0.41408607  0.62357039  0.58713185  1  0  -0.562908  0  1.006307  0  0  -0.49172  0  1.298377  0  0  -0.510908  0  1.276258  0  0  -0.284959  -0.478382  0  1.313255  0
Cl  Cl65  1  0.58591721  0.37642788  0.41286955  1  0  -0.562905  0  1.006314  0  0  -0.491728  0  1.29838  0  0  -0.510925  0  1.276277  0  0  -0.284964  -0.478392  0  1.313257  0
