# generated using pymatgen
data_Gd2H22C20N2O15
_symmetry_space_group_name_H-M   'P 1'
_cell_length_a   9.48813474
_cell_length_b   10.98541130
_cell_length_c   12.42045154
_cell_angle_alpha   89.99974671
_cell_angle_beta   111.02002977
_cell_angle_gamma   90.00022914
_symmetry_Int_Tables_number   1
_chemical_formula_structural   Gd2H22C20N2O15
_chemical_formula_sum   'Gd4 H44 C40 N4 O30'
_cell_volume   1208.44802809
_cell_formula_units_Z   2
loop_
 _symmetry_equiv_pos_site_id
 _symmetry_equiv_pos_as_xyz
  1  'x, y, z'
loop_
 _atom_site_type_symbol
 _atom_site_label
 _atom_site_symmetry_multiplicity
 _atom_site_fract_x
 _atom_site_fract_y
 _atom_site_fract_z
 _atom_site_occupancy
 _atom_site_hle17_bader_spin_density
 _atom_site_hle17_ddec_charge
 _atom_site_hle17_ddec_spin_density
 _atom_site_hle17_ddec_sum_bond_order
 _atom_site_hle17_magmom
 _atom_site_hse06_10hf_bader_spin_density
 _atom_site_hse06_10hf_ddec_charge
 _atom_site_hse06_10hf_ddec_spin_density
 _atom_site_hse06_10hf_ddec_sum_bond_order
 _atom_site_hse06_10hf_magmom
 _atom_site_hse06_bader_spin_density
 _atom_site_hse06_ddec_charge
 _atom_site_hse06_ddec_spin_density
 _atom_site_hse06_ddec_sum_bond_order
 _atom_site_hse06_magmom
 _atom_site_pbe_bader_spin_density
 _atom_site_pbe_cm5_charge
 _atom_site_pbe_ddec_charge
 _atom_site_pbe_ddec_spin_density
 _atom_site_pbe_ddec_sum_bond_order
 _atom_site_pbe_magmom
Gd  Gd0  1  0.70330708  0.03811353  0.38366426  1  0  2.245419  0  1.702919  0  0  2.160275  0  2.039742  0  0  2.206012  0  1.996823  0  0  1.46147  2.120535  0  2.081396  0
Gd  Gd1  1  0.20330736  0.96188691  0.38366452  1  0  2.245432  0  1.702905  0  0  2.160281  0  2.039747  0  0  2.206022  0  1.996826  0  0  1.461482  2.120553  0  2.081391  0
Gd  Gd2  1  0.30668336  0.48352754  0.61413257  1  0  2.222933  0  1.743549  0  0  2.139549  0  2.090771  0  0  2.190697  0  2.038968  0  0  1.47437  2.098738  0  2.134934  0
Gd  Gd3  1  0.80668350  0.51647301  0.61413297  1  0  2.222906  0  1.743535  0  0  2.139538  0  2.090736  0  0  2.190683  0  2.038937  0  0  1.474378  2.098733  0  2.13488  0
H  H4  1  0.92957353  0.81956754  0.03930360  1  0  0.112541  0  0.953531  0  0  0.12283  0  1.013758  0  0  0.126246  0  1.012141  0  0  0.113396  0.120302  0  1.015124  0
H  H5  1  0.42957128  0.18043358  0.03930140  1  0  0.112586  0  0.953485  0  0  0.122856  0  1.013723  0  0  0.126272  0  1.012109  0  0  0.113415  0.120327  0  1.015089  0
H  H6  1  0.53919901  0.99013482  0.07006783  1  0  0.120627  0  0.998883  0  0  0.126308  0  1.064992  0  0  0.129887  0  1.063797  0  0  0.112756  0.12353  0  1.06637  0
H  H7  1  0.03919621  0.00986479  0.07006533  1  0  0.12062  0  0.99894  0  0  0.126333  0  1.065013  0  0  0.12991  0  1.063815  0  0  0.112782  0.123557  0  1.06639  0
H  H8  1  0.75699791  0.71909468  0.85526162  1  0  0.097278  0  0.951545  0  0  0.104636  0  1.014326  0  0  0.107822  0  1.01207  0  0  0.120041  0.102133  0  1.01637  0
H  H9  1  0.25699599  0.28090813  0.85526152  1  0  0.097279  0  0.951526  0  0  0.104624  0  1.014333  0  0  0.107812  0  1.012072  0  0  0.120019  0.102126  0  1.01637  0
H  H10  1  0.38041367  0.87967146  0.88848246  1  0  0.06996  0  0.933052  0  0  0.080306  0  0.993958  0  0  0.082547  0  0.99312  0  0  0.113799  0.078475  0  0.994964  0
H  H11  1  0.88041366  0.12032706  0.88848035  1  0  0.069947  0  0.933051  0  0  0.080291  0  0.993959  0  0  0.082532  0  0.99312  0  0  0.113803  0.078461  0  0.994964  0
H  H12  1  0.52761693  0.24682841  0.66801074  1  0  0.10523  0  0.942582  0  0  0.110817  0  1.005898  0  0  0.114133  0  1.004391  0  0  0.115234  0.108591  0  1.006975  0
H  H13  1  0.02761427  0.75317182  0.66801182  1  0  0.105261  0  0.94258  0  0  0.110837  0  1.005893  0  0  0.114149  0  1.004392  0  0  0.115255  0.108611  0  1.006971  0
H  H14  1  0.64581474  0.04493157  0.74588382  1  0  0.108026  0  0.939588  0  0  0.129453  0  0.999177  0  0  0.131504  0  0.998674  0  0  0.092294  0.127898  0  0.999705  0
H  H15  1  0.14581612  0.95506686  0.74588602  1  0  0.108001  0  0.939582  0  0  0.129447  0  0.999159  0  0  0.131499  0  0.998654  0  0  0.092286  0.12789  0  0.999689  0
H  H16  1  0.46507691  0.97511778  0.68938939  1  0  0.118566  0  0.948522  0  0  0.135421  0  1.014264  0  0  0.137985  0  1.013026  0  0  0.098447  0.133576  0  1.015135  0
H  H17  1  0.96507886  0.02488294  0.68939301  1  0  0.11857  0  0.948465  0  0  0.135417  0  1.014223  0  0  0.137982  0  1.012983  0  0  0.09844  0.133571  0  1.015094  0
H  H18  1  0.50241535  0.08815305  0.79976748  1  0  0.09785  0  0.951229  0  0  0.118508  0  1.013506  0  0  0.119587  0  1.014629  0  0  0.08711  0.117693  0  1.012795  0
H  H19  1  0.00241660  0.91184461  0.79977142  1  0  0.097785  0  0.951201  0  0  0.118456  0  1.013478  0  0  0.119534  0  1.014602  0  0  0.08709  0.117645  0  1.012763  0
H  H20  1  0.55117491  0.52158548  0.34186908  1  0  0.115832  0  0.905394  0  0  0.126003  0  0.960219  0  0  0.129502  0  0.958264  0  0  0.121833  0.123501  0  0.961862  0
H  H21  1  0.05117700  0.47841555  0.34186770  1  0  0.115872  0  0.905401  0  0  0.126059  0  0.960211  0  0  0.129562  0  0.958254  0  0  0.121857  0.123555  0  0.961855  0
H  H22  1  0.02560447  0.14764642  0.50558758  1  0  0.444674  0  0.850261  0  0  0.412809  0  0.914808  0  0  0.424307  0  0.897804  0  0  0.304854  0.404129  0  0.927674  0
H  H23  1  0.52560570  0.85235462  0.50559019  1  0  0.444711  0  0.850207  0  0  0.412833  0  0.91478  0  0  0.424331  0  0.897777  0  0  0.304846  0.404151  0  0.92765  0
H  H24  1  0.89365927  0.24923724  0.48686751  1  0  0.442901  0  0.848345  0  0  0.414171  0  0.907474  0  0  0.425491  0  0.890614  0  0  0.309996  0.406107  0  0.919453  0
H  H25  1  0.39365999  0.75076334  0.48686952  1  0  0.442954  0  0.848275  0  0  0.414206  0  0.907432  0  0  0.425529  0  0.890572  0  0  0.309996  0.406142  0  0.919413  0
H  H26  1  0.55122621  0.79124152  0.25210313  1  0  0.404949  0  0.906496  0  0  0.36317  0  0.988805  0  0  0.374987  0  0.971731  0  0  0.28746  0.354754  0  1.0009  0
H  H27  1  0.05122518  0.20875905  0.25210276  1  0  0.404974  0  0.906477  0  0  0.3632  0  0.988775  0  0  0.375017  0  0.971701  0  0  0.287464  0.354784  0  1.00087  0
H  H28  1  0.70843972  0.76019582  0.35099609  1  0  0.434854  0  0.851576  0  0  0.409077  0  0.908468  0  0  0.418652  0  0.89434  0  0  0.303652  0.402134  0  0.91872  0
H  H29  1  0.20843992  0.23980480  0.35099512  1  0  0.43482  0  0.851654  0  0  0.409031  0  0.908532  0  0  0.418603  0  0.894405  0  0  0.303631  0.402089  0  0.918778  0
H  H30  1  0.43172285  0.39917065  0.15980201  1  0  0.096721  0  0.957663  0  0  0.117327  0  1.022503  0  0  0.118133  0  1.023841  0  0  0.08561  0.116551  0  1.021935  0
H  H31  1  0.93172440  0.60083078  0.15980327  1  0  0.096733  0  0.957636  0  0  0.117346  0  1.022477  0  0  0.118153  0  1.023813  0  0  0.085607  0.116571  0  1.02191  0
H  H32  1  0.29409511  0.46286112  0.20994835  1  0  0.094014  0  0.954371  0  0  0.115402  0  1.016907  0  0  0.116388  0  1.017352  0  0  0.085886  0.114575  0  1.016872  0
H  H33  1  0.79409418  0.53714050  0.20994757  1  0  0.094031  0  0.954409  0  0  0.115419  0  1.016941  0  0  0.116405  0  1.017388  0  0  0.085895  0.114593  0  1.016905  0
H  H34  1  0.34262332  0.30493898  0.23210864  1  0  0.111697  0  0.954057  0  0  0.130847  0  1.01947  0  0  0.13266  0  1.018706  0  0  0.094917  0.12947  0  1.020151  0
H  H35  1  0.84262629  0.69506179  0.23210912  1  0  0.111696  0  0.954068  0  0  0.130853  0  1.019466  0  0  0.132665  0  1.018703  0  0  0.094919  0.129478  0  1.020146  0
H  H36  1  0.28845611  0.74676384  0.64093162  1  0  0.442856  0  0.853381  0  0  0.413105  0  0.915238  0  0  0.424452  0  0.898654  0  0  0.299609  0.405109  0  0.926898  0
H  H37  1  0.78845427  0.25323561  0.64093090  1  0  0.442841  0  0.853403  0  0  0.413092  0  0.915256  0  0  0.424438  0  0.898674  0  0  0.299601  0.405095  0  0.926917  0
H  H38  1  0.43793150  0.72238784  0.75585945  1  0  0.40222  0  0.913932  0  0  0.359008  0  0.996961  0  0  0.371154  0  0.979814  0  0  0.284988  0.350482  0  1.008951  0
H  H39  1  0.93792974  0.27761337  0.75585947  1  0  0.402261  0  0.913871  0  0  0.359039  0  0.996922  0  0  0.371187  0  0.979771  0  0  0.284998  0.350511  0  1.008915  0
H  H40  1  0.46053905  0.53256661  0.92854785  1  0  0.114585  0  0.975308  0  0  0.120528  0  1.042388  0  0  0.123693  0  1.041632  0  0  0.112392  0.118007  0  1.043527  0
H  H41  1  0.96053790  0.46743290  0.92854648  1  0  0.114561  0  0.975264  0  0  0.120468  0  1.042382  0  0  0.123623  0  1.041637  0  0  0.112362  0.117957  0  1.043512  0
H  H42  1  0.05608683  0.67536158  0.96051443  1  0  0.110259  0  0.954253  0  0  0.120298  0  1.014704  0  0  0.123707  0  1.013156  0  0  0.110952  0.117733  0  1.016155  0
H  H43  1  0.55608523  0.32463638  0.96051511  1  0  0.110214  0  0.954261  0  0  0.120254  0  1.01472  0  0  0.123663  0  1.01317  0  0  0.110926  0.11769  0  1.016171  0
H  H44  1  0.21832094  0.76894526  0.15082292  1  0  0.103243  0  0.962855  0  0  0.10846  0  1.028765  0  0  0.112084  0  1.025717  0  0  0.122223  0.105753  0  1.031209  0
H  H45  1  0.71832017  0.23105366  0.15082418  1  0  0.103229  0  0.962875  0  0  0.108438  0  1.028804  0  0  0.112063  0  1.025753  0  0  0.122206  0.105728  0  1.031247  0
H  H46  1  0.60772734  0.63944246  0.11432268  1  0  0.068676  0  0.971479  0  0  0.080071  0  1.034478  0  0  0.081784  0  1.034089  0  0  0.112521  0.078636  0  1.035108  0
H  H47  1  0.10772793  0.36055809  0.11432215  1  0  0.068679  0  0.971483  0  0  0.080077  0  1.034478  0  0  0.081791  0  1.034091  0  0  0.112525  0.078645  0  1.035109  0
C  C48  1  0.84321834  0.97390264  0.17813364  1  0  0.707174  0  3.862975  0  0  0.657928  0  4.160258  0  0  0.692919  0  4.147906  0  0  0.240389  0.634162  0  4.16697  0
C  C49  1  0.34321334  0.02609384  0.17813370  1  0  0.707233  0  3.862596  0  0  0.657913  0  4.160017  0  0  0.692905  0  4.147664  0  0  0.240359  0.634149  0  4.16673  0
C  C50  1  0.74598049  0.91406794  0.06631898  1  0  -0.013384  0  3.701718  0  0  0.006155  0  3.930218  0  0  0.003015  0  3.95096  0  0  0.006179  0.00799  0  3.91648  0
C  C51  1  0.24597681  0.08593059  0.06631675  1  0  -0.013451  0  3.701777  0  0  0.006147  0  3.930263  0  0  0.003007  0  3.951004  0  0  0.006188  0.007982  0  3.916522  0
C  C52  1  0.80843939  0.83652900  0.00589977  1  0  -0.131198  0  3.721472  0  0  -0.151779  0  3.969193  0  0  -0.156861  0  3.990811  0  0  -0.077353  -0.14836  0  3.954678  0
C  C53  1  0.30843596  0.16347096  0.00589650  1  0  -0.131243  0  3.721525  0  0  -0.1518  0  3.969214  0  0  -0.156883  0  3.990832  0  0  -0.077358  -0.148382  0  3.954701  0
C  C54  1  0.58987103  0.93201522  0.02290989  1  0  -0.127458  0  3.707141  0  0  -0.151454  0  3.956156  0  0  -0.156592  0  3.977989  0  0  -0.078271  -0.148174  0  3.941915  0
C  C55  1  0.08986842  0.06798208  0.02290802  1  0  -0.127394  0  3.707157  0  0  -0.151437  0  3.956175  0  0  -0.156573  0  3.978008  0  0  -0.078271  -0.148158  0  3.941939  0
C  C56  1  0.71361263  0.78027380  0.90538232  1  0  0.110527  0  3.692081  0  0  0.08205  0  3.944108  0  0  0.086523  0  3.962042  0  0  0.046512  0.079352  0  3.93175  0
C  C57  1  0.21361051  0.21972679  0.90537919  1  0  0.110539  0  3.692099  0  0  0.082046  0  3.944134  0  0  0.086519  0  3.962068  0  0  0.046531  0.079345  0  3.931775  0
C  C58  1  0.50326583  0.87049396  0.92327881  1  0  0.110354  0  3.744611  0  0  0.081883  0  4.002632  0  0  0.086135  0  4.021593  0  0  0.046888  0.079172  0  3.989814  0
C  C59  1  0.00326567  0.12950582  0.92327656  1  0  0.110304  0  3.744685  0  0  0.081828  0  4.002717  0  0  0.086081  0  4.021675  0  0  0.046808  0.079116  0  3.989898  0
C  C60  1  0.52465900  0.12927102  0.53156409  1  0  0.720526  0  3.804642  0  0  0.671824  0  4.108678  0  0  0.705889  0  4.09986  0  0  0.225753  0.648658  0  4.113188  0
C  C61  1  0.02465672  0.87072988  0.53156562  1  0  0.720536  0  3.804477  0  0  0.671751  0  4.108621  0  0  0.705817  0  4.099802  0  0  0.225715  0.648587  0  4.113127  0
C  C62  1  0.30156519  0.17996317  0.59338869  1  0  0.756034  0  3.777568  0  0  0.711589  0  4.06843  0  0  0.746813  0  4.057453  0  0  0.240446  0.687446  0  4.074967  0
C  C63  1  0.80155954  0.82003838  0.59338874  1  0  0.756  0  3.777469  0  0  0.711559  0  4.06829  0  0  0.746782  0  4.057317  0  0  0.240414  0.687417  0  4.074825  0
C  C64  1  0.47160608  0.16152073  0.63008069  1  0  -0.247283  0  3.661734  0  0  -0.246685  0  3.89915  0  0  -0.256681  0  3.907824  0  0  -0.086543  -0.239882  0  3.892839  0
C  C65  1  0.97160500  0.83848122  0.63008191  1  0  -0.247431  0  3.661834  0  0  -0.246779  0  3.899225  0  0  -0.256777  0  3.9079  0  0  -0.086583  -0.239978  0  3.892916  0
C  C66  1  0.64723510  0.34406012  0.37582357  1  0  0.734035  0  3.796466  0  0  0.685943  0  4.096319  0  0  0.720377  0  4.087469  0  0  0.23615  0.662492  0  4.101106  0
C  C67  1  0.14723550  0.65594653  0.37581943  1  0  0.734228  0  3.796311  0  0  0.686073  0  4.096254  0  0  0.72051  0  4.0874  0  0  0.23619  0.662624  0  4.101043  0
C  C68  1  0.52418283  0.06073784  0.72220848  1  0  -0.265255  0  3.652374  0  0  -0.345503  0  3.8933  0  0  -0.347149  0  3.901887  0  0  -0.234432  -0.34394  0  3.887231  0
C  C69  1  0.02418529  0.93926029  0.72221184  1  0  -0.265112  0  3.652218  0  0  -0.345393  0  3.893137  0  0  -0.347041  0  3.901726  0  0  -0.234379  -0.343833  0  3.887065  0
C  C70  1  0.50846801  0.42855930  0.34383804  1  0  -0.230144  0  3.654399  0  0  -0.228041  0  3.895409  0  0  -0.237937  0  3.904045  0  0  -0.084744  -0.221366  0  3.889431  0
C  C71  1  0.00847154  0.57144066  0.34383910  1  0  -0.230211  0  3.654293  0  0  -0.228101  0  3.895347  0  0  -0.238003  0  3.903986  0  0  -0.084783  -0.221425  0  3.889366  0
C  C72  1  0.45264674  0.42694864  0.44458833  1  0  0.723086  0  3.797222  0  0  0.673786  0  4.103792  0  0  0.708518  0  4.093944  0  0  0.222609  0.649921  0  4.109599  0
C  C73  1  0.95264932  0.57304963  0.44458837  1  0  0.723184  0  3.797099  0  0  0.673839  0  4.103753  0  0  0.708572  0  4.093907  0  0  0.222681  0.649974  0  4.109557  0
C  C74  1  0.38652065  0.39667163  0.22951063  1  0  -0.268417  0  3.723516  0  0  -0.356787  0  3.976327  0  0  -0.357047  0  3.985245  0  0  -0.249087  -0.356258  0  3.970182  0
C  C75  1  0.88651882  0.60332839  0.22951015  1  0  -0.268456  0  3.72351  0  0  -0.356827  0  3.976302  0  0  -0.357088  0  3.985223  0  0  -0.249076  -0.356298  0  3.970155  0
C  C76  1  0.15706937  0.54084280  0.81649940  1  0  0.707162  0  3.870497  0  0  0.659876  0  4.166705  0  0  0.695003  0  4.154539  0  0  0.239124  0.636105  0  4.173474  0
C  C77  1  0.65706820  0.45915623  0.81649967  1  0  0.707261  0  3.870334  0  0  0.659965  0  4.166573  0  0  0.695091  0  4.154402  0  0  0.239171  0.636205  0  4.173322  0
C  C78  1  0.24748244  0.59661026  0.93132504  1  0  -0.021146  0  3.728795  0  0  8.4e-05  0  3.953562  0  0  -0.00347  0  3.974658  0  0  0.001786  0.002245  0  3.939207  0
C  C79  1  0.74747995  0.40338759  0.93132356  1  0  -0.021211  0  3.728647  0  0  -4.2e-05  0  3.953498  0  0  -0.003594  0  3.974587  0  0  0.001734  0.002116  0  3.939144  0
C  C80  1  0.40426271  0.58428407  0.97613219  1  0  -0.122746  0  3.720783  0  0  -0.146725  0  3.97138  0  0  -0.151424  0  3.992855  0  0  -0.076535  -0.143637  0  3.957294  0
C  C81  1  0.90425913  0.41571501  0.97613116  1  0  -0.122698  0  3.72064  0  0  -0.146607  0  3.971234  0  0  -0.151297  0  3.992713  0  0  -0.076497  -0.143529  0  3.957147  0
C  C82  1  0.17826753  0.66404124  0.99414843  1  0  -0.133731  0  3.720455  0  0  -0.153725  0  3.964959  0  0  -0.15892  0  3.986625  0  0  -0.080306  -0.150209  0  3.950517  0
C  C83  1  0.67826596  0.33595698  0.99414907  1  0  -0.133585  0  3.720341  0  0  -0.153557  0  3.964847  0  0  -0.158752  0  3.986513  0  0  -0.080214  -0.150044  0  3.950404  0
C  C84  1  0.26751943  0.71646861  0.09860825  1  0  0.114157  0  3.690827  0  0  0.085183  0  3.947211  0  0  0.089818  0  3.964514  0  0  0.045724  0.082262  0  3.935579  0
C  C85  1  0.76751882  0.28352983  0.09860936  1  0  0.114153  0  3.690906  0  0  0.085173  0  3.947296  0  0  0.089808  0  3.964599  0  0  0.045724  0.082253  0  3.935662  0
C  C86  1  0.48482605  0.64275218  0.07922470  1  0  0.10759  0  3.739287  0  0  0.079877  0  3.993572  0  0  0.084203  0  4.012639  0  0  0.043031  0.077265  0  3.980618  0
C  C87  1  0.98482568  0.35724711  0.07922478  1  0  0.107595  0  3.739276  0  0  0.079875  0  3.99354  0  0  0.084201  0  4.012604  0  0  0.04305  0.07726  0  3.980593  0
N  N88  1  0.56291948  0.79589618  0.86523210  1  0  -0.296817  0  3.175543  0  0  -0.231622  0  3.416734  0  0  -0.244603  0  3.433121  0  0  -0.299784  -0.222655  0  3.405294  0
N  N89  1  0.06291844  0.20410319  0.86523174  1  0  -0.296804  0  3.175639  0  0  -0.231582  0  3.416824  0  0  -0.24456  0  3.433208  0  0  -0.299753  -0.222614  0  3.405384  0
N  N90  1  0.41917758  0.70776996  0.13997760  1  0  -0.29458  0  3.125817  0  0  -0.23452  0  3.372784  0  0  -0.24675  0  3.388058  0  0  -0.299116  -0.226007  0  3.362165  0
N  N91  1  0.91917700  0.29222880  0.13997787  1  0  -0.294595  0  3.125834  0  0  -0.23453  0  3.372796  0  0  -0.246759  0  3.388071  0  0  -0.29912  -0.226018  0  3.362175  0
O  O92  1  0.77876709  0.04383527  0.22756439  1  0  -0.720521  0  2.101471  0  0  -0.681451  0  2.36591  0  0  -0.705112  0  2.351791  0  0  -0.403713  -0.663481  0  2.374775  0
O  O93  1  0.27876734  0.95616347  0.22756627  1  0  -0.720528  0  2.101431  0  0  -0.681452  0  2.365927  0  0  -0.705112  0  2.351807  0  0  -0.403729  -0.663487  0  2.374797  0
O  O94  1  0.98241777  0.95042256  0.21359044  1  0  -0.68304  0  2.107967  0  0  -0.641282  0  2.365533  0  0  -0.664638  0  2.353352  0  0  -0.366118  -0.623963  0  2.373495  0
O  O95  1  0.48241962  0.04958060  0.21358986  1  0  -0.683032  0  2.107613  0  0  -0.641274  0  2.365228  0  0  -0.664632  0  2.353047  0  0  -0.366092  -0.623943  0  2.373159  0
O  O96  1  0.44100072  0.07351352  0.44135555  1  0  -0.740029  0  2.073887  0  0  -0.698078  0  2.332692  0  0  -0.723666  0  2.323812  0  0  -0.371376  -0.678514  0  2.337329  0
O  O97  1  0.94099880  0.92648745  0.44135620  1  0  -0.739988  0  2.073837  0  0  -0.698012  0  2.332679  0  0  -0.7236  0  2.323798  0  0  -0.371345  -0.678446  0  2.337316  0
O  O98  1  0.66025836  0.15609862  0.54441147  1  0  -0.691416  0  2.056072  0  0  -0.638344  0  2.29282  0  0  -0.664981  0  2.284911  0  0  -0.341792  -0.619546  0  2.297957  0
O  O99  1  0.16025712  0.84390269  0.54441178  1  0  -0.691442  0  2.055904  0  0  -0.638326  0  2.292663  0  0  -0.664969  0  2.284753  0  0  -0.341779  -0.61953  0  2.297799  0
O  O100  1  0.21336013  0.09464818  0.53997457  1  0  -0.715348  0  2.071948  0  0  -0.65907  0  2.303393  0  0  -0.685868  0  2.293633  0  0  -0.367963  -0.639676  0  2.309926  0
O  O101  1  0.71336040  0.90535606  0.53997509  1  0  -0.715388  0  2.071992  0  0  -0.659049  0  2.303367  0  0  -0.685845  0  2.293605  0  0  -0.367962  -0.639653  0  2.3099  0
O  O102  1  0.25345014  0.27890697  0.62028080  1  0  -0.716022  0  1.998427  0  0  -0.678951  0  2.247992  0  0  -0.703766  0  2.234235  0  0  -0.404663  -0.660984  0  2.257242  0
O  O103  1  0.75344642  0.72109246  0.62027774  1  0  -0.715964  0  1.998332  0  0  -0.678917  0  2.247906  0  0  -0.703724  0  2.234134  0  0  -0.40465  -0.660951  0  2.257155  0
O  O104  1  0.76469174  0.37713307  0.46053465  1  0  -0.744726  0  2.119011  0  0  -0.689607  0  2.358907  0  0  -0.717852  0  2.350165  0  0  -0.388586  -0.669196  0  2.364244  0
O  O105  1  0.26469544  0.62286902  0.46053637  1  0  -0.744878  0  2.118917  0  0  -0.689692  0  2.358795  0  0  -0.717945  0  2.350058  0  0  -0.388606  -0.669279  0  2.364136  0
O  O106  1  0.53551703  0.47709140  0.54040200  1  0  -0.795477  0  2.048411  0  0  -0.761331  0  2.315678  0  0  -0.786458  0  2.302777  0  0  -0.401914  -0.742766  0  2.323466  0
O  O107  1  0.03552040  0.52290494  0.54040079  1  0  -0.795572  0  2.048349  0  0  -0.761388  0  2.315589  0  0  -0.786514  0  2.302686  0  0  -0.401979  -0.742829  0  2.323393  0
O  O108  1  0.63700417  0.24761415  0.31940526  1  0  -0.661978  0  2.027043  0  0  -0.618283  0  2.274332  0  0  -0.642483  0  2.265  0  0  -0.354905  -0.600577  0  2.280208  0
O  O109  1  0.13700715  0.75238729  0.31940547  1  0  -0.662033  0  2.027219  0  0  -0.618336  0  2.274559  0  0  -0.642533  0  2.265222  0  0  -0.354911  -0.600632  0  2.28044  0
O  O110  1  0.22431153  0.47027853  0.77028981  1  0  -0.705452  0  2.082686  0  0  -0.665793  0  2.341008  0  0  -0.690155  0  2.328468  0  0  -0.386573  -0.648019  0  2.349423  0
O  O111  1  0.72431285  0.52972005  0.77028968  1  0  -0.705524  0  2.082612  0  0  -0.665876  0  2.340961  0  0  -0.690237  0  2.328418  0  0  -0.386606  -0.648105  0  2.34937  0
O  O112  1  0.32742616  0.37899393  0.43530237  1  0  -0.671384  0  1.977329  0  0  -0.618167  0  2.20752  0  0  -0.643662  0  2.198915  0  0  -0.33177  -0.600035  0  2.213464  0
O  O113  1  0.82743003  0.62100485  0.43530419  1  0  -0.671397  0  1.977336  0  0  -0.618168  0  2.207551  0  0  -0.643664  0  2.198947  0  0  -0.331796  -0.600034  0  2.213495  0
O  O114  1  0.01788818  0.56879610  0.77422657  1  0  -0.715528  0  2.066395  0  0  -0.675225  0  2.322654  0  0  -0.699695  0  2.309671  0  0  -0.390286  -0.657602  0  2.331705  0
O  O115  1  0.51788467  0.43120721  0.77422791  1  0  -0.71559  0  2.066334  0  0  -0.675267  0  2.322578  0  0  -0.699753  0  2.309631  0  0  -0.390328  -0.657647  0  2.331622  0
O  O116  1  0.91588540  0.16151366  0.48560506  1  0  -0.925468  0  1.91532  0  0  -0.887587  0  2.112291  0  0  -0.904416  0  2.075673  0  0  -0.649577  -0.874447  0  2.138607  0
O  O117  1  0.41588641  0.83848700  0.48560600  1  0  -0.925546  0  1.915193  0  0  -0.887655  0  2.112175  0  0  -0.904492  0  2.075546  0  0  -0.649574  -0.874512  0  2.138491  0
O  O118  1  0.64451468  0.82848365  0.31054194  1  0  -0.906132  0  1.903733  0  0  -0.866861  0  2.101728  0  0  -0.88443  0  2.06969  0  0  -0.632937  -0.853612  0  2.124554  0
O  O119  1  0.14451466  0.17151695  0.31054037  1  0  -0.90613  0  1.903805  0  0  -0.866838  0  2.101812  0  0  -0.884408  0  2.06979  0  0  -0.632924  -0.853588  0  2.12464  0
O  O120  1  0.35071669  0.68152183  0.69176832  1  0  -0.931819  0  1.879628  0  0  -0.887661  0  2.086168  0  0  -0.907969  0  2.051886  0  0  -0.662043  -0.872562  0  2.11  0
O  O121  1  0.85071507  0.31847939  0.69176740  1  0  -0.931856  0  1.879657  0  0  -0.887684  0  2.086181  0  0  -0.908008  0  2.051924  0  0  -0.662041  -0.872587  0  2.110012  0
