# generated using pymatgen
data_SmH4C6N2O7
_symmetry_space_group_name_H-M   'P 1'
_cell_length_a   6.76391908
_cell_length_b   11.37173563
_cell_length_c   13.27607550
_cell_angle_alpha   106.18969485
_cell_angle_beta   89.99620402
_cell_angle_gamma   107.28794109
_symmetry_Int_Tables_number   1
_chemical_formula_structural   SmH4C6N2O7
_chemical_formula_sum   'Sm4 H16 C24 N8 O28'
_cell_volume   932.53943638
_cell_formula_units_Z   4
loop_
 _symmetry_equiv_pos_site_id
 _symmetry_equiv_pos_as_xyz
  1  'x, y, z'
loop_
 _atom_site_type_symbol
 _atom_site_label
 _atom_site_symmetry_multiplicity
 _atom_site_fract_x
 _atom_site_fract_y
 _atom_site_fract_z
 _atom_site_occupancy
 _atom_site_hle17_bader_spin_density
 _atom_site_hle17_ddec_charge
 _atom_site_hle17_ddec_spin_density
 _atom_site_hle17_ddec_sum_bond_order
 _atom_site_hle17_magmom
 _atom_site_hse06_10hf_bader_spin_density
 _atom_site_hse06_10hf_ddec_charge
 _atom_site_hse06_10hf_ddec_spin_density
 _atom_site_hse06_10hf_ddec_sum_bond_order
 _atom_site_hse06_10hf_magmom
 _atom_site_hse06_bader_spin_density
 _atom_site_hse06_ddec_charge
 _atom_site_hse06_ddec_spin_density
 _atom_site_hse06_ddec_sum_bond_order
 _atom_site_hse06_magmom
 _atom_site_pbe_bader_spin_density
 _atom_site_pbe_cm5_charge
 _atom_site_pbe_ddec_charge
 _atom_site_pbe_ddec_spin_density
 _atom_site_pbe_ddec_sum_bond_order
 _atom_site_pbe_magmom
Sm  Sm0  1  0.77681509  0.70133523  0.88186641  1  0  2.282161  0  1.666729  0  0  2.118197  0  2.146572  0  0  2.224415  0  1.983519  0  0  1.520505  2.085598  0  2.178318  0
Sm  Sm1  1  0.07585051  0.29872751  0.61809316  1  0  2.281892  0  1.667929  0  0  2.118231  0  2.147026  0  0  2.223998  0  1.984803  0  0  1.520513  2.08565  0  2.17881  0
Sm  Sm2  1  0.22318143  0.29866712  0.11813803  1  0  2.282277  0  1.666719  0  0  2.118404  0  2.14643  0  0  2.224543  0  1.983504  0  0  1.520564  2.085775  0  2.178224  0
Sm  Sm3  1  0.92415156  0.70126522  0.38190444  1  0  2.281937  0  1.667895  0  0  2.118301  0  2.146963  0  0  2.224057  0  1.984759  0  0  1.520415  2.085754  0  2.178688  0
H  H4  1  0.36816596  0.87355041  0.80928262  1  0  0.101559  0  0.92563  0  0  0.110458  0  0.986262  0  0  0.113652  0  0.982324  0  0  0.142242  0.108179  0  0.988853  0
H  H5  1  0.49498651  0.12630006  0.69079595  1  0  0.10241  0  0.925  0  0  0.11066  0  0.986213  0  0  0.114011  0  0.982133  0  0  0.141925  0.108248  0  0.988957  0
H  H6  1  0.63183453  0.12645099  0.19071556  1  0  0.101528  0  0.925627  0  0  0.110423  0  0.986271  0  0  0.113616  0  0.982335  0  0  0.142204  0.108141  0  0.988864  0
H  H7  1  0.50501642  0.87370327  0.30920044  1  0  0.102365  0  0.925091  0  0  0.110613  0  0.986309  0  0  0.113963  0  0.98223  0  0  0.141892  0.1082  0  0.98905  0
H  H8  1  0.25266705  0.83680724  0.61570269  1  0  0.327374  0  0.893784  0  0  0.305711  0  0.956175  0  0  0.315462  0  0.947757  0  0  0.322965  0.298828  0  0.962157  0
H  H9  1  0.41631027  0.16303882  0.88440083  1  0  0.327731  0  0.893956  0  0  0.306043  0  0.956385  0  0  0.315819  0  0.947916  0  0  0.322916  0.299143  0  0.96237  0
H  H10  1  0.74733838  0.16319224  0.38429277  1  0  0.32738  0  0.893718  0  0  0.305738  0  0.956069  0  0  0.31549  0  0.947647  0  0  0.322982  0.298856  0  0.962052  0
H  H11  1  0.58370149  0.83696740  0.11559550  1  0  0.327646  0  0.893985  0  0  0.305943  0  0.956449  0  0  0.315719  0  0.947981  0  0  0.322856  0.299047  0  0.962431  0
H  H12  1  0.47724063  0.43447815  0.82372454  1  0  0.444522  0  0.852268  0  0  0.414235  0  0.914268  0  0  0.426044  0  0.897282  0  0  0.305772  0.405711  0  0.92672  0
H  H13  1  0.04254955  0.56556319  0.67629901  1  0  0.445028  0  0.851319  0  0  0.414762  0  0.913387  0  0  0.426542  0  0.896433  0  0  0.306102  0.406308  0  0.925753  0
H  H14  1  0.52275790  0.56552229  0.17627190  1  0  0.444529  0  0.852257  0  0  0.414245  0  0.91425  0  0  0.426054  0  0.897262  0  0  0.305767  0.405721  0  0.926702  0
H  H15  1  0.95744904  0.43443147  0.32369680  1  0  0.445027  0  0.851349  0  0  0.414791  0  0.91335  0  0  0.426567  0  0.896406  0  0  0.306144  0.40634  0  0.925714  0
H  H16  1  0.60561454  0.43561733  0.72877585  1  0  0.437264  0  0.85601  0  0  0.406185  0  0.922339  0  0  0.417153  0  0.906513  0  0  0.308235  0.398251  0  0.934034  0
H  H17  1  0.16966927  0.56431996  0.77123702  1  0  0.437355  0  0.855582  0  0  0.406562  0  0.921718  0  0  0.417527  0  0.905885  0  0  0.308653  0.398623  0  0.933419  0
H  H18  1  0.39438745  0.56438119  0.27122164  1  0  0.437285  0  0.855946  0  0  0.406204  0  0.92231  0  0  0.417173  0  0.90648  0  0  0.308241  0.39827  0  0.934003  0
H  H19  1  0.83033173  0.43567952  0.22875769  1  0  0.437305  0  0.85555  0  0  0.406539  0  0.921722  0  0  0.417507  0  0.905885  0  0  0.308635  0.398601  0  0.933421  0
C  C20  1  0.43913055  0.82750340  0.74255852  1  0  0.28344  0  3.626406  0  0  0.220059  0  3.914814  0  0  0.23474  0  3.924964  0  0  0.169029  0.210691  0  3.908621  0
C  C21  1  0.61200881  0.17237609  0.75750489  1  0  0.282115  0  3.629174  0  0  0.219543  0  3.9172  0  0  0.234102  0  3.92737  0  0  0.169003  0.210203  0  3.911031  0
C  C22  1  0.56087141  0.17249800  0.25744041  1  0  0.283503  0  3.626331  0  0  0.220122  0  3.914734  0  0  0.234804  0  3.924878  0  0  0.169039  0.210752  0  3.908542  0
C  C23  1  0.38799512  0.82762628  0.24249202  1  0  0.282171  0  3.629146  0  0  0.219605  0  3.917161  0  0  0.234165  0  3.927332  0  0  0.169057  0.210278  0  3.910996  0
C  C24  1  0.63003075  0.72905555  0.64269818  1  0  0.003755  0  3.756147  0  0  -0.001858  0  4.018678  0  0  -0.004239  0  4.040903  0  0  0.093939  -0.000748  0  4.00624  0
C  C25  1  0.90124073  0.27092887  0.85731723  1  0  0.00466  0  3.757236  0  0  -0.000968  0  4.019183  0  0  -0.003394  0  4.041473  0  0  0.094384  0.000186  0  4.006671  0
C  C26  1  0.36998008  0.27094584  0.35730301  1  0  0.003771  0  3.756146  0  0  -0.002037  0  4.01889  0  0  -0.004418  0  4.041112  0  0  0.093886  -0.000928  0  4.006451  0
C  C27  1  0.09876371  0.72907157  0.14267997  1  0  0.004667  0  3.757416  0  0  -0.000957  0  4.019343  0  0  -0.003386  0  4.041635  0  0  0.094334  0.000197  0  4.006831  0
C  C28  1  0.48691699  0.74476617  0.57577011  1  0  0.009174  0  3.643037  0  0  -0.005883  0  3.898623  0  0  -0.007321  0  3.915934  0  0  0.101173  -0.004887  0  3.886441  0
C  C29  1  0.74250571  0.25518847  0.92427660  1  0  0.009845  0  3.645578  0  0  -0.005111  0  3.900863  0  0  -0.006526  0  3.918258  0  0  0.101236  -0.004194  0  3.888689  0
C  C30  1  0.51309532  0.25523523  0.42422732  1  0  0.009167  0  3.64317  0  0  -0.005823  0  3.898758  0  0  -0.007261  0  3.916074  0  0  0.10123  -0.00483  0  3.886579  0
C  C31  1  0.25749673  0.74481389  0.07572181  1  0  0.009683  0  3.645882  0  0  -0.005255  0  3.901121  0  0  -0.00666  0  3.918508  0  0  0.101218  -0.004328  0  3.888951  0
C  C32  1  0.79068960  0.66304309  0.62165781  1  0  0.709476  0  3.878602  0  0  0.658122  0  4.17594  0  0  0.693806  0  4.166864  0  0  0.242249  0.633953  0  4.183974  0
C  C33  1  0.12787646  0.33690883  0.87832367  1  0  0.706091  0  3.883098  0  0  0.655301  0  4.179464  0  0  0.691012  0  4.17042  0  0  0.241365  0.631234  0  4.187224  0
C  C34  1  0.20931530  0.33695828  0.37835317  1  0  0.709434  0  3.878787  0  0  0.658163  0  4.176103  0  0  0.693848  0  4.167023  0  0  0.242221  0.633993  0  4.184138  0
C  C35  1  0.87212754  0.66308776  0.12167110  1  0  0.706047  0  3.883315  0  0  0.655236  0  4.179691  0  0  0.69095  0  4.170649  0  0  0.241309  0.631169  0  4.187452  0
C  C36  1  0.42798778  0.69472544  0.46072216  1  0  0.720505  0  3.884167  0  0  0.672404  0  4.178154  0  0  0.708526  0  4.167931  0  0  0.246718  0.648353  0  4.185667  0
C  C37  1  0.73365539  0.30537044  0.03932022  1  0  0.720806  0  3.886182  0  0  0.67281  0  4.179907  0  0  0.708908  0  4.169717  0  0  0.24725  0.648837  0  4.187204  0
C  C38  1  0.57201961  0.30527499  0.53927880  1  0  0.720554  0  3.884384  0  0  0.672482  0  4.178313  0  0  0.708601  0  4.168088  0  0  0.24667  0.648431  0  4.185827  0
C  C39  1  0.26634262  0.69463193  0.96067594  1  0  0.720749  0  3.885964  0  0  0.67277  0  4.179648  0  0  0.708863  0  4.169458  0  0  0.247177  0.648801  0  4.186947  0
C  C40  1  0.07171478  0.00331921  0.95427058  1  0  0.560614  0  3.943675  0  0  0.519419  0  4.242035  0  0  0.548507  0  4.238992  0  0  0.217034  0.499333  0  4.247986  0
C  C41  1  0.06817619  0.99660752  0.54580742  1  0  0.563358  0  3.943201  0  0  0.522003  0  4.241754  0  0  0.551098  0  4.238679  0  0  0.218599  0.5019  0  4.24762  0
C  C42  1  0.92826198  0.99668502  0.04574938  1  0  0.561308  0  3.943245  0  0  0.520117  0  4.241587  0  0  0.549207  0  4.238534  0  0  0.21734  0.500025  0  4.247543  0
C  C43  1  0.93183600  0.00340252  0.45420413  1  0  0.563253  0  3.943236  0  0  0.522007  0  4.241695  0  0  0.5511  0  4.238625  0  0  0.218626  0.501903  0  4.24756  0
N  N44  1  0.59614322  0.77993643  0.74617219  1  0  -0.497303  0  3.163675  0  0  -0.456115  0  3.452873  0  0  -0.478381  0  3.468008  0  0  -0.386451  -0.44612  0  3.443191  0
N  N45  1  0.81652291  0.21999566  0.75384026  1  0  -0.497078  0  3.163403  0  0  -0.456115  0  3.452307  0  0  -0.47829  0  3.467535  0  0  -0.385979  -0.446144  0  3.442563  0
N  N46  1  0.40385678  0.22006401  0.25382651  1  0  -0.497324  0  3.163504  0  0  -0.456089  0  3.452737  0  0  -0.478343  0  3.467865  0  0  -0.386433  -0.446093  0  3.443057  0
N  N47  1  0.18347809  0.78000382  0.24615746  1  0  -0.497079  0  3.163326  0  0  -0.456119  0  3.452222  0  0  -0.478296  0  3.467453  0  0  -0.385948  -0.446153  0  3.442476  0
N  N48  1  0.36984502  0.80782563  0.64186851  1  0  -0.277953  0  3.391749  0  0  -0.213689  0  3.626416  0  0  -0.228773  0  3.637799  0  0  -0.352707  -0.203357  0  3.617816  0
N  N49  1  0.56240151  0.19210075  0.85820903  1  0  -0.278752  0  3.393564  0  0  -0.215015  0  3.628644  0  0  -0.23018  0  3.640153  0  0  -0.353067  -0.204607  0  3.620005  0
N  N50  1  0.63015498  0.19217481  0.35812719  1  0  -0.277972  0  3.39187  0  0  -0.213719  0  3.626505  0  0  -0.228799  0  3.637888  0  0  -0.352707  -0.203388  0  3.617906  0
N  N51  1  0.43759943  0.80790451  0.14178782  1  0  -0.278546  0  3.393489  0  0  -0.214811  0  3.628564  0  0  -0.229978  0  3.640072  0  0  -0.353031  -0.204433  0  3.619944  0
O  O52  1  0.24693847  0.68771914  0.42946697  1  0  -0.730777  0  2.062934  0  0  -0.679819  0  2.326714  0  0  -0.712431  0  2.309151  0  0  -0.408706  -0.663083  0  2.335362  0
O  O53  1  0.55970281  0.31250572  0.07061795  1  0  -0.731317  0  2.062659  0  0  -0.680284  0  2.326136  0  0  -0.712881  0  2.308448  0  0  -0.408472  -0.663617  0  2.334885  0
O  O54  1  0.75306652  0.31227648  0.57053133  1  0  -0.730813  0  2.06303  0  0  -0.679853  0  2.326772  0  0  -0.712492  0  2.309266  0  0  -0.408733  -0.663111  0  2.335427  0
O  O55  1  0.44029225  0.68749666  0.92937670  1  0  -0.731265  0  2.062548  0  0  -0.680215  0  2.32601  0  0  -0.712824  0  2.308319  0  0  -0.408458  -0.663551  0  2.334756  0
O  O56  1  0.55588027  0.65933240  0.39811598  1  0  -0.727597  0  2.054989  0  0  -0.668662  0  2.302631  0  0  -0.702051  0  2.287817  0  0  -0.376119  -0.650829  0  2.310305  0
O  O57  1  0.89699375  0.34082024  0.10188220  1  0  -0.72769  0  2.056975  0  0  -0.66886  0  2.304633  0  0  -0.70231  0  2.28983  0  0  -0.376498  -0.650985  0  2.312067  0
O  O58  1  0.44412228  0.34066130  0.60188111  1  0  -0.7276  0  2.055134  0  0  -0.668696  0  2.302772  0  0  -0.702083  0  2.28796  0  0  -0.376067  -0.650859  0  2.310451  0
O  O59  1  0.10301156  0.65919080  0.89811529  1  0  -0.727661  0  2.056932  0  0  -0.668837  0  2.304589  0  0  -0.702299  0  2.289786  0  0  -0.376435  -0.650968  0  2.312026  0
O  O60  1  0.84620576  0.62593754  0.53082332  1  0  -0.688653  0  2.023547  0  0  -0.641443  0  2.277591  0  0  -0.672217  0  2.261683  0  0  -0.391846  -0.625482  0  2.285796  0
O  O61  1  0.22059321  0.37376752  0.96909995  1  0  -0.687547  0  2.025412  0  0  -0.64052  0  2.279001  0  0  -0.671338  0  2.263034  0  0  -0.391755  -0.624559  0  2.287062  0
O  O62  1  0.15379090  0.37405327  0.46917382  1  0  -0.688438  0  2.024068  0  0  -0.641225  0  2.278065  0  0  -0.671993  0  2.262153  0  0  -0.391749  -0.62526  0  2.286276  0
O  O63  1  0.77941229  0.62622617  0.03089788  1  0  -0.687511  0  2.025558  0  0  -0.640493  0  2.279229  0  0  -0.671312  0  2.263231  0  0  -0.391743  -0.624537  0  2.287287  0
O  O64  1  0.86895892  0.64627154  0.70276391  1  0  -0.716554  0  2.054534  0  0  -0.651714  0  2.296503  0  0  -0.684447  0  2.281499  0  0  -0.376636  -0.63367  0  2.304881  0
O  O65  1  0.22278058  0.35385228  0.79722497  1  0  -0.715133  0  2.056171  0  0  -0.650091  0  2.297059  0  0  -0.682814  0  2.282198  0  0  -0.376184  -0.631948  0  2.305167  0
O  O66  1  0.13104208  0.35372793  0.29723833  1  0  -0.716679  0  2.054244  0  0  -0.651863  0  2.296152  0  0  -0.684598  0  2.281162  0  0  -0.376685  -0.633818  0  2.304532  0
O  O67  1  0.77722290  0.64614623  0.20277327  1  0  -0.715093  0  2.056074  0  0  -0.650055  0  2.297027  0  0  -0.682783  0  2.282168  0  0  -0.376135  -0.631921  0  2.305133  0
O  O68  1  0.62053352  0.47541817  0.80593445  1  0  -0.911125  0  1.843352  0  0  -0.865803  0  2.045187  0  0  -0.892793  0  2.006136  0  0  -0.65551  -0.852567  0  2.069323  0
O  O69  1  0.14489570  0.52458842  0.69407040  1  0  -0.911945  0  1.843104  0  0  -0.866874  0  2.044943  0  0  -0.893795  0  2.005992  0  0  -0.65639  -0.853728  0  2.06894  0
O  O70  1  0.37946549  0.52458323  0.19406373  1  0  -0.911178  0  1.84332  0  0  -0.865877  0  2.045188  0  0  -0.892855  0  2.006137  0  0  -0.655511  -0.852641  0  2.069327  0
O  O71  1  0.85510190  0.47540721  0.30592640  1  0  -0.911941  0  1.843084  0  0  -0.866928  0  2.045019  0  0  -0.893849  0  2.006068  0  0  -0.656452  -0.853782  0  2.068981  0
O  O72  1  0.20119646  0.11318754  0.96208130  1  0  -0.678951  0  2.101037  0  0  -0.628567  0  2.342135  0  0  -0.659472  0  2.331423  0  0  -0.360159  -0.611929  0  2.348005  0
O  O73  1  0.08688397  0.88655035  0.53821984  1  0  -0.680776  0  2.100881  0  0  -0.630476  0  2.342235  0  0  -0.661301  0  2.331526  0  0  -0.360933  -0.613796  0  2.348147  0
O  O74  1  0.79879261  0.88681766  0.03793813  1  0  -0.679183  0  2.101055  0  0  -0.628778  0  2.342159  0  0  -0.659698  0  2.331449  0  0  -0.360191  -0.612144  0  2.34803  0
O  O75  1  0.91311571  0.11343465  0.46178343  1  0  -0.680482  0  2.101486  0  0  -0.63021  0  2.342789  0  0  -0.661029  0  2.332086  0  0  -0.360774  -0.613526  0  2.348698  0
O  O76  1  0.04984583  0.90103868  0.88094484  1  0  -0.650402  0  2.033437  0  0  -0.610924  0  2.277242  0  0  -0.639682  0  2.265493  0  0  -0.361757  -0.596002  0  2.283587  0
O  O77  1  0.14915330  0.09894505  0.61896429  1  0  -0.651666  0  2.0341  0  0  -0.612076  0  2.277819  0  0  -0.640783  0  2.266135  0  0  -0.362624  -0.59713  0  2.284176  0
O  O78  1  0.95012393  0.09897520  0.11907140  1  0  -0.650862  0  2.033188  0  0  -0.611404  0  2.277004  0  0  -0.640155  0  2.265253  0  0  -0.361973  -0.596477  0  2.283353  0
O  O79  1  0.85084045  0.90104287  0.38103215  1  0  -0.651871  0  2.033413  0  0  -0.612302  0  2.277073  0  0  -0.64102  0  2.265401  0  0  -0.362794  -0.597355  0  2.283425  0
