# generated using pymatgen
data_UH6C8O7
_symmetry_space_group_name_H-M   'P 1'
_cell_length_a   6.58247983
_cell_length_b   8.14391024
_cell_length_c   10.25187132
_cell_angle_alpha   93.83639232
_cell_angle_beta   98.00767463
_cell_angle_gamma   102.38985852
_symmetry_Int_Tables_number   1
_chemical_formula_structural   UH6C8O7
_chemical_formula_sum   'U2 H12 C16 O14'
_cell_volume   528.87134388
_cell_formula_units_Z   2
loop_
 _symmetry_equiv_pos_site_id
 _symmetry_equiv_pos_as_xyz
  1  'x, y, z'
loop_
 _atom_site_type_symbol
 _atom_site_label
 _atom_site_symmetry_multiplicity
 _atom_site_fract_x
 _atom_site_fract_y
 _atom_site_fract_z
 _atom_site_occupancy
 _atom_site_hle17_bader_spin_density
 _atom_site_hle17_ddec_charge
 _atom_site_hle17_ddec_spin_density
 _atom_site_hle17_ddec_sum_bond_order
 _atom_site_hle17_magmom
 _atom_site_hse06_10hf_bader_spin_density
 _atom_site_hse06_10hf_ddec_charge
 _atom_site_hse06_10hf_ddec_spin_density
 _atom_site_hse06_10hf_ddec_sum_bond_order
 _atom_site_hse06_10hf_magmom
 _atom_site_hse06_bader_spin_density
 _atom_site_hse06_ddec_charge
 _atom_site_hse06_ddec_spin_density
 _atom_site_hse06_ddec_sum_bond_order
 _atom_site_hse06_magmom
 _atom_site_pbe_bader_spin_density
 _atom_site_pbe_cm5_charge
 _atom_site_pbe_ddec_charge
 _atom_site_pbe_ddec_spin_density
 _atom_site_pbe_ddec_sum_bond_order
 _atom_site_pbe_magmom
U  U0  1  0.17687601  0.06229996  0.27113998  1  0  2.499589  0  4.109658  0  0  2.562322  0  4.7612  0  0  2.668435  0  4.725624  0  0  2.184263  2.486582  0  4.787145  0
U  U1  1  0.82313164  0.93772457  0.72885412  1  0  2.499894  0  4.109417  0  0  2.562546  0  4.761108  0  0  2.668645  0  4.725539  0  0  2.184358  2.486747  0  4.787119  0
H  H2  1  0.67980380  0.47250988  0.38157168  1  0  0.1113  0  0.92064  0  0  0.12292  0  0.973168  0  0  0.125717  0  0.972233  0  0  0.117426  0.120928  0  0.973975  0
H  H3  1  0.32020915  0.52747757  0.61843341  1  0  0.111207  0  0.920509  0  0  0.122889  0  0.972978  0  0  0.125686  0  0.972044  0  0  0.117381  0.120891  0  0.973787  0
H  H4  1  0.69166279  0.70499858  0.23577729  1  0  0.092078  0  0.949365  0  0  0.102124  0  1.009389  0  0  0.105178  0  1.007351  0  0  0.110367  0.099962  0  1.010757  0
H  H5  1  0.30834024  0.29499769  0.76423510  1  0  0.092039  0  0.949398  0  0  0.102067  0  1.009468  0  0  0.105121  0  1.00743  0  0  0.110364  0.099896  0  1.010833  0
H  H6  1  0.74165818  0.65816664  0.00189104  1  0  0.109154  0  0.955126  0  0  0.117408  0  1.017041  0  0  0.120974  0  1.014984  0  0  0.11109  0.114901  0  1.018656  0
H  H7  1  0.25832729  0.34183637  0.99811016  1  0  0.10916  0  0.955101  0  0  0.11739  0  1.01705  0  0  0.120954  0  1.014995  0  0  0.111061  0.114878  0  1.018671  0
H  H8  1  0.77017748  0.37529618  0.91101869  1  0  0.111563  0  0.930567  0  0  0.122606  0  0.986103  0  0  0.12564  0  0.984699  0  0  0.118438  0.120569  0  0.98701  0
H  H9  1  0.22980495  0.62470180  0.08898189  1  0  0.111556  0  0.930494  0  0  0.122604  0  0.986029  0  0  0.125638  0  0.984622  0  0  0.118457  0.120565  0  0.986944  0
H  H10  1  0.35845753  0.09624933  0.56102526  1  0  0.435067  0  0.851645  0  0  0.408421  0  0.914163  0  0  0.420994  0  0.895721  0  0  0.313271  0.399413  0  0.927327  0
H  H11  1  0.64154429  0.90373986  0.43896218  1  0  0.435021  0  0.851684  0  0  0.408369  0  0.914234  0  0  0.420945  0  0.895786  0  0  0.313236  0.399357  0  0.927402  0
H  H12  1  0.15883002  0.17344934  0.55021928  1  0  0.444235  0  0.820193  0  0  0.422473  0  0.885769  0  0  0.432683  0  0.870736  0  0  0.325418  0.415102  0  0.896346  0
H  H13  1  0.84117219  0.82653712  0.44977681  1  0  0.444204  0  0.820183  0  0  0.422429  0  0.885826  0  0  0.432638  0  0.870793  0  0  0.325383  0.415053  0  0.896373  0
C  C14  1  0.78074777  0.10229158  0.03879602  1  0  0.718894  0  3.802241  0  0  0.689145  0  4.092478  0  0  0.731133  0  4.076673  0  0  0.257586  0.659835  0  4.102576  0
C  C15  1  0.21925431  0.89773545  0.96120253  1  0  0.718945  0  3.80236  0  0  0.689158  0  4.092652  0  0  0.731139  0  4.076853  0  0  0.257676  0.65985  0  4.102748  0
C  C16  1  0.72425396  0.15833974  0.32087928  1  0  0.72336  0  3.806894  0  0  0.689211  0  4.095044  0  0  0.729164  0  4.079937  0  0  0.261683  0.661101  0  4.104857  0
C  C17  1  0.27573831  0.84164938  0.67911593  1  0  0.723404  0  3.806881  0  0  0.689174  0  4.095203  0  0  0.729144  0  4.080078  0  0  0.261683  0.661058  0  4.105012  0
C  C18  1  0.72623464  0.29409485  0.22937819  1  0  -0.077701  0  3.75394  0  0  -0.074523  0  4.001142  0  0  -0.079121  0  4.022225  0  0  0.003588  -0.070989  0  3.986563  0
C  C19  1  0.27376835  0.70590031  0.77062632  1  0  -0.077679  0  3.754049  0  0  -0.074485  0  4.001253  0  0  -0.079091  0  4.022339  0  0  0.003611  -0.070951  0  3.986666  0
C  C20  1  0.70357032  0.45189498  0.27914203  1  0  -0.061278  0  3.697631  0  0  -0.086306  0  3.953615  0  0  -0.088705  0  3.973986  0  0  -0.070765  -0.084468  0  3.939265  0
C  C21  1  0.29643600  0.54810752  0.72087401  1  0  -0.061384  0  3.697651  0  0  -0.086426  0  3.953607  0  0  -0.088823  0  3.973983  0  0  -0.070784  -0.084582  0  3.939242  0
C  C22  1  0.71002228  0.58227169  0.19719591  1  0  -0.00953  0  3.701721  0  0  -0.030447  0  3.96051  0  0  -0.030312  0  3.979777  0  0  -0.065336  -0.029903  0  3.946556  0
C  C23  1  0.28997283  0.41771837  0.80281332  1  0  -0.009436  0  3.701301  0  0  -0.030352  0  3.960103  0  0  -0.03022  0  3.979373  0  0  -0.065331  -0.029797  0  3.946132  0
C  C24  1  0.73687379  0.55624212  0.06559538  1  0  -0.062456  0  3.729563  0  0  -0.077207  0  3.986488  0  0  -0.080298  0  4.00777  0  0  -0.076896  -0.074967  0  3.971601  0
C  C25  1  0.26312005  0.44376949  0.93441601  1  0  -0.062359  0  3.729513  0  0  -0.077088  0  3.986424  0  0  -0.080178  0  4.007707  0  0  -0.07686  -0.074859  0  3.971559  0
C  C26  1  0.75257363  0.39785494  0.01428607  1  0  -0.04169  0  3.703269  0  0  -0.068019  0  3.955529  0  0  -0.067762  0  3.976638  0  0  -0.066869  -0.068052  0  3.940895  0
C  C27  1  0.24742010  0.60214029  0.98571943  1  0  -0.041797  0  3.703509  0  0  -0.068112  0  3.955788  0  0  -0.067853  0  3.976888  0  0  -0.066884  -0.068141  0  3.941153  0
C  C28  1  0.74981496  0.26591848  0.09557617  1  0  -0.103833  0  3.749406  0  0  -0.094658  0  3.987133  0  0  -0.103626  0  4.009442  0  0  -0.005467  -0.088518  0  3.971984  0
C  C29  1  0.25019209  0.73408038  0.90443192  1  0  -0.103783  0  3.749198  0  0  -0.094647  0  3.986993  0  0  -0.103609  0  4.009302  0  0  -0.005565  -0.088511  0  3.971846  0
O  O30  1  0.10219553  0.85523854  0.32782767  1  0  -0.708  0  1.54376  0  0  -0.714121  0  1.818565  0  0  -0.734461  0  1.805031  0  0  -0.759123  -0.702578  0  1.829083  0
O  O31  1  0.89780606  0.14477993  0.67215567  1  0  -0.70818  0  1.54379  0  0  -0.714312  0  1.818649  0  0  -0.734653  0  1.805116  0  0  -0.759265  -0.702762  0  1.829181  0
O  O32  1  0.24286044  0.27122605  0.21922241  1  0  -0.693128  0  1.58768  0  0  -0.700563  0  1.871307  0  0  -0.723267  0  1.863033  0  0  -0.752925  -0.687435  0  1.878102  0
O  O33  1  0.75715611  0.72880224  0.78076993  1  0  -0.69308  0  1.58761  0  0  -0.700479  0  1.871228  0  0  -0.723177  0  1.862953  0  0  -0.752848  -0.687344  0  1.878033  0
O  O34  1  0.89922095  0.13423421  0.37557696  1  0  -0.67528  0  2.097787  0  0  -0.652502  0  2.355232  0  0  -0.6872  0  2.34769  0  0  -0.355256  -0.62641  0  2.359203  0
O  O35  1  0.10076415  0.86575231  0.62442417  1  0  -0.675303  0  2.0979  0  0  -0.652483  0  2.355399  0  0  -0.687186  0  2.347847  0  0  -0.355225  -0.626385  0  2.359373  0
O  O36  1  0.86789091  0.00832433  0.11370194  1  0  -0.659962  0  2.037407  0  0  -0.648796  0  2.306561  0  0  -0.685217  0  2.300369  0  0  -0.359912  -0.622077  0  2.309403  0
O  O37  1  0.13212392  0.99168466  0.88630368  1  0  -0.659904  0  2.037919  0  0  -0.648679  0  2.307072  0  0  -0.685089  0  2.300876  0  0  -0.359873  -0.621958  0  2.30992  0
O  O38  1  0.72240332  0.06098367  0.91487989  1  0  -0.658225  0  2.050538  0  0  -0.650849  0  2.322623  0  0  -0.685951  0  2.314347  0  0  -0.370781  -0.624977  0  2.327132  0
O  O39  1  0.27759011  0.93902557  0.08512351  1  0  -0.658319  0  2.050357  0  0  -0.650944  0  2.322451  0  0  -0.686048  0  2.314184  0  0  -0.370874  -0.625088  0  2.326976  0
O  O40  1  0.54983500  0.07098401  0.34563312  1  0  -0.653946  0  2.008615  0  0  -0.623627  0  2.253679  0  0  -0.656972  0  2.24396  0  0  -0.329789  -0.598961  0  2.259422  0
O  O41  1  0.45016179  0.92899885  0.65435536  1  0  -0.653957  0  2.008494  0  0  -0.623638  0  2.253665  0  0  -0.656967  0  2.24389  0  0  -0.3298  -0.598968  0  2.25941  0
O  O42  1  0.28814582  0.17528785  0.51209872  1  0  -0.840268  0  1.851272  0  0  -0.81504  0  2.037827  0  0  -0.837066  0  2.006692  0  0  -0.58999  -0.799051  0  2.059216  0
O  O43  1  0.71185065  0.82469995  0.48789685  1  0  -0.840196  0  1.851245  0  0  -0.814954  0  2.037851  0  0  -0.836979  0  2.006722  0  0  -0.589922  -0.798957  0  2.059212  0
