# generated using pymatgen
data_AlH10(C5O2)3
_symmetry_space_group_name_H-M   'P 1'
_cell_length_a   6.66188108
_cell_length_b   11.13764275
_cell_length_c   17.65904819
_cell_angle_alpha   83.84956739
_cell_angle_beta   80.93486692
_cell_angle_gamma   71.51530073
_symmetry_Int_Tables_number   1
_chemical_formula_structural   AlH10(C5O2)3
_chemical_formula_sum   'Al2 H20 C30 O12'
_cell_volume   1224.85079306
_cell_formula_units_Z   2
loop_
 _symmetry_equiv_pos_site_id
 _symmetry_equiv_pos_as_xyz
  1  'x, y, z'
loop_
 _atom_site_type_symbol
 _atom_site_label
 _atom_site_symmetry_multiplicity
 _atom_site_fract_x
 _atom_site_fract_y
 _atom_site_fract_z
 _atom_site_occupancy
 _atom_site_pbe_bader_charge
 _atom_site_pbe_bader_spin_density
 _atom_site_pbe_cm5_charge
 _atom_site_pbe_ddec_charge
 _atom_site_pbe_ddec_spin_density
 _atom_site_pbe_ddec_sum_bond_order
 _atom_site_pbe_magmom
Al  Al0  1  0.48864198  0.50276157  0.50257655  1  2.503653  0  0.394583  1.645143  0  2.584948  0
Al  Al1  1  0.98835610  0.50265875  0.50195175  1  2.499915  0  0.397902  1.633247  0  2.579121  0
H  H2  1  0.29974529  0.34876351  0.54308611  1  0.619921  0  0.352439  0.427695  0  0.85852  0
H  H3  1  0.67489594  0.65868133  0.46707120  1  0.608643  0  0.341817  0.413312  0  0.892246  0
H  H4  1  0.64264673  0.54028157  0.27843880  1  0.091545  0  0.110509  0.119999  0  1.007788  0
H  H5  1  0.73737339  0.53633049  0.13569183  1  0.113329  0  0.099929  0.110114  0  1.035608  0
H  H6  1  0.04780301  0.47596074  0.26161767  1  0.119925  0  0.117014  0.140871  0  0.988583  0
H  H7  1  0.93468236  0.52751419  0.74175804  1  0.117433  0  0.11778  0.142991  0  0.987787  0
H  H8  1  0.33456270  0.46855924  0.72652319  1  0.101511  0  0.111259  0.12203  0  1.002531  0
H  H9  1  0.24290733  0.47234059  0.86925233  1  0.112376  0  0.099747  0.10987  0  1.038547  0
H  H10  1  0.22796707  0.23403249  0.39014790  1  0.092054  0  0.103617  0.11564  0  1.032861  0
H  H11  1  0.43750685  0.76441126  0.40059998  1  0.060174  0  0.105189  0.108458  0  1.055358  0
H  H12  1  0.75122902  0.88936619  0.55333561  1  0.078982  0  0.112271  0.118263  0  0.982146  0
H  H13  1  0.63833283  0.12616296  0.54359246  1  0.073142  0  0.109075  0.110293  0  0.993233  0
H  H14  1  0.17485033  0.46745626  0.05739426  1  0.618018  0  0.318068  0.347029  0  0.919156  0
H  H15  1  0.81123616  0.53609169  0.94614482  1  0.593826  0  0.317619  0.345718  0  0.920316  0
H  H16  1  0.76304409  0.10784573  0.32332338  1  0.056505  0  0.092935  0.129405  0  1.000315  0
H  H17  1  0.53274264  0.23591768  0.30509070  1  0.044689  0  0.089665  0.127426  0  1.018538  0
H  H18  1  0.63261768  0.10745081  0.24374611  1  0.060771  0  0.092461  0.124667  0  0.993123  0
H  H19  1  0.73167633  0.87597083  0.24972006  1  0.020516  0  0.092808  0.124836  0  0.993718  0
H  H20  1  0.75670701  0.75076193  0.32274471  1  0.027701  0  0.094599  0.135248  0  1.000517  0
H  H21  1  0.86989775  0.87383536  0.32755256  1  0.036839  0  0.093092  0.129771  0  0.999581  0
C  C22  1  0.85951997  0.27721137  0.48557994  1  1.577568  0  0.273505  0.655676  0  4.075626  0
C  C23  1  0.68919007  0.49421727  0.64109986  1  1.593741  0  0.26656  0.634216  0  4.102889  0
C  C24  1  0.12485802  0.73001573  0.50365760  1  1.595815  0  0.274012  0.655897  0  4.077338  0
C  C25  1  0.28868837  0.51171437  0.36279253  1  1.579695  0  0.261927  0.623546  0  4.118523  0
C  C26  1  0.34005345  0.50965451  0.27752939  1  -0.046405  0  -0.012781  -0.022176  0  4.005472  0
C  C27  1  0.53444251  0.52658401  0.24234889  1  -0.026411  0  -0.091082  -0.117996  0  4.00195  0
C  C28  1  0.58584963  0.52499330  0.16329590  1  0.018255  0  -0.084231  -0.102168  0  3.974491  0
C  C29  1  0.44347880  0.50636402  0.11784440  1  0.101697  0  -0.018922  0.01033  0  4.141157  0
C  C30  1  0.24815527  0.48824139  0.15409444  1  0.422061  0  0.090109  0.272895  0  4.043914  0
C  C31  1  0.19700749  0.49025553  0.23355997  1  0.034086  0  -0.090248  -0.211668  0  3.936811  0
C  C32  1  0.48502266  0.50453968  0.03710762  1  -0.232759  0  -0.045016  -0.1162  0  4.166527  0
C  C33  1  0.49894570  0.50146431  0.96714662  1  -0.196733  0  -0.042353  -0.108373  0  4.164724  0
C  C34  1  0.53939464  0.49969011  0.88639024  1  0.096313  0  -0.019505  0.006427  0  4.142414  0
C  C35  1  0.73520247  0.51639998  0.84967160  1  0.424143  0  0.089655  0.273935  0  4.043144  0
C  C36  1  0.78489060  0.51446492  0.77013241  1  0.038909  0  -0.090062  -0.210454  0  3.930908  0
C  C37  1  0.63967160  0.49660258  0.72651101  1  -0.00815  0  -0.011064  -0.017625  0  3.98839  0
C  C38  1  0.44464335  0.48116714  0.76223197  1  -0.039256  0  -0.090669  -0.116397  0  3.997931  0
C  C39  1  0.39490330  0.48255194  0.84133235  1  -0.014165  0  -0.085383  -0.10313  0  3.976093  0
C  C40  1  0.93340116  0.13706355  0.47961020  1  -0.042633  0  -0.007328  -0.08362  0  3.939023  0
C  C41  1  0.13717093  0.06969743  0.44060633  1  -0.004938  0  -0.003271  0.057032  0  3.986161  0
C  C42  1  0.79501223  0.07231224  0.51649396  1  0.071941  0  -0.081553  -0.091318  0  4.006732  0
C  C43  1  0.27524393  0.13076674  0.39423811  1  0.004856  0  -0.096354  -0.201569  0  3.948333  0
C  C44  1  0.46563458  0.06401241  0.35319479  1  -0.023633  0  -0.006704  0.120053  0  3.951139  0
C  C45  1  0.05965128  0.87051924  0.48946158  1  -0.077867  0  -0.007378  -0.08101  0  3.938317  0
C  C46  1  0.85795890  0.93947452  0.52181966  1  -0.072821  0  -0.08236  -0.097791  0  4.005454  0
C  C47  1  0.20007530  0.93338382  0.44490824  1  -0.057729  0  -0.003258  0.060152  0  3.982179  0
C  C48  1  0.39439368  0.86718688  0.40123717  1  0.031605  0  -0.099939  -0.21446  0  3.967058  0
C  C49  1  0.52686972  0.92840112  0.35672376  1  -0.05324  0  -0.007871  0.120885  0  3.954534  0
C  C50  1  0.60486955  0.13283502  0.30393458  1  -0.097941  0  -0.235778  -0.397045  0  3.96582  0
C  C51  1  0.73127967  0.85303229  0.31196409  1  -0.022084  0  -0.235317  -0.401628  0  3.965194  0
O  O52  1  0.66207875  0.33374740  0.48183605  1  -1.268376  0  -0.233726  -0.593391  0  2.339607  0
O  O53  1  0.86772271  0.50675476  0.60955601  1  -1.258618  0  -0.237285  -0.585334  0  2.321057  0
O  O54  1  0.98472424  0.67550919  0.50045470  1  -1.267353  0  -0.231742  -0.591778  0  2.338984  0
O  O55  1  0.42879634  0.52944185  0.39807056  1  -1.263998  0  -0.237884  -0.598712  0  2.389991  0
O  O56  1  0.31403532  0.67378128  0.51874312  1  -1.269556  0  -0.235366  -0.591261  0  2.342668  0
O  O57  1  0.11115148  0.49707626  0.39372145  1  -1.254109  0  -0.237967  -0.585651  0  2.338654  0
O  O58  1  0.99437054  0.33043469  0.49742697  1  -1.262982  0  -0.231657  -0.594143  0  2.35353  0
O  O59  1  0.54649097  0.47821602  0.60634127  1  -1.268077  0  -0.237444  -0.598974  0  2.368841  0
O  O60  1  0.25807559  0.44002828  0.53296209  1  -1.423101  0  -0.447713  -0.985205  0  2.189923  0
O  O61  1  0.71823875  0.56655610  0.47120416  1  -1.416319  0  -0.451795  -0.988502  0  2.202703  0
O  O62  1  0.10905384  0.46849804  0.11123508  1  -1.153354  0  -0.345017  -0.433255  0  2.293386  0
O  O63  1  0.87619343  0.53484542  0.89220956  1  -1.119546  0  -0.344125  -0.432236  0  2.297173  0
