# generated using pymatgen
data_ZnH10C15N3O4
_symmetry_space_group_name_H-M   'P 1'
_cell_length_a   11.26390101
_cell_length_b   15.85794709
_cell_length_c   17.28878607
_cell_angle_alpha   86.61928914
_cell_angle_beta   86.43964542
_cell_angle_gamma   70.85826414
_symmetry_Int_Tables_number   1
_chemical_formula_structural   ZnH10C15N3O4
_chemical_formula_sum   'Zn2 H20 C30 N6 O8'
_cell_volume   2909.34718451
_cell_formula_units_Z   2
loop_
 _symmetry_equiv_pos_site_id
 _symmetry_equiv_pos_as_xyz
  1  'x, y, z'
loop_
 _atom_site_type_symbol
 _atom_site_label
 _atom_site_symmetry_multiplicity
 _atom_site_fract_x
 _atom_site_fract_y
 _atom_site_fract_z
 _atom_site_occupancy
 _atom_site_pbe_bader_charge
 _atom_site_pbe_bader_spin_density
 _atom_site_pbe_cm5_charge
 _atom_site_pbe_ddec_charge
 _atom_site_pbe_ddec_spin_density
 _atom_site_pbe_ddec_sum_bond_order
 _atom_site_pbe_magmom
Zn  Zn0  1  0.48049924  0.59068077  0.50276699  1  1.283898  0  0.661686  0.812305  0  2.439141  0
Zn  Zn1  1  0.52026666  0.40832097  0.50215622  1  1.284542  0  0.661567  0.812401  0  2.437075  0
H  H2  1  0.13033946  0.42281049  0.50826374  1  0.115581  0  0.104601  0.10251  0  0.990093  0
H  H3  1  0.86866603  0.57460158  0.51538801  1  0.101597  0  0.10513  0.104086  0  0.988353  0
H  H4  1  0.65890362  0.25494113  0.40528268  1  0.151328  0  0.13401  0.109823  0  0.961389  0
H  H5  1  0.34090629  0.74556159  0.59745693  1  0.115948  0  0.134442  0.110739  0  0.959577  0
H  H6  1  0.05843854  0.62743675  0.51511445  1  0.06712  0  0.103648  0.120087  0  0.991491  0
H  H7  1  0.94262503  0.37055107  0.50229711  1  0.042505  0  0.103404  0.119149  0  0.992077  0
H  H8  1  0.49885996  0.61445563  0.89327482  1  0.097147  0  0.103637  0.103521  0  1.02081  0
H  H9  1  0.57921774  0.37610641  0.10959585  1  0.130071  0  0.103547  0.104149  0  1.019305  0
H  H10  1  0.49595450  0.66058318  0.10652827  1  0.071812  0  0.105194  0.106767  0  0.99799  0
H  H11  1  0.56768903  0.33144761  0.89555130  1  0.09003  0  0.105171  0.106341  0  0.998457  0
H  H12  1  0.48615968  0.65577018  0.25305643  1  0.092488  0  0.104093  0.108616  0  1.000343  0
H  H13  1  0.54788123  0.34034495  0.75023866  1  0.101675  0  0.103908  0.109284  0  0.999625  0
H  H14  1  0.61081405  0.70446996  0.41783323  1  0.149771  0  0.133306  0.110674  0  0.963361  0
H  H15  1  0.38682197  0.29425097  0.58352321  1  0.122024  0  0.133469  0.110813  0  0.962886  0
H  H16  1  0.61779215  0.86231004  0.42182296  1  0.134187  0  0.118852  0.126925  0  0.999446  0
H  H17  1  0.38028812  0.13653774  0.57779447  1  0.143071  0  0.118847  0.126608  0  1.000879  0
H  H18  1  0.66301519  0.09537855  0.39091597  1  0.09776  0  0.122253  0.132635  0  0.976936  0
H  H19  1  0.33661466  0.90552281  0.60971737  1  0.086238  0  0.122473  0.132535  0  0.976998  0
H  H20  1  0.47836527  0.62286332  0.74856315  1  0.099005  0  0.101921  0.105614  0  1.004158  0
H  H21  1  0.56919167  0.37171808  0.25561701  1  0.086673  0  0.101811  0.104692  0  1.005162  0
C  C22  1  0.51560103  0.51039000  0.34964693  1  1.558816  0  0.214203  0.59051  0  4.170808  0
C  C23  1  0.49942764  0.48817951  0.65510871  1  1.579602  0  0.212354  0.588074  0  4.175915  0
C  C24  1  0.50678765  0.59513958  0.22098351  1  -0.041879  0  -0.08516  -0.08753  0  3.984442  0
C  C25  1  0.53701463  0.39970357  0.78232526  1  -0.057361  0  -0.085028  -0.088229  0  3.983712  0
C  C26  1  0.44673891  0.24703742  0.54256648  1  0.492053  0  0.065706  0.11258  0  3.903133  0
C  C27  1  0.55168268  0.75208258  0.45878397  1  0.432478  0  0.065891  0.114016  0  3.899443  0
C  C28  1  0.44314726  0.16077518  0.53919602  1  0.017017  0  -0.069291  -0.181817  0  3.914611  0
C  C29  1  0.55525335  0.83848169  0.46106291  1  0.058978  0  -0.068863  -0.182447  0  3.911612  0
C  C30  1  0.52301811  0.10484795  0.48417410  1  0.292544  0  0.105703  0.199517  0  4.033843  0
C  C31  1  0.47601473  0.89494573  0.51597787  1  0.298427  0  0.105454  0.199857  0  4.033264  0
C  C32  1  0.60169259  0.13792369  0.43436785  1  -0.021987  0  -0.064498  -0.180399  0  3.912739  0
C  C33  1  0.39759416  0.86240915  0.56649674  1  -0.022136  0  -0.064463  -0.180554  0  3.912146  0
C  C34  1  0.59980448  0.22520779  0.44213442  1  0.488047  0  0.068197  0.11385  0  3.901545  0
C  C35  1  0.39960096  0.77494689  0.55989206  1  0.532516  0  0.068522  0.113798  0  3.901803  0
C  C36  1  0.74580418  0.45784745  0.50324965  1  1.528544  0  0.203153  0.629947  0  4.187145  0
C  C37  1  0.25515636  0.53978331  0.50806005  1  1.553548  0  0.204836  0.632992  0  4.183143  0
C  C38  1  0.88314462  0.44024703  0.50581884  1  -0.014795  0  -0.092293  -0.224295  0  3.884233  0
C  C39  1  0.11729335  0.55748760  0.51254231  1  -0.05318  0  -0.092794  -0.227094  0  3.884744  0
C  C40  1  0.93328053  0.50613729  0.51158114  1  -0.06724  0  -0.077952  -0.033863  0  4.027447  0
C  C41  1  0.06618492  0.49148219  0.51140822  1  -0.043119  0  -0.078749  -0.032585  0  4.027914  0
C  C42  1  0.52614693  0.51355622  0.26260589  1  -0.026116  0  -0.012848  -0.021338  0  3.939234  0
C  C43  1  0.51116017  0.48220165  0.74141337  1  -0.052391  0  -0.011518  -0.018761  0  3.937886  0
C  C44  1  0.55362786  0.43448575  0.22211841  1  -0.10075  0  -0.083723  -0.08233  0  3.982014  0
C  C45  1  0.49785552  0.55955590  0.78167289  1  -0.057907  0  -0.083928  -0.083961  0  3.983423  0
C  C46  1  0.55915260  0.43662465  0.14173195  1  -0.001789  0  -0.085772  -0.143001  0  3.956357  0
C  C47  1  0.50939447  0.55512109  0.86126852  1  -0.007813  0  -0.085718  -0.142134  0  3.957131  0
C  C48  1  0.53645565  0.51906603  0.10015899  1  0.412878  0  0.086489  0.172295  0  4.045284  0
C  C49  1  0.53447215  0.47217224  0.90229148  1  0.320312  0  0.085707  0.172379  0  4.043902  0
C  C50  1  0.51216448  0.59787012  0.14031106  1  -0.049604  0  -0.082675  -0.143939  0  3.967123  0
C  C51  1  0.54838868  0.39469251  0.86224655  1  -0.009433  0  -0.08261  -0.142853  0  3.966683  0
N  N52  1  0.53264539  0.53043997  0.01860429  1  -0.506971  0  -0.152117  -0.140807  0  3.287113  0
N  N53  1  0.54426820  0.45993968  0.98352254  1  -0.480972  0  -0.153332  -0.144305  0  3.288299  0
N  N54  1  0.52411597  0.27825040  0.49530180  1  -1.220305  0  -0.307538  -0.178735  0  3.488737  0
N  N55  1  0.47504094  0.72128451  0.50703956  1  -1.223535  0  -0.308664  -0.18002  0  3.491804  0
N  N56  1  0.52992817  0.01519326  0.47389698  1  -0.406074  0  -0.130296  -0.116376  0  3.23216  0
N  N57  1  0.46939236  0.98457836  0.52580092  1  -0.456564  0  -0.129655  -0.115719  0  3.237006  0
O  O58  1  0.49651552  0.58339841  0.38329978  1  -1.168782  0  -0.320276  -0.551788  0  2.314703  0
O  O59  1  0.51646843  0.41547296  0.62144655  1  -1.168027  0  -0.320342  -0.549996  0  2.314991  0
O  O60  1  0.52554009  0.43487064  0.38335848  1  -1.169805  0  -0.318854  -0.554896  0  2.328084  0
O  O61  1  0.47437724  0.56557795  0.62196089  1  -1.170206  0  -0.320202  -0.5557  0  2.327034  0
O  O62  1  0.67398179  0.53897981  0.50447594  1  -1.1747  0  -0.323818  -0.565609  0  2.32538  0
O  O63  1  0.32660053  0.45853029  0.50767280  1  -1.161454  0  -0.324214  -0.566692  0  2.325422  0
O  O64  1  0.71011961  0.38954828  0.49983748  1  -1.151964  0  -0.328196  -0.551129  0  2.257638  0
O  O65  1  0.29170107  0.60828351  0.50431906  1  -1.143372  0  -0.327798  -0.551187  0  2.259434  0
