# generated using pymatgen
data_NdH22(C3O)11
_symmetry_space_group_name_H-M   'P 1'
_cell_length_a   10.37380925
_cell_length_b   11.51583376
_cell_length_c   13.71240901
_cell_angle_alpha   101.92466827
_cell_angle_beta   110.77443855
_cell_angle_gamma   100.08923021
_symmetry_Int_Tables_number   1
_chemical_formula_structural   NdH22(C3O)11
_chemical_formula_sum   'Nd2 H44 C66 O22'
_cell_volume   1442.23514145
_cell_formula_units_Z   2
loop_
 _symmetry_equiv_pos_site_id
 _symmetry_equiv_pos_as_xyz
  1  'x, y, z'
loop_
 _atom_site_type_symbol
 _atom_site_label
 _atom_site_symmetry_multiplicity
 _atom_site_fract_x
 _atom_site_fract_y
 _atom_site_fract_z
 _atom_site_occupancy
 _atom_site_hle17_bader_spin_density
 _atom_site_hle17_ddec_charge
 _atom_site_hle17_ddec_spin_density
 _atom_site_hle17_ddec_sum_bond_order
 _atom_site_hle17_magmom
 _atom_site_hse06_10hf_bader_spin_density
 _atom_site_hse06_10hf_ddec_charge
 _atom_site_hse06_10hf_ddec_spin_density
 _atom_site_hse06_10hf_ddec_sum_bond_order
 _atom_site_hse06_10hf_magmom
 _atom_site_hse06_bader_spin_density
 _atom_site_hse06_ddec_charge
 _atom_site_hse06_ddec_spin_density
 _atom_site_hse06_ddec_sum_bond_order
 _atom_site_hse06_magmom
 _atom_site_pbe_bader_spin_density
 _atom_site_pbe_cm5_charge
 _atom_site_pbe_ddec_charge
 _atom_site_pbe_ddec_spin_density
 _atom_site_pbe_ddec_sum_bond_order
 _atom_site_pbe_magmom
Nd  Nd0  1  0.61798954  0.56332188  0.66478942  1  0  2.285664  0  1.628601  0  0  2.128064  0  2.091073  0  0  2.225982  0  1.944722  0  0  1.487546  2.094868  0  2.125585  0
Nd  Nd1  1  0.38200895  0.43668036  0.33521085  1  0  2.285621  0  1.628753  0  0  2.127996  0  2.091243  0  0  2.225918  0  1.944886  0  0  1.487533  2.094792  0  2.125762  0
H  H2  1  0.18700951  0.14230364  0.97566224  1  0  0.105717  0  0.949308  0  0  0.113195  0  1.015479  0  0  0.117076  0  1.012851  0  0  0.106179  0.110552  0  1.017018  0
H  H3  1  0.81299428  0.85769580  0.02434479  1  0  0.105684  0  0.949317  0  0  0.113179  0  1.015451  0  0  0.117034  0  1.012882  0  0  0.106176  0.110534  0  1.016994  0
H  H4  1  0.26576674  0.94406267  0.94247361  1  0  0.079267  0  0.993857  0  0  0.088222  0  1.062597  0  0  0.090099  0  1.063186  0  0  0.095811  0.08679  0  1.062269  0
H  H5  1  0.73423866  0.05593862  0.05753344  1  0  0.079267  0  0.993963  0  0  0.088257  0  1.062639  0  0  0.090129  0  1.063239  0  0  0.095854  0.086849  0  1.062287  0
H  H6  1  0.46746446  0.87932908  0.90895599  1  0  0.086246  0  0.95066  0  0  0.098828  0  1.007163  0  0  0.101911  0  1.005731  0  0  0.098848  0.096502  0  1.008412  0
H  H7  1  0.53254463  0.12067403  0.09105164  1  0  0.086272  0  0.950685  0  0  0.098868  0  1.007169  0  0  0.101919  0  1.005773  0  0  0.09889  0.096544  0  1.008417  0
H  H8  1  0.44926903  0.80853827  0.71983872  1  0  0.10422  0  0.961725  0  0  0.10997  0  1.028424  0  0  0.113276  0  1.026899  0  0  0.107476  0.10752  0  1.029827  0
H  H9  1  0.55073932  0.19146577  0.28016741  1  0  0.104259  0  0.961638  0  0  0.109989  0  1.028358  0  0  0.113296  0  1.026829  0  0  0.107484  0.107542  0  1.029757  0
H  H10  1  0.22934971  0.80378637  0.56269031  1  0  0.097958  0  0.982059  0  0  0.102582  0  1.050261  0  0  0.106031  0  1.048986  0  0  0.095863  0.100123  0  1.051145  0
H  H11  1  0.77065554  0.19621122  0.43731605  1  0  0.097975  0  0.982092  0  0  0.102573  0  1.050309  0  0  0.10605  0  1.049008  0  0  0.095873  0.100114  0  1.051194  0
H  H12  1  0.03257597  0.87541050  0.59825865  1  0  0.095306  0  0.952705  0  0  0.105031  0  1.014064  0  0  0.108747  0  1.010972  0  0  0.104829  0.102406  0  1.016316  0
H  H13  1  0.96742912  0.12458339  0.40174922  1  0  0.095335  0  0.952698  0  0  0.105059  0  1.014067  0  0  0.108773  0  1.010983  0  0  0.10487  0.102438  0  1.016311  0
H  H14  1  0.86024541  0.45391251  0.60697003  1  0  0.104171  0  0.984814  0  0  0.10807  0  1.058156  0  0  0.11167  0  1.056436  0  0  0.117985  0.104579  0  1.061361  0
H  H15  1  0.13975234  0.54609066  0.39302874  1  0  0.104225  0  0.984805  0  0  0.108079  0  1.058165  0  0  0.111677  0  1.056448  0  0  0.117982  0.104588  0  1.061367  0
H  H16  1  0.87111988  0.73093546  0.45241793  1  0  0.094432  0  0.957602  0  0  0.106268  0  1.016271  0  0  0.108325  0  1.016013  0  0  0.109176  0.10485  0  1.016454  0
H  H17  1  0.12887241  0.26906682  0.54757413  1  0  0.094465  0  0.957543  0  0  0.106253  0  1.016266  0  0  0.10831  0  1.01601  0  0  0.109156  0.104834  0  1.016449  0
H  H18  1  0.76178427  0.90377742  0.42858307  1  0  0.10216  0  0.936836  0  0  0.114209  0  0.990938  0  0  0.116575  0  0.99096  0  0  0.108799  0.112536  0  0.991052  0
H  H19  1  0.23820478  0.09622118  0.57140601  1  0  0.102133  0  0.936738  0  0  0.114197  0  0.990823  0  0  0.11657  0  0.990842  0  0  0.108782  0.112525  0  0.990939  0
H  H20  1  0.63195217  0.91792915  0.24225312  1  0  0.080882  0  0.991107  0  0  0.091383  0  1.054697  0  0  0.092552  0  1.056397  0  0  0.099601  0.090525  0  1.053627  0
H  H21  1  0.36803466  0.08206578  0.75773546  1  0  0.080952  0  0.991122  0  0  0.091405  0  1.054735  0  0  0.09257  0  1.056447  0  0  0.099631  0.090551  0  1.053651  0
H  H22  1  0.60673006  0.75702929  0.07924458  1  0  0.094734  0  0.938294  0  0  0.108174  0  0.992224  0  0  0.111108  0  0.991067  0  0  0.106114  0.106049  0  0.993067  0
H  H23  1  0.39325986  0.24296561  0.92074555  1  0  0.094595  0  0.938384  0  0  0.108076  0  0.992279  0  0  0.111034  0  0.991095  0  0  0.106065  0.105952  0  0.993122  0
H  H24  1  0.71897364  0.58395245  0.10374684  1  0  0.109367  0  0.930346  0  0  0.120632  0  0.984215  0  0  0.124505  0  0.981355  0  0  0.111444  0.117785  0  0.986457  0
H  H25  1  0.28102189  0.41604704  0.89624559  1  0  0.109346  0  0.930306  0  0  0.120634  0  0.984158  0  0  0.124506  0  0.981297  0  0  0.11143  0.117787  0  0.986399  0
H  H26  1  0.69408729  0.94344236  0.63347191  1  0  0.130039  0  0.954701  0  0  0.135759  0  1.01934  0  0  0.140428  0  1.015731  0  0  0.113383  0.132329  0  1.021955  0
H  H27  1  0.30591193  0.05655896  0.36652547  1  0  0.130067  0  0.95469  0  0  0.135773  0  1.019351  0  0  0.140443  0  1.01574  0  0  0.113407  0.132342  0  1.021966  0
H  H28  1  0.42064360  0.88566687  0.24982218  1  0  0.084591  0  0.98514  0  0  0.093707  0  1.05136  0  0  0.095599  0  1.05196  0  0  0.098733  0.092397  0  1.05095  0
H  H29  1  0.57935535  0.11433999  0.75017974  1  0  0.084526  0  0.985222  0  0  0.093658  0  1.051423  0  0  0.095551  0  1.052027  0  0  0.098713  0.092348  0  1.051014  0
H  H30  1  0.37103949  0.82709716  0.05244863  1  0  0.081784  0  0.960973  0  0  0.093964  0  1.020627  0  0  0.096098  0  1.020513  0  0  0.099342  0.092477  0  1.020646  0
H  H31  1  0.62896517  0.17290506  0.94755182  1  0  0.081794  0  0.960917  0  0  0.093974  0  1.020579  0  0  0.096107  0  1.020463  0  0  0.099349  0.092487  0  1.020598  0
H  H32  1  0.13067389  0.69851931  0.91623763  1  0  0.099638  0  0.959089  0  0  0.108756  0  1.020802  0  0  0.11184  0  1.01897  0  0  0.104468  0.106415  0  1.022349  0
H  H33  1  0.86933280  0.30146997  0.08376475  1  0  0.09971  0  0.958955  0  0  0.108764  0  1.020734  0  0  0.111825  0  1.018938  0  0  0.104434  0.106419  0  1.02228  0
H  H34  1  0.93917945  0.62668912  0.97673459  1  0  0.103182  0  0.950502  0  0  0.114559  0  1.006421  0  0  0.117981  0  1.00511  0  0  0.107024  0.111963  0  1.007639  0
H  H35  1  0.06082769  0.37330477  0.02326799  1  0  0.10319  0  0.950533  0  0  0.114516  0  1.006501  0  0  0.117973  0  1.005147  0  0  0.107004  0.111924  0  1.007715  0
H  H36  1  0.99091854  0.68368642  0.17568726  1  0  0.098615  0  0.980479  0  0  0.102601  0  1.052005  0  0  0.105348  0  1.05096  0  0  0.102578  0.100829  0  1.052437  0
H  H37  1  0.00907994  0.31631583  0.82431155  1  0  0.098603  0  0.980504  0  0  0.10258  0  1.05204  0  0  0.105325  0  1.050997  0  0  0.102576  0.100811  0  1.052471  0
H  H38  1  0.93936122  0.53427395  0.77814414  1  0  0.440411  0  0.853874  0  0  0.411671  0  0.913876  0  0  0.421889  0  0.898962  0  0  0.309807  0.40458  0  0.924361  0
H  H39  1  0.06064079  0.46572643  0.22185674  1  0  0.440466  0  0.853803  0  0  0.411722  0  0.913806  0  0  0.421943  0  0.898888  0  0  0.309827  0.404632  0  0.92429  0
H  H40  1  0.83211920  0.43722523  0.79658670  1  0  0.421099  0  0.855695  0  0  0.397464  0  0.923148  0  0  0.405146  0  0.913709  0  0  0.310049  0.39215  0  0.9286  0
H  H41  1  0.16788221  0.56277331  0.20341224  1  0  0.421112  0  0.855708  0  0  0.397481  0  0.923147  0  0  0.405161  0  0.913694  0  0  0.310061  0.392167  0  0.9286  0
H  H42  1  0.49804011  0.46575711  0.81272260  1  0  0.433777  0  0.829431  0  0  0.411767  0  0.891373  0  0  0.419368  0  0.880689  0  0  0.320513  0.40657  0  0.897766  0
H  H43  1  0.50195483  0.53424054  0.18727519  1  0  0.433772  0  0.829504  0  0  0.411755  0  0.891411  0  0  0.419359  0  0.880725  0  0  0.320502  0.406558  0  0.897848  0
H  H44  1  0.55651610  0.36248341  0.76640753  1  0  0.426879  0  0.841092  0  0  0.398739  0  0.918415  0  0  0.406468  0  0.907734  0  0  0.313538  0.393279  0  0.924258  0
H  H45  1  0.44348444  0.63751883  0.23358963  1  0  0.426911  0  0.840996  0  0  0.39874  0  0.918415  0  0  0.406471  0  0.907736  0  0  0.313535  0.393276  0  0.924222  0
C  C46  1  0.80297428  0.78479915  0.82526716  1  0  0.63852  0  3.934635  0  0  0.594935  0  4.225706  0  0  0.627687  0  4.223667  0  0  0.190258  0.572077  0  4.229799  0
C  C47  1  0.19702611  0.21519939  0.17473589  1  0  0.63847  0  3.934406  0  0  0.594814  0  4.225599  0  0  0.627562  0  4.223569  0  0  0.190178  0.571955  0  4.229689  0
C  C48  1  0.90360003  0.89816654  0.91349592  1  0  -0.053245  0  3.708421  0  0  -0.040145  0  3.942992  0  0  -0.044968  0  3.96238  0  0  -0.002684  -0.036582  0  3.929224  0
C  C49  1  0.09640345  0.10183198  0.08650795  1  0  -0.053321  0  3.708319  0  0  -0.040153  0  3.942959  0  0  -0.044985  0  3.962347  0  0  -0.00273  -0.036594  0  3.929189  0
C  C50  1  0.10498534  0.07780786  0.98506132  1  0  -0.094812  0  3.712752  0  0  -0.126504  0  3.965637  0  0  -0.127086  0  3.984028  0  0  -0.076366  -0.125592  0  3.95249  0
C  C51  1  0.89501741  0.92219159  0.01494397  1  0  -0.094872  0  3.712729  0  0  -0.126517  0  3.965687  0  0  -0.127104  0  3.984064  0  0  -0.076398  -0.125607  0  3.952544  0
C  C52  1  0.00961536  0.97678312  0.89771361  1  0  -0.011289  0  3.698336  0  0  -0.003975  0  3.936064  0  0  -0.005381  0  3.955117  0  0  -8.8e-05  -0.00312  0  3.923109  0
C  C53  1  0.99038843  0.02321633  0.10229268  1  0  -0.011263  0  3.698037  0  0  -0.004101  0  3.935942  0  0  -0.005487  0  3.954977  0  0  -7.6e-05  -0.003242  0  3.922985  0
C  C54  1  0.01821410  0.95983788  0.78818761  1  0  0.415469  0  3.700816  0  0  0.394404  0  3.966018  0  0  0.416751  0  3.966304  0  0  0.171941  0.378895  0  3.965936  0
C  C55  1  0.98179321  0.04015969  0.21182076  1  0  0.415553  0  3.701048  0  0  0.394531  0  3.966214  0  0  0.416868  0  3.966477  0  0  0.171927  0.379019  0  3.966141  0
C  C56  1  0.13607887  0.91294421  0.77184079  1  0  -0.04271  0  3.77575  0  0  -0.023188  0  4.006368  0  0  -0.030097  0  4.030887  0  0  -0.019979  -0.018755  0  3.990449  0
C  C57  1  0.86392697  0.08705523  0.22816460  1  0  -0.04285  0  3.775845  0  0  -0.023277  0  4.006389  0  0  -0.030151  0  4.03086  0  0  -0.020013  -0.018844  0  3.990476  0
C  C58  1  0.25850430  0.91347653  0.85957946  1  0  -0.095133  0  3.763484  0  0  -0.118272  0  4.01144  0  0  -0.11945  0  4.034873  0  0  -0.087831  -0.117215  0  3.995704  0
C  C59  1  0.74150213  0.08652475  0.14042714  1  0  -0.09503  0  3.763341  0  0  -0.118193  0  4.011289  0  0  -0.119376  0  4.034704  0  0  -0.087794  -0.117161  0  3.995547  0
C  C60  1  0.37128734  0.87728053  0.84077364  1  0  -0.085777  0  3.77493  0  0  -0.094738  0  4.021025  0  0  -0.098387  0  4.042377  0  0  -0.094317  -0.092276  0  4.006595  0
C  C61  1  0.62872042  0.12272166  0.15923274  1  0  -0.08589  0  3.775028  0  0  -0.09487  0  4.021157  0  0  -0.098495  0  4.042512  0  0  -0.094422  -0.092413  0  4.006737  0
C  C62  1  0.36153799  0.83754483  0.73432566  1  0  -0.034437  0  3.7059  0  0  -0.051989  0  3.956414  0  0  -0.051443  0  3.975801  0  0  -0.078283  -0.052279  0  3.943229  0
C  C63  1  0.63846741  0.16245645  0.26567847  1  0  -0.034452  0  3.705915  0  0  -0.051995  0  3.956438  0  0  -0.051446  0  3.975819  0  0  -0.078319  -0.052287  0  3.943251  0
C  C64  1  0.23834440  0.83442626  0.64621559  1  0  -0.082591  0  3.741677  0  0  -0.09274  0  3.993359  0  0  -0.097685  0  4.016204  0  0  -0.092612  -0.089292  0  3.977914  0
C  C65  1  0.76165835  0.16557319  0.35378970  1  0  -0.082534  0  3.741569  0  0  -0.09264  0  3.993238  0  0  -0.097611  0  4.016069  0  0  -0.09254  -0.089192  0  3.977794  0
C  C66  1  0.12726512  0.87300530  0.66513552  1  0  -0.05692  0  3.71162  0  0  -0.080788  0  3.957577  0  0  -0.080021  0  3.977008  0  0  -0.07555  -0.08126  0  3.944806  0
C  C67  1  0.87273880  0.12699137  0.33486960  1  0  -0.056997  0  3.711717  0  0  -0.080903  0  3.957704  0  0  -0.08015  0  3.977135  0  0  -0.075622  -0.081376  0  3.944931  0
C  C68  1  0.69939243  0.49084686  0.42340322  1  0  0.692739  0  3.894758  0  0  0.643515  0  4.188914  0  0  0.677334  0  4.184949  0  0  0.220766  0.620964  0  4.193762  0
C  C69  1  0.30060224  0.50915633  0.57659400  1  0  0.692929  0  3.894628  0  0  0.643754  0  4.188742  0  0  0.677578  0  4.184775  0  0  0.220819  0.6212  0  4.193594  0
C  C70  1  0.85536430  0.49984297  0.46213017  1  0  -0.057355  0  3.694847  0  0  -0.041871  0  3.928908  0  0  -0.046633  0  3.948045  0  0  0.005589  -0.038631  0  3.915075  0
C  C71  1  0.14463080  0.50015837  0.53786830  1  0  -0.057311  0  3.695009  0  0  -0.041921  0  3.929127  0  0  -0.046685  0  3.948258  0  0  0.005587  -0.038684  0  3.915304  0
C  C72  1  0.92290243  0.47761059  0.56149653  1  0  -0.057209  0  3.661676  0  0  -0.092996  0  3.914712  0  0  -0.092906  0  3.93251  0  0  -0.05796  -0.093131  0  3.903404  0
C  C73  1  0.07709562  0.52239351  0.43850248  1  0  -0.05745  0  3.661733  0  0  -0.093131  0  3.914764  0  0  -0.093042  0  3.932564  0  0  -0.058021  -0.093266  0  3.903452  0
C  C74  1  0.93333845  0.52260613  0.39930653  1  0  -0.009713  0  3.689989  0  0  -0.003521  0  3.927486  0  0  -0.006228  0  3.946825  0  0  0.006434  -0.001521  0  3.914352  0
C  C75  1  0.06665930  0.47739704  0.60069078  1  0  -0.009838  0  3.690049  0  0  -0.0036  0  3.927606  0  0  -0.006302  0  3.946948  0  0  0.006421  -0.001619  0  3.91446  0
C  C76  1  0.87237898  0.54667395  0.29133152  1  0  0.425028  0  3.683524  0  0  0.400502  0  3.948146  0  0  0.42464  0  3.946791  0  0  0.179566  0.383494  0  3.949326  0
C  C77  1  0.12762083  0.45332922  0.70866780  1  0  0.425047  0  3.683567  0  0  0.400456  0  3.948239  0  0  0.424573  0  3.946915  0  0  0.17961  0.383517  0  3.949317  0
C  C78  1  0.79980758  0.64564597  0.27932756  1  0  -0.043722  0  3.782797  0  0  -0.027901  0  4.020903  0  0  -0.035112  0  4.04445  0  0  -0.016892  -0.02273  0  4.004595  0
C  C79  1  0.20018487  0.35435354  0.72066697  1  0  -0.0438  0  3.782919  0  0  -0.027845  0  4.020888  0  0  -0.035049  0  4.044438  0  0  -0.016977  -0.022696  0  4.004568  0
C  C80  1  0.81140708  0.73567613  0.37074200  1  0  -0.049704  0  3.683466  0  0  -0.075532  0  3.930956  0  0  -0.075249  0  3.951561  0  0  -0.069257  -0.075539  0  3.91704  0
C  C81  1  0.18858329  0.26432339  0.62924979  1  0  -0.04983  0  3.683296  0  0  -0.07567  0  3.930758  0  0  -0.07539  0  3.951365  0  0  -0.069218  -0.075677  0  3.916844  0
C  C82  1  0.75030514  0.83287087  0.35733933  1  0  -0.05912  0  3.722291  0  0  -0.070161  0  3.97131  0  0  -0.073484  0  3.992462  0  0  -0.079792  -0.068213  0  3.957205  0
C  C83  1  0.24968215  0.16712867  0.64265018  1  0  -0.058852  0  3.721971  0  0  -0.069875  0  3.97095  0  0  -0.073202  0  3.992108  0  0  -0.079712  -0.067928  0  3.956845  0
C  C84  1  0.67686801  0.84041051  0.25252813  1  0  -0.049833  0  3.754253  0  0  -0.068089  0  4.004713  0  0  -0.068388  0  4.02783  0  0  -0.078846  -0.06753  0  3.988799  0
C  C85  1  0.32311942  0.15958625  0.74746093  1  0  -0.050037  0  3.754223  0  0  -0.068299  0  4.00481  0  0  -0.068603  0  4.027938  0  0  -0.07889  -0.067742  0  3.988897  0
C  C86  1  0.66413316  0.75073168  0.16091170  1  0  -0.085014  0  3.774709  0  0  -0.096948  0  4.026697  0  0  -0.101153  0  4.048921  0  0  -0.089359  -0.093537  0  4.010754  0
C  C87  1  0.33585882  0.24926321  0.83907898  1  0  -0.084821  0  3.774628  0  0  -0.096761  0  4.026624  0  0  -0.100988  0  4.04885  0  0  -0.089292  -0.09335  0  4.010683  0
C  C88  1  0.72586471  0.65389239  0.17395889  1  0  -0.082456  0  3.730725  0  0  -0.102723  0  3.974674  0  0  -0.10187  0  3.993173  0  0  -0.078731  -0.103423  0  3.961647  0
C  C89  1  0.27412683  0.34610436  0.82603199  1  0  -0.082448  0  3.730827  0  0  -0.102787  0  3.974789  0  0  -0.101935  0  3.993298  0  0  -0.078744  -0.103488  0  3.961766  0
C  C90  1  0.48350498  0.74368355  0.49431389  1  0  0.719113  0  3.847867  0  0  0.672498  0  4.140208  0  0  0.707719  0  4.131667  0  0  0.23432  0.648797  0  4.147463  0
C  C91  1  0.51649291  0.25631685  0.50568443  1  0  0.719128  0  3.847969  0  0  0.672518  0  4.140278  0  0  0.707738  0  4.131737  0  0  0.234334  0.648821  0  4.147532  0
C  C92  1  0.48777744  0.87577881  0.49764555  1  0  -0.066376  0  3.699512  0  0  -0.053116  0  3.936836  0  0  -0.057617  0  3.955293  0  0  -0.004909  -0.050243  0  3.923989  0
C  C93  1  0.51222487  0.12422249  0.50235411  1  0  -0.066474  0  3.699507  0  0  -0.053177  0  3.93679  0  0  -0.057677  0  3.955246  0  0  -0.004939  -0.050316  0  3.923959  0
C  C94  1  0.60811144  0.96846237  0.57573406  1  0  -0.094764  0  3.680297  0  0  -0.12669  0  3.932207  0  0  -0.127029  0  3.94869  0  0  -0.075101  -0.126153  0  3.920872  0
C  C95  1  0.39188880  0.03153894  0.42426286  1  0  -0.09472  0  3.68023  0  0  -0.126641  0  3.9321  0  0  -0.126981  0  3.948584  0  0  -0.075124  -0.126101  0  3.920771  0
C  C96  1  0.37809892  0.90792917  0.42191260  1  0  -0.025061  0  3.724419  0  0  -0.018011  0  3.963685  0  0  -0.019867  0  3.982985  0  0  -0.006005  -0.016626  0  3.950499  0
C  C97  1  0.62190338  0.09207213  0.57808706  1  0  -0.02492  0  3.724316  0  0  -0.017914  0  3.963568  0  0  -0.019773  0  3.982868  0  0  -0.006012  -0.01652  0  3.950387  0
C  C98  1  0.24077919  0.81354164  0.34264812  1  0  0.415801  0  3.708833  0  0  0.393797  0  3.97423  0  0  0.416494  0  3.974198  0  0  0.171542  0.378021  0  3.974462  0
C  C99  1  0.75922179  0.18645875  0.65735175  1  0  0.415761  0  3.708852  0  0  0.393845  0  3.974126  0  0  0.416542  0  3.974098  0  0  0.171564  0.378049  0  3.974388  0
C  C100  1  0.20944346  0.78644000  0.22489470  1  0  -0.048937  0  3.788093  0  0  -0.031642  0  4.02001  0  0  -0.038358  0  4.042685  0  0  -0.019644  -0.027079  0  4.004649  0
C  C101  1  0.79055620  0.21355947  0.77510685  1  0  -0.048899  0  3.788142  0  0  -0.031634  0  4.020045  0  0  -0.038349  0  4.042719  0  0  -0.019636  -0.027065  0  4.004686  0
C  C102  1  0.31584055  0.82824100  0.18979090  1  0  -0.086662  0  3.750197  0  0  -0.10745  0  3.993319  0  0  -0.108268  0  4.015646  0  0  -0.0845  -0.106837  0  3.978136  0
C  C103  1  0.68416000  0.17176124  0.81020991  1  0  -0.086596  0  3.750253  0  0  -0.107393  0  3.993378  0  0  -0.108212  0  4.015705  0  0  -0.084488  -0.106781  0  3.978192  0
C  C104  1  0.28737694  0.79578905  0.07915363  1  0  -0.07422  0  3.772196  0  0  -0.083569  0  4.017293  0  0  -0.087347  0  4.040098  0  0  -0.089441  -0.081096  0  4.001729  0
C  C105  1  0.71262580  0.20421041  0.92084729  1  0  -0.074208  0  3.772235  0  0  -0.083583  0  4.017333  0  0  -0.087358  0  4.040126  0  0  -0.089457  -0.081112  0  4.001771  0
C  C106  1  0.15223429  0.72308355  0.00261042  1  0  -0.031772  0  3.705168  0  0  -0.050797  0  3.954903  0  0  -0.050816  0  3.975836  0  0  -0.075416  -0.050603  0  3.940731  0
C  C107  1  0.84776667  0.27691037  0.99738906  1  0  -0.031904  0  3.705234  0  0  -0.050849  0  3.954934  0  0  -0.050859  0  3.975893  0  0  -0.075401  -0.050648  0  3.940757  0
C  C108  1  0.04497791  0.68226007  0.03690236  1  0  -0.067353  0  3.736328  0  0  -0.078076  0  3.983094  0  0  -0.082835  0  4.005511  0  0  -0.084451  -0.074852  0  3.968071  0
C  C109  1  0.95502644  0.31773476  0.96309817  1  0  -0.067318  0  3.736366  0  0  -0.077998  0  3.983081  0  0  -0.082783  0  4.005485  0  0  -0.08441  -0.074779  0  3.96806  0
C  C110  1  0.07331905  0.71370942  0.14747591  1  0  -0.084607  0  3.730789  0  0  -0.103894  0  3.975033  0  0  -0.103043  0  3.994067  0  0  -0.08165  -0.104372  0  3.96187  0
C  C111  1  0.92668267  0.28629003  0.85252473  1  0  -0.084642  0  3.730799  0  0  -0.103924  0  3.975043  0  0  -0.103071  0  3.994082  0  0  -0.081656  -0.104403  0  3.961882  0
O  O112  1  0.83230594  0.74479890  0.74367149  1  0  -0.669951  0  1.934257  0  0  -0.62166  0  2.162475  0  0  -0.652182  0  2.155324  0  0  -0.373462  -0.603358  0  2.166397  0
O  O113  1  0.16769535  0.25520241  0.25633227  1  0  -0.669883  0  1.93421  0  0  -0.621551  0  2.16245  0  0  -0.652071  0  2.155301  0  0  -0.373342  -0.603247  0  2.16637  0
O  O114  1  0.69195527  0.72914150  0.83509338  1  0  -0.6928  0  1.899757  0  0  -0.644107  0  2.124479  0  0  -0.672581  0  2.113241  0  0  -0.396484  -0.627801  0  2.130902  0
O  O115  1  0.30804718  0.27085703  0.16491094  1  0  -0.692801  0  1.899604  0  0  -0.644076  0  2.124362  0  0  -0.672557  0  2.113137  0  0  -0.396509  -0.627766  0  2.130782  0
O  O116  1  0.93423211  0.99291838  0.71707889  1  0  -0.446095  0  1.927617  0  0  -0.408888  0  2.132911  0  0  -0.426579  0  2.130008  0  0  -0.251898  -0.39665  0  2.134793  0
O  O117  1  0.06576961  0.00708108  0.28292467  1  0  -0.446058  0  1.927996  0  0  -0.40885  0  2.133253  0  0  -0.426541  0  2.13035  0  0  -0.251838  -0.396612  0  2.135139  0
O  O118  1  0.61968874  0.44750846  0.32258934  1  0  -0.678288  0  1.983403  0  0  -0.627967  0  2.215983  0  0  -0.65764  0  2.208122  0  0  -0.355836  -0.610792  0  2.22021  0
O  O119  1  0.38031181  0.55249378  0.67740928  1  0  -0.678399  0  1.98324  0  0  -0.628121  0  2.215858  0  0  -0.657771  0  2.207952  0  0  -0.355906  -0.610944  0  2.220086  0
O  O120  1  0.64893116  0.52511352  0.49423251  1  0  -0.817909  0  2.131725  0  0  -0.757717  0  2.389607  0  0  -0.794509  0  2.376712  0  0  -0.421682  -0.740694  0  2.396602  0
O  O121  1  0.35106526  0.47488874  0.50576356  1  0  -0.81799  0  2.131777  0  0  -0.757805  0  2.389658  0  0  -0.794602  0  2.376761  0  0  -0.421655  -0.740773  0  2.396644  0
O  O122  1  0.89247335  0.48744231  0.21378883  1  0  -0.481279  0  1.983663  0  0  -0.431352  0  2.193054  0  0  -0.44988  0  2.186372  0  0  -0.24749  -0.418511  0  2.197934  0
O  O123  1  0.10753028  0.51255991  0.78621135  1  0  -0.481232  0  1.98364  0  0  -0.431306  0  2.193061  0  0  -0.449837  0  2.186411  0  0  -0.247489  -0.418488  0  2.197907  0
O  O124  1  0.42606958  0.66359969  0.40053008  1  0  -0.752055  0  2.025214  0  0  -0.699738  0  2.279072  0  0  -0.731746  0  2.267581  0  0  -0.385554  -0.681915  0  2.285473  0
O  O125  1  0.57392552  0.33640165  0.59946694  1  0  -0.752069  0  2.025228  0  0  -0.699776  0  2.279107  0  0  -0.731782  0  2.267611  0  0  -0.385555  -0.681955  0  2.285507  0
O  O126  1  0.53980201  0.72229212  0.58487501  1  0  -0.711992  0  2.033805  0  0  -0.660167  0  2.281734  0  0  -0.691929  0  2.270489  0  0  -0.379354  -0.64312  0  2.287805  0
O  O127  1  0.46019647  0.27771012  0.41512379  1  0  -0.71202  0  2.03387  0  0  -0.660207  0  2.281811  0  0  -0.691968  0  2.270566  0  0  -0.379393  -0.64316  0  2.287881  0
O  O128  1  0.15762935  0.76208763  0.37642690  1  0  -0.453714  0  1.940718  0  0  -0.40893  0  2.148431  0  0  -0.427566  0  2.146319  0  0  -0.247924  -0.396185  0  2.149992  0
O  O129  1  0.84237046  0.23791553  0.62357460  1  0  -0.453697  0  1.940741  0  0  -0.408933  0  2.148409  0  0  -0.427563  0  2.146296  0  0  -0.247927  -0.396186  0  2.149988  0
O  O130  1  0.84168408  0.51398888  0.77654076  1  0  -0.884205  0  1.895209  0  0  -0.836295  0  2.092687  0  0  -0.860214  0  2.062306  0  0  -0.624826  -0.823771  0  2.110508  0
O  O131  1  0.15831763  0.48601058  0.22345769  1  0  -0.884264  0  1.895186  0  0  -0.836342  0  2.092659  0  0  -0.860263  0  2.062263  0  0  -0.624865  -0.82382  0  2.110482  0
O  O132  1  0.58323091  0.45084871  0.80320676  1  0  -0.847586  0  1.838488  0  0  -0.800962  0  2.0232  0  0  -0.822932  0  1.994763  0  0  -0.605282  -0.788873  0  2.03747  0
O  O133  1  0.41676625  0.54915263  0.19679299  1  0  -0.847625  0  1.838432  0  0  -0.800988  0  2.023179  0  0  -0.822954  0  1.9947  0  0  -0.605269  -0.788897  0  2.037455  0
