# generated using pymatgen
data_LuH18C15(NO2)4
_symmetry_space_group_name_H-M   'P 1'
_cell_length_a   8.25647995
_cell_length_b   10.25664523
_cell_length_c   11.43894523
_cell_angle_alpha   113.82534221
_cell_angle_beta   100.53958592
_cell_angle_gamma   98.72149888
_symmetry_Int_Tables_number   1
_chemical_formula_structural   LuH18C15(NO2)4
_chemical_formula_sum   'Lu2 H36 C30 N8 O16'
_cell_volume   843.35675619
_cell_formula_units_Z   2
loop_
 _symmetry_equiv_pos_site_id
 _symmetry_equiv_pos_as_xyz
  1  'x, y, z'
loop_
 _atom_site_type_symbol
 _atom_site_label
 _atom_site_symmetry_multiplicity
 _atom_site_fract_x
 _atom_site_fract_y
 _atom_site_fract_z
 _atom_site_occupancy
 _atom_site_hle17_bader_spin_density
 _atom_site_hle17_ddec_charge
 _atom_site_hle17_ddec_spin_density
 _atom_site_hle17_ddec_sum_bond_order
 _atom_site_hle17_magmom
 _atom_site_hse06_10hf_bader_spin_density
 _atom_site_hse06_10hf_ddec_charge
 _atom_site_hse06_10hf_ddec_spin_density
 _atom_site_hse06_10hf_ddec_sum_bond_order
 _atom_site_hse06_10hf_magmom
 _atom_site_hse06_bader_spin_density
 _atom_site_hse06_ddec_charge
 _atom_site_hse06_ddec_spin_density
 _atom_site_hse06_ddec_sum_bond_order
 _atom_site_hse06_magmom
 _atom_site_pbe_bader_spin_density
 _atom_site_pbe_cm5_charge
 _atom_site_pbe_ddec_charge
 _atom_site_pbe_ddec_spin_density
 _atom_site_pbe_ddec_sum_bond_order
 _atom_site_pbe_magmom
Lu  Lu0  1  0.86571495  0.09583301  0.15889301  1  0  1.824747  0  2.265609  0  0  1.65469  0  2.73926  0  0  1.718484  0  2.682025  0  0  1.31923  1.609095  0  2.779756  0
Lu  Lu1  1  0.13428728  0.90416011  0.84110372  1  0  1.824604  0  2.265932  0  0  1.654709  0  2.739418  0  0  1.718519  0  2.682121  0  0  1.319272  1.608948  0  2.780178  0
H  H2  1  0.59127031  0.99497329  0.90578152  1  0  0.450634  0  0.834413  0  0  0.418985  0  0.897931  0  0  0.43043  0  0.88105  0  0  0.312994  0.410797  0  0.909976  0
H  H3  1  0.40873166  0.00503634  0.09421772  1  0  0.450515  0  0.834569  0  0  0.418925  0  0.898  0  0  0.43038  0  0.881108  0  0  0.312923  0.410738  0  0.910044  0
H  H4  1  0.74139765  0.92034830  0.86998584  1  0  0.435162  0  0.861434  0  0  0.399868  0  0.933272  0  0  0.41089  0  0.917078  0  0  0.307659  0.391948  0  0.944948  0
H  H5  1  0.25860619  0.07966794  0.13001517  1  0  0.434925  0  0.861564  0  0  0.39973  0  0.933416  0  0  0.410756  0  0.917215  0  0  0.307558  0.391807  0  0.945096  0
H  H6  1  0.86879741  0.92814402  0.60012372  1  0  0.315885  0  0.927428  0  0  0.298619  0  0.993395  0  0  0.304773  0  0.988746  0  0  0.298789  0.294272  0  0.996627  0
H  H7  1  0.13118620  0.07184906  0.39986104  1  0  0.315951  0  0.927151  0  0  0.2985  0  0.993363  0  0  0.304649  0  0.988727  0  0  0.298755  0.294148  0  0.996603  0
H  H8  1  0.88518367  0.94108832  0.45818465  1  0  0.311127  0  0.915376  0  0  0.296172  0  0.979056  0  0  0.302494  0  0.974019  0  0  0.302095  0.291424  0  0.983083  0
H  H9  1  0.11481934  0.05890814  0.54180029  1  0  0.311112  0  0.915516  0  0  0.296163  0  0.979172  0  0  0.302482  0  0.974132  0  0  0.302069  0.29141  0  0.983211  0
H  H10  1  0.10768538  0.68408621  0.33405330  1  0  0.29477  0  0.94538  0  0  0.280978  0  1.011359  0  0  0.287224  0  1.007171  0  0  0.28286  0.276738  0  1.013938  0
H  H11  1  0.89232083  0.31592008  0.66596623  1  0  0.294782  0  0.945464  0  0  0.281032  0  1.011359  0  0  0.28727  0  1.007186  0  0  0.282918  0.27679  0  1.013942  0
H  H12  1  0.03669058  0.80846435  0.28734191  1  0  0.308513  0  0.946309  0  0  0.286956  0  1.021895  0  0  0.294222  0  1.015884  0  0  0.286496  0.281735  0  1.02631  0
H  H13  1  0.96330334  0.19152984  0.71265504  1  0  0.308455  0  0.946347  0  0  0.286921  0  1.0219  0  0  0.294186  0  1.015888  0  0  0.286481  0.281703  0  1.026309  0
H  H14  1  0.09666501  0.53196415  0.44209038  1  0  0.3126  0  0.943359  0  0  0.296096  0  1.007527  0  0  0.303854  0  1.00036  0  0  0.294071  0.290547  0  1.012594  0
H  H15  1  0.90331666  0.46803879  0.55791086  1  0  0.312488  0  0.943334  0  0  0.296065  0  1.007432  0  0  0.303818  0  1.000267  0  0  0.294052  0.290513  0  1.012503  0
H  H16  1  0.20988906  0.70916714  0.55151238  1  0  0.313924  0  0.935271  0  0  0.297622  0  0.999084  0  0  0.303914  0  0.994811  0  0  0.296723  0.293182  0  1.002055  0
H  H17  1  0.79010815  0.29081718  0.44847787  1  0  0.313799  0  0.935349  0  0  0.297491  0  0.999193  0  0  0.303784  0  0.994917  0  0  0.296638  0.293048  0  1.002171  0
H  H18  1  0.34669257  0.00628818  0.29676567  1  0  0.113155  0  0.973958  0  0  0.121172  0  1.038182  0  0  0.125289  0  1.034735  0  0  0.107728  0.118159  0  1.040881  0
H  H19  1  0.65332088  0.99366973  0.70324583  1  0  0.113152  0  0.973914  0  0  0.121224  0  1.038042  0  0  0.125336  0  1.034608  0  0  0.10773  0.118204  0  1.040747  0
H  H20  1  0.93975760  0.56846415  0.81664723  1  0  0.106202  0  0.990327  0  0  0.111811  0  1.05959  0  0  0.11533  0  1.057691  0  0  0.104096  0.109264  0  1.061212  0
H  H21  1  0.06023953  0.43154220  0.18333447  1  0  0.106331  0  0.990319  0  0  0.111858  0  1.059714  0  0  0.115379  0  1.057811  0  0  0.104102  0.109287  0  1.061348  0
H  H22  1  0.47976677  0.23589167  0.37082678  1  0  0.107182  0  0.987613  0  0  0.115422  0  1.053593  0  0  0.118281  0  1.052504  0  0  0.103877  0.112879  0  1.055452  0
H  H23  1  0.52022802  0.76413550  0.62918846  1  0  0.107106  0  0.987363  0  0  0.115437  0  1.053263  0  0  0.118291  0  1.052169  0  0  0.103876  0.112892  0  1.05512  0
H  H24  1  0.82847433  0.46745427  0.29170755  1  0  0.047622  0  0.936191  0  0  0.055784  0  1.008269  0  0  0.058093  0  1.00273  0  0  0.129826  0.053973  0  1.012226  0
H  H25  1  0.17153167  0.53256088  0.70829333  1  0  0.047643  0  0.93598  0  0  0.055722  0  1.00817  0  0  0.058028  0  1.002636  0  0  0.129769  0.053905  0  1.012131  0
H  H26  1  0.57388974  0.65651060  0.18882361  1  0  0.105349  0  0.932212  0  0  0.125835  0  0.992727  0  0  0.126654  0  0.992665  0  0  0.107455  0.124979  0  0.993221  0
H  H27  1  0.42609542  0.34349563  0.81118626  1  0  0.105322  0  0.93218  0  0  0.125844  0  0.992674  0  0  0.126661  0  0.992609  0  0  0.107447  0.124985  0  0.99317  0
H  H28  1  0.73928021  0.66382734  0.31692231  1  0  0.104681  0  0.963588  0  0  0.117157  0  1.039677  0  0  0.118753  0  1.039031  0  0  0.103946  0.115785  0  1.040491  0
H  H29  1  0.26073169  0.33619112  0.68308315  1  0  0.104652  0  0.963645  0  0  0.117128  0  1.039745  0  0  0.11872  0  1.039104  0  0  0.103941  0.115756  0  1.040554  0
H  H30  1  0.52092159  0.62234200  0.32016000  1  0  0.1011  0  0.941606  0  0  0.121352  0  1.003185  0  0  0.120791  0  1.005765  0  0  0.100532  0.121773  0  1.001462  0
H  H31  1  0.47908757  0.37765773  0.67984963  1  0  0.101007  0  0.94158  0  0  0.12129  0  1.003143  0  0  0.120721  0  1.005736  0  0  0.100523  0.121708  0  1.00142  0
H  H32  1  0.38896057  0.42586491  0.02970853  1  0  0.097751  0  0.947766  0  0  0.119582  0  1.008501  0  0  0.11974  0  1.009391  0  0  0.10636  0.119377  0  1.0079  0
H  H33  1  0.61106015  0.57413593  0.97031520  1  0  0.097815  0  0.94772  0  0  0.119729  0  1.008356  0  0  0.11989  0  1.009245  0  0  0.106434  0.119525  0  1.007751  0
H  H34  1  0.34265932  0.32961227  0.12338114  1  0  0.103428  0  0.945759  0  0  0.122807  0  1.010989  0  0  0.121943  0  1.012582  0  0  0.106153  0.123324  0  1.009929  0
H  H35  1  0.65735943  0.67042161  0.87662994  1  0  0.103576  0  0.94564  0  0  0.12298  0  1.010842  0  0  0.122122  0  1.012438  0  0  0.106261  0.123488  0  1.009774  0
H  H36  1  0.45974413  0.26128681  0.00549347  1  0  0.127084  0  0.950088  0  0  0.140155  0  1.019731  0  0  0.142536  0  1.017269  0  0  0.114703  0.138289  0  1.021731  0
H  H37  1  0.54026101  0.73871621  0.99451424  1  0  0.127204  0  0.950092  0  0  0.140262  0  1.019747  0  0  0.142645  0  1.017284  0  0  0.114739  0.138393  0  1.021745  0
C  C38  1  0.67293751  0.02012743  0.30762505  1  0  0.648416  0  3.859876  0  0  0.597238  0  4.154035  0  0  0.632893  0  4.143942  0  0  0.203992  0.572705  0  4.161022  0
C  C39  1  0.32702063  0.97986340  0.69234082  1  0  0.64801  0  3.859973  0  0  0.5969  0  4.154066  0  0  0.632533  0  4.143991  0  0  0.203878  0.572374  0  4.161033  0
C  C40  1  0.58433531  0.99717785  0.40239507  1  0  -0.158485  0  3.746352  0  0  -0.142556  0  3.990095  0  0  -0.15029  0  4.009777  0  0  -0.028927  -0.137929  0  3.977424  0
C  C41  1  0.41564117  0.00279870  0.59758713  1  0  -0.158395  0  3.746675  0  0  -0.142473  0  3.990415  0  0  -0.15021  0  4.010106  0  0  -0.028978  -0.137869  0  3.977783  0
C  C42  1  0.41357010  0.00166743  0.38559021  1  0  -0.178772  0  3.722547  0  0  -0.207345  0  3.978053  0  0  -0.209274  0  3.995805  0  0  -0.100239  -0.205744  0  3.966503  0
C  C43  1  0.58641370  0.99829918  0.61441200  1  0  -0.178893  0  3.722333  0  0  -0.20751  0  3.977832  0  0  -0.209461  0  3.995616  0  0  -0.100168  -0.205904  0  3.966296  0
C  C44  1  0.67290782  0.99023569  0.51796770  1  0  0.289833  0  3.820016  0  0  0.278105  0  4.072744  0  0  0.286803  0  4.094145  0  0  0.092862  0.272168  0  4.058599  0
C  C45  1  0.32705974  0.00973532  0.48201485  1  0  0.289809  0  3.820202  0  0  0.278054  0  4.072895  0  0  0.286747  0  4.094296  0  0  0.092958  0.272117  0  4.058751  0
C  C46  1  0.96201942  0.79011199  0.04172112  1  0  0.707431  0  3.828419  0  0  0.654454  0  4.119142  0  0  0.692317  0  4.105755  0  0  0.231827  0.628218  0  4.128035  0
C  C47  1  0.03797836  0.20988658  0.95828928  1  0  0.707455  0  3.828313  0  0  0.654547  0  4.118979  0  0  0.692416  0  4.105591  0  0  0.231875  0.628303  0  4.12788  0
C  C48  1  0.98142126  0.64279782  0.02580654  1  0  -0.165891  0  3.748479  0  0  -0.149682  0  3.989072  0  0  -0.15779  0  4.008373  0  0  -0.028606  -0.143865  0  3.975792  0
C  C49  1  0.01857855  0.35720850  0.97419296  1  0  -0.165725  0  3.748313  0  0  -0.149556  0  3.988922  0  0  -0.157682  0  4.008238  0  0  -0.028559  -0.143746  0  3.975645  0
C  C50  1  0.96642191  0.53708307  0.89705315  1  0  -0.192739  0  3.739932  0  0  -0.221315  0  3.997478  0  0  -0.223602  0  4.016359  0  0  -0.106653  -0.219621  0  3.984867  0
C  C51  1  0.03358951  0.46293433  0.10293787  1  0  -0.192975  0  3.74033  0  0  -0.221545  0  3.997887  0  0  -0.223833  0  4.016766  0  0  -0.106706  -0.219825  0  3.985301  0
C  C52  1  0.01568626  0.60604580  0.13379552  1  0  0.285977  0  3.844091  0  0  0.27504  0  4.095696  0  0  0.284079  0  4.116825  0  0  0.088263  0.268825  0  4.080869  0
C  C53  1  0.98432902  0.39397158  0.86620997  1  0  0.285999  0  3.844024  0  0  0.275017  0  4.095754  0  0  0.284069  0  4.116872  0  0  0.088236  0.268803  0  4.080933  0
C  C54  1  0.17672310  0.29165158  0.33594641  1  0  0.655726  0  3.838664  0  0  0.600997  0  4.131394  0  0  0.637547  0  4.120356  0  0  0.207362  0.576216  0  4.138308  0
C  C55  1  0.82329231  0.70833169  0.66404663  1  0  0.655876  0  3.838855  0  0  0.601262  0  4.13141  0  0  0.637783  0  4.120399  0  0  0.207579  0.576486  0  4.138308  0
C  C56  1  0.34103381  0.40148304  0.41828176  1  0  -0.160262  0  3.731438  0  0  -0.143001  0  3.977154  0  0  -0.151004  0  3.99636  0  0  -0.027851  -0.138077  0  3.964348  0
C  C57  1  0.65898202  0.59850573  0.58172033  1  0  -0.160536  0  3.731891  0  0  -0.143188  0  3.977406  0  0  -0.151192  0  3.996623  0  0  -0.027831  -0.138265  0  3.964597  0
C  C58  1  0.49016696  0.35250421  0.42760149  1  0  -0.173553  0  3.710775  0  0  -0.203714  0  3.968882  0  0  -0.204986  0  3.987387  0  0  -0.100329  -0.202841  0  3.957214  0
C  C59  1  0.50985304  0.64749884  0.57241334  1  0  -0.173306  0  3.710095  0  0  -0.203574  0  3.968259  0  0  -0.204839  0  3.986755  0  0  -0.100228  -0.202703  0  3.956588  0
C  C60  1  0.34996149  0.55423931  0.49137131  1  0  0.28086  0  3.833135  0  0  0.267603  0  4.091552  0  0  0.276341  0  4.112446  0  0  0.091883  0.261887  0  4.076776  0
C  C61  1  0.65005439  0.44575385  0.50863501  1  0  0.280875  0  3.833904  0  0  0.267655  0  4.092135  0  0  0.276387  0  4.113044  0  0  0.091883  0.261945  0  4.077351  0
C  C62  1  0.71540013  0.38974215  0.21258056  1  0  0.424876  0  3.769223  0  0  0.345092  0  4.061152  0  0  0.373937  0  4.061254  0  0  0.190777  0.325456  0  4.060551  0
C  C63  1  0.28461060  0.61028510  0.78742972  1  0  0.424693  0  3.769101  0  0  0.344889  0  4.06112  0  0  0.373739  0  4.061221  0  0  0.190747  0.325264  0  4.060498  0
C  C64  1  0.60800887  0.60766979  0.25638646  1  0  -0.171559  0  3.645273  0  0  -0.273806  0  3.898229  0  0  -0.271261  0  3.910007  0  0  -0.133705  -0.275369  0  3.890419  0
C  C65  1  0.39199760  0.39235082  0.74362785  1  0  -0.17157  0  3.645177  0  0  -0.273872  0  3.898105  0  0  -0.271312  0  3.909876  0  0  -0.133812  -0.275446  0  3.890332  0
C  C66  1  0.43802640  0.36143614  0.07799533  1  0  -0.178065  0  3.637239  0  0  -0.280329  0  3.888053  0  0  -0.275875  0  3.89669  0  0  -0.135471  -0.283002  0  3.881988  0
C  C67  1  0.56200378  0.63857246  0.92202106  1  0  -0.178626  0  3.637434  0  0  -0.281011  0  3.888215  0  0  -0.276562  0  3.896863  0  0  -0.135818  -0.283665  0  3.882131  0
N  N68  1  0.83736294  0.97419416  0.53807772  1  0  -0.658056  0  3.137877  0  0  -0.624282  0  3.377292  0  0  -0.64244  0  3.376698  0  0  -0.602209  -0.611296  0  3.377899  0
N  N69  1  0.16261342  0.02577801  0.46189411  1  0  -0.658226  0  3.137967  0  0  -0.624246  0  3.377515  0  0  -0.642393  0  3.376926  0  0  -0.60221  -0.611253  0  3.378127  0
N  N70  1  0.02940295  0.70056088  0.26387181  1  0  -0.66433  0  3.148439  0  0  -0.633486  0  3.389421  0  0  -0.653336  0  3.389924  0  0  -0.606845  -0.618806  0  3.388442  0
N  N71  1  0.97059513  0.29943440  0.73613830  1  0  -0.664418  0  3.148671  0  0  -0.633579  0  3.389634  0  0  -0.653425  0  3.390136  0  0  -0.606917  -0.618894  0  3.388659  0
N  N72  1  0.20905831  0.60995174  0.47920767  1  0  -0.662543  0  3.132962  0  0  -0.62918  0  3.371154  0  0  -0.648763  0  3.370658  0  0  -0.602583  -0.615009  0  3.370744  0
N  N73  1  0.79093554  0.39002926  0.52078445  1  0  -0.662119  0  3.133158  0  0  -0.628873  0  3.371197  0  0  -0.648456  0  3.370717  0  0  -0.602395  -0.614706  0  3.370791  0
N  N74  1  0.59583901  0.45154572  0.17967484  1  0  -0.082867  0  3.502  0  0  0.0229  0  3.733543  0  0  0.002535  0  3.758932  0  0  -0.274098  0.036928  0  3.715694  0
N  N75  1  0.40417920  0.54848155  0.82034250  1  0  -0.0824  0  3.501731  0  0  0.023454  0  3.733227  0  0  0.003066  0  3.75864  0  0  -0.273798  0.037478  0  3.715361  0
O  O76  1  0.59632163  0.98525219  0.18711123  1  0  -0.654396  0  1.990912  0  0  -0.592597  0  2.220427  0  0  -0.618666  0  2.209719  0  0  -0.33591  -0.574578  0  2.228101  0
O  O77  1  0.40366789  0.01475858  0.81285190  1  0  -0.6543  0  1.990934  0  0  -0.592509  0  2.220302  0  0  -0.618502  0  2.20955  0  0  -0.335864  -0.574445  0  2.227947  0
O  O78  1  0.83225740  0.08843204  0.35211860  1  0  -0.655697  0  2.010852  0  0  -0.590126  0  2.240434  0  0  -0.615916  0  2.231265  0  0  -0.370304  -0.572183  0  2.246539  0
O  O79  1  0.16770058  0.91154004  0.64786051  1  0  -0.655493  0  2.010597  0  0  -0.589924  0  2.240059  0  0  -0.615722  0  2.230899  0  0  -0.370308  -0.57196  0  2.246162  0
O  O80  1  0.91607000  0.87421980  0.14047854  1  0  -0.650359  0  2.007895  0  0  -0.583763  0  2.242151  0  0  -0.60984  0  2.231668  0  0  -0.361822  -0.565431  0  2.249126  0
O  O81  1  0.08392405  0.12577877  0.85952877  1  0  -0.650472  0  2.007888  0  0  -0.583967  0  2.242203  0  0  -0.610058  0  2.231719  0  0  -0.3619  -0.565599  0  2.249178  0
O  O82  1  0.98734168  0.82875983  0.95197129  1  0  -0.716887  0  2.167293  0  0  -0.651025  0  2.428554  0  0  -0.680292  0  2.417001  0  0  -0.406098  -0.63016  0  2.43751  0
O  O83  1  0.01267847  0.17121794  0.04803257  1  0  -0.716789  0  2.167423  0  0  -0.650912  0  2.428702  0  0  -0.680167  0  2.417132  0  0  -0.406041  -0.630066  0  2.437642  0
O  O84  1  0.17086921  0.15476279  0.26727664  1  0  -0.673808  0  2.059074  0  0  -0.604178  0  2.286994  0  0  -0.630933  0  2.276959  0  0  -0.341293  -0.585712  0  2.29388  0
O  O85  1  0.82910016  0.84520603  0.73270271  1  0  -0.673928  0  2.059359  0  0  -0.604355  0  2.287195  0  0  -0.631107  0  2.277161  0  0  -0.341465  -0.585882  0  2.294078  0
O  O86  1  0.03549239  0.32949726  0.33204674  1  0  -0.653549  0  2.053158  0  0  -0.58892  0  2.287487  0  0  -0.615344  0  2.278526  0  0  -0.344608  -0.570785  0  2.293396  0
O  O87  1  0.96455058  0.67053007  0.66798160  1  0  -0.653478  0  2.053038  0  0  -0.589051  0  2.287504  0  0  -0.615405  0  2.278435  0  0  -0.344747  -0.570875  0  2.293342  0
O  O88  1  0.70277397  0.25302362  0.15895450  1  0  -0.574477  0  2.124811  0  0  -0.510568  0  2.385154  0  0  -0.537228  0  2.378261  0  0  -0.364882  -0.491716  0  2.389556  0
O  O89  1  0.29722042  0.74700247  0.84105330  1  0  -0.574294  0  2.125102  0  0  -0.510353  0  2.385382  0  0  -0.537016  0  2.378474  0  0  -0.364858  -0.491491  0  2.389781  0
O  O90  1  0.69309562  0.97061264  0.94446555  1  0  -0.847639  0  1.899124  0  0  -0.792528  0  2.103093  0  0  -0.813247  0  2.069584  0  0  -0.620139  -0.777709  0  2.126761  0
O  O91  1  0.30690193  0.02939920  0.05552520  1  0  -0.847312  0  1.899251  0  0  -0.792384  0  2.103156  0  0  -0.813093  0  2.069626  0  0  -0.620028  -0.77753  0  2.126833  0
