# generated using pymatgen
data_AlH5C11SNClO5
_symmetry_space_group_name_H-M   'P 1'
_cell_length_a   6.67337416
_cell_length_b   12.82337238
_cell_length_c   16.91739760
_cell_angle_alpha   84.87055337
_cell_angle_beta   82.78815211
_cell_angle_gamma   73.84907135
_symmetry_Int_Tables_number   1
_chemical_formula_structural   AlH5C11SNClO5
_chemical_formula_sum   'Al2 H10 C22 S2 N2 Cl2 O10'
_cell_volume   1377.31326560
_cell_formula_units_Z   2
loop_
 _symmetry_equiv_pos_site_id
 _symmetry_equiv_pos_as_xyz
  1  'x, y, z'
loop_
 _atom_site_type_symbol
 _atom_site_label
 _atom_site_symmetry_multiplicity
 _atom_site_fract_x
 _atom_site_fract_y
 _atom_site_fract_z
 _atom_site_occupancy
 _atom_site_pbe_bader_charge
 _atom_site_pbe_bader_spin_density
 _atom_site_pbe_cm5_charge
 _atom_site_pbe_ddec_charge
 _atom_site_pbe_ddec_spin_density
 _atom_site_pbe_ddec_sum_bond_order
 _atom_site_pbe_magmom
Al  Al0  1  0.50000346  0.50000017  0.49999750  1  2.50391  0  0.395474  1.644255  0  2.573423  0
Al  Al1  1  0.99999793  0.50000124  0.49999883  1  2.502129  0  0.397581  1.646903  0  2.566905  0
H  H2  1  0.20002456  0.62803735  0.44876943  1  0.658663  0  0.34147  0.418285  0  0.881558  0
H  H3  1  0.79997286  0.37196693  0.55123117  1  0.658716  0  0.341525  0.418343  0  0.88149  0
H  H4  1  0.85539842  0.49723498  0.73565900  1  0.092461  0  0.109593  0.114673  0  1.00443  0
H  H5  1  0.79126049  0.49830510  0.88590016  1  0.102836  0  0.103464  0.10224  0  1.038734  0
H  H6  1  0.42659841  0.50632036  0.89553616  1  0.087477  0  0.106816  0.108634  0  1.013208  0
H  H7  1  0.48907092  0.50742663  0.74464291  1  0.098433  0  0.109553  0.11501  0  1.003152  0
H  H8  1  0.57341356  0.49367904  0.10446218  1  0.087517  0  0.10683  0.108658  0  1.013224  0
H  H9  1  0.20874379  0.50169757  0.11409899  1  0.102755  0  0.103473  0.102304  0  1.038811  0
H  H10  1  0.14460818  0.50276607  0.26433952  1  0.092451  0  0.109575  0.114671  0  1.004401  0
H  H11  1  0.51093388  0.49257201  0.25535524  1  0.098539  0  0.109602  0.115084  0  1.003113  0
C  C12  1  0.65135944  0.69458669  0.50548190  1  1.644041  0  0.260677  0.662226  0  4.130358  0
C  C13  1  0.78781838  0.50013727  0.35645592  1  1.581574  0  0.265469  0.635517  0  4.105453  0
C  C14  1  0.34864014  0.30541033  0.49451720  1  1.644047  0  0.260662  0.662265  0  4.13017  0
C  C15  1  0.21218498  0.49986129  0.64354526  1  1.58201  0  0.265372  0.635349  0  4.105635  0
C  C16  1  0.17558286  0.50208237  0.73225869  1  -0.065904  0  -0.010428  -0.036668  0  3.955501  0
C  C17  1  0.97831842  0.49950102  0.77172345  1  0.003457  0  -0.0774  -0.078616  0  3.969147  0
C  C18  1  0.94284661  0.49990781  0.85416877  1  -0.038459  0  -0.080984  -0.137518  0  3.946622  0
C  C19  1  0.10647910  0.50200041  0.89861640  1  0.343571  0  0.090035  0.174058  0  4.035595  0
C  C20  1  0.30346637  0.50475694  0.85930287  1  -0.001304  0  -0.077665  -0.138745  0  3.945216  0
C  C21  1  0.33774969  0.50520630  0.77647792  1  -0.03039  0  -0.07736  -0.079935  0  3.962281  0
C  C22  1  0.69654078  0.49524004  0.14069584  1  -0.001295  0  -0.077679  -0.138798  0  3.945407  0
C  C23  1  0.89352912  0.49799742  0.10138103  1  0.343693  0  0.090131  0.174192  0  4.035502  0
C  C24  1  0.05716120  0.50009083  0.14582864  1  -0.038587  0  -0.081029  -0.13764  0  3.946626  0
C  C25  1  0.02169246  0.50049756  0.22827557  1  0.003405  0  -0.077426  -0.078656  0  3.969076  0
C  C26  1  0.82442728  0.49791464  0.26773868  1  -0.066098  0  -0.010424  -0.036697  0  3.955454  0
C  C27  1  0.66226081  0.49478996  0.22351711  1  -0.030154  0  -0.077391  -0.079987  0  3.962467  0
C  C28  1  0.58027486  0.11267818  0.52985030  1  0.174108  0  0.009185  0.102564  0  4.076681  0
C  C29  1  0.41971787  0.88732045  0.47015025  1  0.174328  0  0.009118  0.10248  0  4.0768  0
C  C30  1  0.41267799  0.18597218  0.49622044  1  -0.179562  0  -0.023477  -0.188211  0  3.927838  0
C  C31  1  0.58730825  0.81402732  0.50377921  1  -0.179517  0  -0.023469  -0.188111  0  3.927439  0
C  C32  1  0.41709340  0.99631467  0.47961198  1  -0.102648  0  -0.028277  -0.073942  0  4.098624  0
C  C33  1  0.58289788  0.00368390  0.52039101  1  -0.165911  0  -0.028247  -0.073924  0  4.09871  0
S  S34  1  0.25748849  0.12177432  0.45371294  1  0.324299  0  0.100835  0.162718  0  2.82411  0
S  S35  1  0.74250623  0.87823236  0.54628943  1  0.32455  0  0.100842  0.162654  0  2.823889  0
N  N36  1  0.08917650  0.50154881  0.98271669  1  -0.482006  0  -0.1477  -0.13545  0  3.276117  0
N  N37  1  0.91083138  0.49844974  0.01728367  1  -0.522474  0  -0.147707  -0.135442  0  3.276223  0
Cl  Cl38  1  0.76001145  0.14380128  0.58066803  1  -0.171529  0  0.022518  -0.0282  0  1.557598  0
Cl  Cl39  1  0.24000324  0.85619571  0.41932912  1  -0.171516  0  0.022595  -0.028124  0  1.557783  0
O  O40  1  0.51491835  0.64752476  0.49304027  1  -1.248199  0  -0.229979  -0.585509  0  2.374419  0
O  O41  1  0.93166855  0.51852046  0.39181304  1  -1.263055  0  -0.239894  -0.601576  0  2.352692  0
O  O42  1  0.15936333  0.35198174  0.48108850  1  -1.257888  0  -0.237077  -0.5826  0  2.309588  0
O  O43  1  0.38483777  0.51463130  0.60999766  1  -1.260759  0  -0.236949  -0.587721  0  2.33924  0
O  O44  1  0.48506994  0.35247652  0.50695327  1  -1.248104  0  -0.229885  -0.58551  0  2.374435  0
O  O45  1  0.06833419  0.48148222  0.60818560  1  -1.263006  0  -0.239825  -0.601471  0  2.35263  0
O  O46  1  0.84062595  0.64801773  0.51891158  1  -1.257769  0  -0.237005  -0.58256  0  2.309856  0
O  O47  1  0.61516013  0.48536900  0.39000016  1  -1.26025  0  -0.236881  -0.587658  0  2.339183  0
O  O48  1  0.23326575  0.55141205  0.46569932  1  -1.461286  0  -0.4491  -0.986875  0  2.192966  0
O  O49  1  0.76673586  0.44858986  0.53429822  1  -1.461302  0  -0.449131  -0.986941  0  2.19298  0
