# generated using pymatgen
data_Al2H13C24S2N2O10F
_symmetry_space_group_name_H-M   'P 1'
_cell_length_a   6.66475231
_cell_length_b   12.74722094
_cell_length_c   17.76683277
_cell_angle_alpha   82.73065848
_cell_angle_beta   79.99445790
_cell_angle_gamma   75.34074933
_symmetry_Int_Tables_number   1
_chemical_formula_structural   Al2H13C24S2N2O10F
_chemical_formula_sum   'Al2 H13 C24 S2 N2 O10 F1'
_cell_volume   1432.66373651
_cell_formula_units_Z   1
loop_
 _symmetry_equiv_pos_site_id
 _symmetry_equiv_pos_as_xyz
  1  'x, y, z'
loop_
 _atom_site_type_symbol
 _atom_site_label
 _atom_site_symmetry_multiplicity
 _atom_site_fract_x
 _atom_site_fract_y
 _atom_site_fract_z
 _atom_site_occupancy
 _atom_site_pbe_bader_charge
 _atom_site_pbe_bader_spin_density
 _atom_site_pbe_cm5_charge
 _atom_site_pbe_ddec_charge
 _atom_site_pbe_ddec_spin_density
 _atom_site_pbe_ddec_sum_bond_order
 _atom_site_pbe_magmom
Al  Al0  1  0.49668983  0.50915657  0.50022990  1  2.50548  0  0.396928  1.635186  0  2.582002  0
Al  Al1  1  0.99692785  0.50769095  0.49972957  1  2.504577  0  0.392981  1.638722  0  2.591614  0
H  H2  1  0.29321147  0.37724447  0.54362712  1  0.609086  0  0.348372  0.420527  0  0.869637  0
H  H3  1  0.70863185  0.63535894  0.44748246  1  0.646476  0  0.354111  0.432849  0  0.851625  0
H  H4  1  0.63994276  0.55197482  0.26716772  1  0.08117  0  0.10604  0.106833  0  1.01376  0
H  H5  1  0.72143205  0.55000128  0.12435818  1  0.033398  0  0.099985  0.108296  0  1.009897  0
H  H6  1  0.15712145  0.44159277  0.12612670  1  0.049856  0  0.104996  0.118747  0  0.999599  0
H  H7  1  0.89243762  0.44813526  0.88184712  1  0.069664  0  0.105221  0.118811  0  0.999651  0
H  H8  1  0.31312225  0.56545157  0.72569933  1  0.087608  0  0.106658  0.109258  0  1.010994  0
H  H9  1  0.23114680  0.56273171  0.86870604  1  0.077905  0  0.099948  0.108715  0  1.009046  0
H  H10  1  0.60399308  0.14988970  0.53057936  1  0.094954  0  0.114453  0.134214  0  0.999021  0
H  H11  1  0.98547843  0.45620365  0.32957648  1  0.503021  0  0.308533  0.318114  0  0.971658  0
H  H12  1  0.93716256  0.42184704  0.24387383  1  0.446239  0  0.305778  0.300417  0  0.960706  0
H  H13  1  0.05619787  0.45661001  0.67663743  1  0.491921  0  0.307004  0.32012  0  0.980467  0
H  H14  1  0.13247296  0.43137801  0.76801778  1  0.45706  0  0.305286  0.298889  0  0.962381  0
C  C15  1  0.84699422  0.31219768  0.49712804  1  1.614325  0  0.26168  0.648494  0  4.141426  0
C  C16  1  0.67630967  0.50777623  0.63865345  1  1.479731  0  0.256547  0.646411  0  4.098232  0
C  C17  1  0.14576770  0.70318863  0.50227328  1  1.60021  0  0.262123  0.672444  0  4.139263  0
C  C18  1  0.31970168  0.50439278  0.36112226  1  1.503002  0  0.257892  0.651261  0  4.095727  0
C  C19  1  0.35655128  0.49837584  0.27734874  1  0.011705  0  -0.034788  -0.178278  0  3.939167  0
C  C20  1  0.53762149  0.52637197  0.23522010  1  -0.046213  0  -0.090207  -0.079731  0  4.06137  0
C  C21  1  0.58365979  0.52512500  0.15634408  1  0.023529  0  -0.111092  -0.188157  0  4.007674  0
C  C22  1  0.44351582  0.49443199  0.11646061  1  0.100743  0  0.000476  0.169318  0  4.149748  0
C  C23  1  0.26348346  0.46546049  0.15733754  1  0.019924  0  -0.100189  -0.258696  0  3.885953  0
C  C24  1  0.21449697  0.46708858  0.23782652  1  0.437623  0  0.112721  0.315529  0  4.077822  0
C  C25  1  0.48305636  0.49574469  0.03539677  1  -0.124061  0  -0.042501  -0.101631  0  4.100003  0
C  C26  1  0.51763508  0.49921778  0.96546446  1  -0.318989  0  -0.043503  -0.104401  0  4.102162  0
C  C27  1  0.55874265  0.50299074  0.88430851  1  0.139926  0  0.001375  0.170976  0  4.152959  0
C  C28  1  0.76520652  0.47386728  0.84736855  1  -0.01156  0  -0.100813  -0.259782  0  3.88984  0
C  C29  1  0.81450560  0.47569901  0.76661404  1  0.466389  0  0.115518  0.320213  0  4.074516  0
C  C30  1  0.64470810  0.50772402  0.72263988  1  0.013367  0  -0.036335  -0.184958  0  3.939829  0
C  C31  1  0.43786507  0.53873442  0.76113290  1  -0.035122  0  -0.089803  -0.076363  0  4.055248  0
C  C32  1  0.39174611  0.53697480  0.84006792  1  -0.040494  0  -0.111871  -0.191035  0  4.009734  0
C  C33  1  0.21560816  0.89470846  0.48341925  1  0.581575  0  0.100669  0.253281  0  4.080057  0
C  C34  1  0.77285684  0.12243443  0.51507308  1  0.080737  0  -0.086258  -0.12812  0  3.959646  0
C  C35  1  0.08761668  0.82188503  0.50184833  1  -0.103158  0  -0.031663  -0.252387  0  3.978386  0
C  C36  1  0.90425929  0.19315331  0.49718389  1  -0.169157  0  -0.016557  -0.118082  0  3.963509  0
C  C37  1  0.88789011  0.01334902  0.51045301  1  -0.160007  0  -0.017895  0.007049  0  4.075342  0
C  C38  1  0.10496997  0.00408886  0.48832047  1  -0.155756  0  -0.032196  -0.135204  0  4.110668  0
S  S39  1  0.82560897  0.88832870  0.52491245  1  0.300965  0  0.101566  0.160649  0  2.79535  0
S  S40  1  0.16784002  0.12860063  0.47387732  1  0.276363  0  0.097216  0.15408  0  2.767833  0
N  N41  1  0.03998854  0.43519996  0.27518046  1  -1.270404  0  -0.588272  -0.608294  0  3.337986  0
N  N42  1  0.01880729  0.44449588  0.73451348  1  -1.275754  0  -0.585275  -0.604046  0  3.350915  0
O  O43  1  0.65254387  0.35897911  0.50758446  1  -1.263507  0  -0.232233  -0.57927  0  2.318516  0
O  O44  1  0.86604227  0.49071213  0.60329998  1  -1.272782  0  -0.243529  -0.616329  0  2.391787  0
O  O45  1  0.99487109  0.65544788  0.51187312  1  -1.262909  0  -0.237503  -0.590057  0  2.319387  0
O  O46  1  0.47764522  0.49783256  0.39468940  1  -1.264197  0  -0.245166  -0.601998  0  2.342419  0
O  O47  1  0.34022037  0.65707573  0.49279654  1  -1.239709  0  -0.231246  -0.58216  0  2.340089  0
O  O48  1  0.12943407  0.51796852  0.39536527  1  -1.269449  0  -0.2449  -0.616664  0  2.372338  0
O  O49  1  0.99898921  0.35909803  0.48700570  1  -1.26142  0  -0.239694  -0.595082  0  2.346911  0
O  O50  1  0.51539159  0.52234928  0.60499577  1  -1.263642  0  -0.246585  -0.602503  0  2.339475  0
O  O51  1  0.25579301  0.45602626  0.53492789  1  -1.416749  0  -0.447899  -0.97956  0  2.181586  0
O  O52  1  0.73956773  0.55841942  0.46464926  1  -1.449982  0  -0.449288  -0.988633  0  2.19086  0
F  F53  1  0.42448341  0.86607289  0.46154494  1  -0.633508  0  -0.086816  -0.117981  0  1.410489  0
