# generated using pymatgen
data_ZnH22C26NO6
_symmetry_space_group_name_H-M   'P 1'
_cell_length_a   13.94441368
_cell_length_b   15.33680247
_cell_length_c   19.63389031
_cell_angle_alpha   90.50108749
_cell_angle_beta   89.98993135
_cell_angle_gamma   90.15700316
_symmetry_Int_Tables_number   1
_chemical_formula_structural   ZnH22C26NO6
_chemical_formula_sum   'Zn2 H44 C52 N2 O12'
_cell_volume   4198.78075564
_cell_formula_units_Z   2
loop_
 _symmetry_equiv_pos_site_id
 _symmetry_equiv_pos_as_xyz
  1  'x, y, z'
loop_
 _atom_site_type_symbol
 _atom_site_label
 _atom_site_symmetry_multiplicity
 _atom_site_fract_x
 _atom_site_fract_y
 _atom_site_fract_z
 _atom_site_occupancy
 _atom_site_pbe_bader_charge
 _atom_site_pbe_bader_spin_density
 _atom_site_pbe_cm5_charge
 _atom_site_pbe_ddec_charge
 _atom_site_pbe_ddec_spin_density
 _atom_site_pbe_ddec_sum_bond_order
 _atom_site_pbe_magmom
Zn  Zn0  1  0.40010761  0.50006888  0.50012632  1  1.305935  0  0.662983  0.81235  0  2.439128  0
Zn  Zn1  1  0.59850352  0.50014273  0.50000282  1  1.275731  0  0.66388  0.812911  0  2.444039  0
H  H2  1  0.65576762  0.48317252  0.28378556  1  0.076085  0  0.096289  0.105599  0  1.063757  0
H  H3  1  0.64203447  0.06193206  0.53504316  1  0.043623  0  0.098857  0.097192  0  1.008091  0
H  H4  1  0.35081996  0.05765930  0.46189001  1  0.056234  0  0.098557  0.096705  0  1.009249  0
H  H5  1  0.64188390  0.93901017  0.46348491  1  0.059343  0  0.098663  0.096466  0  1.009152  0
H  H6  1  0.34996489  0.77910579  0.53682833  1  0.079098  0  0.099098  0.099512  0  1.011911  0
H  H7  1  0.64031268  0.22460491  0.53282470  1  0.092145  0  0.102407  0.107394  0  1.001595  0
H  H8  1  0.34933557  0.22020862  0.46293796  1  0.075606  0  0.099581  0.100166  0  1.010863  0
H  H9  1  0.64067394  0.77633210  0.46637273  1  0.092348  0  0.102893  0.107777  0  1.000671  0
H  H10  1  0.93147762  0.55415986  0.60211409  1  0.083917  0  0.113712  0.118551  0  0.992152  0
H  H11  1  0.06679490  0.37685108  0.44558870  1  0.072918  0  0.11479  0.120316  0  0.989297  0
H  H12  1  0.93122398  0.44570732  0.39798694  1  0.099824  0  0.113982  0.119074  0  0.991255  0
H  H13  1  0.35118718  0.51080065  0.71412572  1  0.096117  0  0.098187  0.111833  0  1.052243  0
H  H14  1  0.06741051  0.62338896  0.55433625  1  0.077108  0  0.114668  0.120565  0  0.989281  0
H  H15  1  0.75112950  0.55188856  0.59739323  1  0.14512  0  0.129957  0.109164  0  0.982857  0
H  H16  1  0.24697498  0.38220835  0.44846919  1  0.155532  0  0.13105  0.109238  0  0.978817  0
H  H17  1  0.75089307  0.44833041  0.40260705  1  0.143604  0  0.129588  0.108671  0  0.983601  0
H  H18  1  0.24759530  0.61812349  0.55143325  1  0.14882  0  0.1303  0.108135  0  0.979495  0
H  H19  1  0.76263172  0.41510664  0.20698044  1  0.003481  0  0.095322  0.051383  0  0.966626  0
H  H20  1  0.77126709  0.53125906  0.21289119  1  0.021607  0  0.096427  0.05305  0  0.969221  0
H  H21  1  0.83433923  0.53708843  0.09324978  1  0.042603  0  0.094999  0.129452  0  0.990518  0
H  H22  1  0.90776649  0.46825808  0.14405674  1  -0.008868  0  0.088285  0.114292  0  1.015795  0
H  H23  1  0.82381933  0.42180120  0.08555127  1  0.042671  0  0.094476  0.128631  0  0.991812  0
H  H24  1  0.65689854  0.49145336  0.71613772  1  0.104752  0  0.096555  0.106708  0  1.059986  0
H  H25  1  0.23314013  0.46678946  0.78388455  1  0.046097  0  0.097701  0.055513  0  0.965785  0
H  H26  1  0.24513577  0.58270322  0.78890606  1  0.066889  0  0.095769  0.051508  0  0.966975  0
H  H27  1  0.17961234  0.57978784  0.90911675  1  0.049982  0  0.094511  0.128945  0  0.99198  0
H  H28  1  0.09650444  0.53387105  0.84975742  1  0.025459  0  0.088023  0.11408  0  1.015843  0
H  H29  1  0.16620950  0.46459648  0.90277962  1  0.043232  0  0.095095  0.129859  0  0.990592  0
H  H30  1  0.77347317  0.53692703  0.78847024  1  0.010718  0  0.094767  0.050226  0  0.970312  0
H  H31  1  0.76147265  0.42093588  0.79115969  1  0.05962  0  0.096886  0.053541  0  0.965515  0
H  H32  1  0.82281653  0.42296690  0.91247780  1  0.029026  0  0.094578  0.12881  0  0.992653  0
H  H33  1  0.90797306  0.46936063  0.85547854  1  -0.013637  0  0.088505  0.115005  0  1.015366  0
H  H34  1  0.83627189  0.53818204  0.90850875  1  0.061173  0  0.094584  0.128717  0  0.991614  0
H  H35  1  0.35163816  0.51663454  0.28609285  1  0.087843  0  0.09861  0.113033  0  1.052061  0
H  H36  1  0.24412630  0.58544065  0.21120065  1  0.046004  0  0.097918  0.055604  0  0.961801  0
H  H37  1  0.23429554  0.46952429  0.21649802  1  0.025881  0  0.095953  0.051665  0  0.970109  0
H  H38  1  0.16708401  0.46283669  0.09796254  1  0.044203  0  0.09435  0.12845  0  0.992299  0
H  H39  1  0.09644007  0.53320071  0.15049933  1  0.022897  0  0.088376  0.114792  0  1.015077  0
H  H40  1  0.17885872  0.57792111  0.09071610  1  0.020523  0  0.094733  0.129267  0  0.992375  0
H  H41  1  0.44263396  0.62951476  0.06447902  1  0.061891  0  0.098176  0.098367  0  0.99895  0
H  H42  1  0.55965790  0.37095628  0.93549295  1  0.063978  0  0.098178  0.098634  0  0.9978  0
H  H43  1  0.44285042  0.63025161  0.93814357  1  0.057301  0  0.098082  0.099054  0  0.998715  0
H  H44  1  0.55966595  0.37024702  0.06181474  1  0.054621  0  0.097997  0.098068  0  0.998691  0
H  H45  1  0.35095830  0.94165772  0.53730777  1  0.069369  0  0.098279  0.096655  0  1.009439  0
C  C46  1  0.49408515  0.67048207  0.50172357  1  1.591753  0  0.212936  0.592783  0  4.173635  0
C  C47  1  0.49639077  0.04814198  0.49878210  1  -0.000933  0  -0.005532  0.074472  0  4.004914  0
C  C48  1  0.89458063  0.53093907  0.55649135  1  -0.020151  0  -0.077762  -0.177943  0  3.95172  0
C  C49  1  0.10377998  0.43203501  0.46917943  1  0.028552  0  -0.077474  -0.176567  0  3.949372  0
C  C50  1  0.89442778  0.46905507  0.44357513  1  -0.03093  0  -0.078231  -0.178702  0  3.950663  0
C  C51  1  0.10412162  0.56817149  0.53081146  1  -0.108316  0  -0.077938  -0.178005  0  3.950204  0
C  C52  1  0.79501157  0.52972370  0.55462179  1  0.497387  0  0.064153  0.109273  0  3.908899  0
C  C53  1  0.20336625  0.43418132  0.47054996  1  0.395022  0  0.064286  0.107726  0  3.913268  0
C  C54  1  0.79487774  0.47044174  0.44538263  1  0.495724  0  0.064107  0.10886  0  3.909276  0
C  C55  1  0.20369781  0.56607592  0.52943956  1  0.538594  0  0.064601  0.108761  0  3.91335  0
C  C56  1  0.94636195  0.50000624  0.50003814  1  -0.009596  0  0.014607  0.106362  0  3.996035  0
C  C57  1  0.49366209  0.32970155  0.49834177  1  1.58904  0  0.212642  0.592727  0  4.172783  0
C  C58  1  0.05207400  0.50006387  0.50001463  1  0.005265  0  0.014719  0.104409  0  3.998779  0
C  C59  1  0.50491990  0.50091305  0.63321925  1  1.55915  0  0.213399  0.598885  0  4.145292  0
C  C60  1  0.50458376  0.49978015  0.36693041  1  1.55489  0  0.212361  0.598028  0  4.14588  0
C  C61  1  0.58979130  0.48996738  0.25492658  1  0.025187  0  -0.125883  -0.274073  0  4.042808  0
C  C62  1  0.41665852  0.50745998  0.74398052  1  0.004919  0  -0.123176  -0.272545  0  4.0344  0
C  C63  1  0.59061132  0.49567017  0.74504511  1  -0.004821  0  -0.124604  -0.275887  0  4.04107  0
C  C64  1  0.41671178  0.50923117  0.25617127  1  0.007468  0  -0.122895  -0.271359  0  4.03219  0
C  C65  1  0.58859787  0.49031272  0.18375325  1  0.424702  0  0.080318  0.220077  0  4.075511  0
C  C66  1  0.41623259  0.50804988  0.81521466  1  0.469464  0  0.081007  0.222185  0  4.076545  0
C  C67  1  0.58920041  0.49503471  0.81623946  1  0.427621  0  0.080239  0.222413  0  4.075659  0
C  C68  1  0.41353499  0.81507780  0.52100269  1  -0.075659  0  -0.088513  -0.090169  0  4.006521  0
C  C69  1  0.41625935  0.50872695  0.18495223  1  0.475604  0  0.081099  0.221654  0  4.075294  0
C  C70  1  0.50196274  0.49952981  0.14739644  1  0.012575  0  -0.023198  -0.135303  0  3.964003  0
C  C71  1  0.50220072  0.50135664  0.85262474  1  0.004458  0  -0.02372  -0.137142  0  3.965071  0
C  C72  1  0.50367440  0.49965721  0.29067136  1  -0.078973  0  -0.024532  0.01736  0  4.025191  0
C  C73  1  0.50406284  0.50144365  0.70944258  1  -0.087171  0  -0.024717  0.019708  0  4.025339  0
C  C74  1  0.46815461  0.57260799  0.03621120  1  -0.006582  0  -0.094039  -0.127196  0  3.999138  0
C  C75  1  0.53408342  0.42783448  0.96379531  1  -0.032129  0  -0.094005  -0.128994  0  3.999997  0
C  C76  1  0.46824313  0.57303864  0.96530337  1  -0.126696  0  -0.094296  -0.131056  0  4.002368  0
C  C77  1  0.53404798  0.42741232  0.03469247  1  -0.135726  0  -0.094555  -0.1283  0  4.000648  0
C  C78  1  0.50136288  0.50072687  0.92807299  1  0.123051  0  -0.009727  0.102199  0  4.014881  0
C  C79  1  0.57745923  0.18699975  0.51735415  1  0.015178  0  -0.086211  -0.088325  0  3.991798  0
C  C80  1  0.50122958  0.49983360  0.07196344  1  0.113778  0  -0.010275  0.099216  0  4.014441  0
C  C81  1  0.41420469  0.90571434  0.52050295  1  -0.015673  0  -0.095064  -0.140897  0  4.000407  0
C  C82  1  0.57817496  0.09632629  0.51792909  1  -0.109989  0  -0.094354  -0.140098  0  3.997393  0
C  C83  1  0.41401486  0.09399493  0.47867385  1  -0.021793  0  -0.095871  -0.141116  0  4.000235  0
C  C84  1  0.57820632  0.90424454  0.48086760  1  0.019647  0  -0.094272  -0.138774  0  3.997805  0
C  C85  1  0.76050638  0.47594456  0.17722422  1  0.45205  0  -0.06476  0.091225  0  3.935049  0
C  C86  1  0.83609045  0.47576784  0.12166789  1  -0.000601  0  -0.241964  -0.394859  0  3.984052  0
C  C87  1  0.24442112  0.52231675  0.81923999  1  0.402929  0  -0.064086  0.092115  0  3.932468  0
C  C88  1  0.16713671  0.52529188  0.87353669  1  -0.080334  0  -0.242907  -0.397141  0  3.987976  0
C  C89  1  0.76102576  0.48104844  0.82260029  1  0.413377  0  -0.064281  0.093629  0  3.933536  0
C  C90  1  0.41308173  0.18463784  0.47851545  1  -0.067411  0  -0.087953  -0.089909  0  4.005118  0
C  C91  1  0.83650513  0.47773548  0.87813458  1  -0.006323  0  -0.24171  -0.39513  0  3.984858  0
C  C92  1  0.24453921  0.52429767  0.18100898  1  0.442103  0  -0.063708  0.093114  0  3.9298  0
C  C93  1  0.16716338  0.52454876  0.12673816  1  -0.045112  0  -0.242839  -0.397056  0  3.988498  0
C  C94  1  0.57776884  0.81356449  0.48180979  1  -0.124867  0  -0.085543  -0.087723  0  3.992526  0
C  C95  1  0.49524397  0.76805925  0.50164883  1  0.007894  0  -0.02063  -0.033023  0  3.969298  0
C  C96  1  0.49472930  0.23210690  0.49793148  1  0.016659  0  -0.02006  -0.032302  0  3.967158  0
C  C97  1  0.49642960  0.95200223  0.50007272  1  -0.133875  0  -0.0059  0.073782  0  4.005234  0
N  N98  1  0.74628115  0.50015738  0.49997199  1  -1.232361  0  -0.311693  -0.185795  0  3.497619  0
N  N99  1  0.25222181  0.50011922  0.50002903  1  -1.245108  0  -0.311319  -0.184629  0  3.498084  0
O  O100  1  0.41382398  0.63323637  0.51329524  1  -1.168824  0  -0.321687  -0.557401  0  2.329297  0
O  O101  1  0.33434389  0.51310067  0.85362913  1  -1.064681  0  -0.181689  -0.202602  0  2.55263  0
O  O102  1  0.67008050  0.49003712  0.85569133  1  -1.068964  0  -0.181462  -0.203015  0  2.553835  0
O  O103  1  0.33455319  0.51535250  0.14658827  1  -1.068427  0  -0.181923  -0.203175  0  2.554938  0
O  O104  1  0.57292568  0.36837060  0.51013381  1  -1.168306  0  -0.32023  -0.550607  0  2.32468  0
O  O105  1  0.41350395  0.36692948  0.48704493  1  -1.17225  0  -0.321582  -0.557722  0  2.325425  0
O  O106  1  0.57320632  0.63184858  0.49004088  1  -1.168749  0  -0.320482  -0.550833  0  2.321811  0
O  O107  1  0.42531902  0.48762862  0.60295387  1  -1.169082  0  -0.321619  -0.546846  0  2.316775  0
O  O108  1  0.58471445  0.48538345  0.39619425  1  -1.172921  0  -0.321995  -0.55297  0  2.330986  0
O  O109  1  0.42541646  0.51421433  0.39739253  1  -1.168268  0  -0.320993  -0.546861  0  2.318395  0
O  O110  1  0.58545780  0.51369269  0.60394086  1  -1.165923  0  -0.321998  -0.55308  0  2.329658  0
O  O111  1  0.66940501  0.48360105  0.14428090  1  -1.07494  0  -0.181197  -0.200755  0  2.555133  0
