# generated using pymatgen
data_Pr2Cu3H54C36(NO4)6
_symmetry_space_group_name_H-M   'P 1'
_cell_length_a   7.65751373
_cell_length_b   13.55460299
_cell_length_c   13.55470541
_cell_angle_alpha   120.00009425
_cell_angle_beta   89.99967320
_cell_angle_gamma   90.00002702
_symmetry_Int_Tables_number   1
_chemical_formula_structural   Pr2Cu3H54C36(NO4)6
_chemical_formula_sum   'Pr2 Cu3 H54 C36 N6 O24'
_cell_volume   1218.41402259
_cell_formula_units_Z   1
loop_
 _symmetry_equiv_pos_site_id
 _symmetry_equiv_pos_as_xyz
  1  'x, y, z'
loop_
 _atom_site_type_symbol
 _atom_site_label
 _atom_site_symmetry_multiplicity
 _atom_site_fract_x
 _atom_site_fract_y
 _atom_site_fract_z
 _atom_site_occupancy
 _atom_site_pbe_bader_charge
 _atom_site_pbe_bader_spin_density
 _atom_site_pbe_cm5_charge
 _atom_site_pbe_ddec_charge
 _atom_site_pbe_ddec_spin_density
 _atom_site_pbe_ddec_sum_bond_order
 _atom_site_pbe_magmom
Pr  Pr0  1  0.34280643  0.33332987  0.66666256  1  2.273979  0.00244  1.473991  2.103481  0.003475  2.091344  0.002
Pr  Pr1  1  0.65719231  0.66667241  0.33334037  1  2.273996  0.00244  1.474003  2.10352  0.003475  2.091399  0.002
Cu  Cu2  1  0.00000680  0.49999815  0.50000075  1  1.058573  0.578896  0.735544  0.775801  0.733131  2.180252  0.578
Cu  Cu3  1  0.00000136  0.00000075  0.49999862  1  1.055501  0.578876  0.735502  0.775782  0.733135  2.180331  0.578
Cu  Cu4  1  0.99999320  0.50000296  0.00000398  1  1.055609  0.578855  0.735562  0.775758  0.733128  2.18029  0.578
H  H5  1  0.85921452  0.67981027  0.64508484  1  0.469355  -0.000123  0.297545  0.261475  -4.8e-05  0.969794  0.0
H  H6  1  0.85921762  0.96527555  0.32019116  1  0.465138  -0.0001  0.297564  0.261478  -4.8e-05  0.969867  0.0
H  H7  1  0.85921359  0.35491550  0.03472678  1  0.47178  -0.000136  0.297543  0.261432  -4.8e-05  0.969845  0.0
H  H8  1  0.14078815  0.32019023  0.35491544  1  0.469347  -0.000123  0.29756  0.261469  -4.8e-05  0.969809  0.0
H  H9  1  0.14078244  0.03472568  0.67980986  1  0.465124  -0.0001  0.297559  0.261508  -4.8e-05  0.969833  0.0
H  H10  1  0.14078647  0.64508478  0.96527668  1  0.47183  -0.000135  0.297576  0.261517  -4.8e-05  0.96977  0.0
H  H11  1  0.94145699  0.66194433  0.82558567  1  0.068821  0.004084  0.113017  0.067565  0.002094  1.021288  0.003
H  H12  1  0.94145405  0.16364485  0.33805990  1  0.065551  0.004091  0.113045  0.067605  0.002094  1.021216  0.003
H  H13  1  0.94145150  0.17441814  0.83635604  1  0.05008  0.004111  0.113049  0.067602  0.002094  1.02124  0.003
H  H14  1  0.05855090  0.33805680  0.17441694  1  0.068757  0.004085  0.113042  0.067564  0.002094  1.021266  0.003
H  H15  1  0.05854340  0.83635681  0.66194069  1  0.065538  0.004089  0.113037  0.067582  0.002094  1.021262  0.003
H  H16  1  0.05854725  0.82558492  0.16364169  1  0.050183  0.004111  0.113032  0.067601  0.002094  1.0213  0.003
H  H17  1  0.76017400  0.53936493  0.73899997  1  0.09181  0.000197  0.125101  0.09296  0.0001  0.974915  0.0
H  H18  1  0.76017005  0.19963485  0.46063695  1  0.092432  0.000199  0.125087  0.092929  0.0001  0.974989  0.0
H  H19  1  0.76016964  0.26100916  0.80037204  1  0.098144  0.000196  0.125117  0.092871  0.0001  0.975037  0.0
H  H20  1  0.23982997  0.46063492  0.26100392  1  0.091871  0.000197  0.125059  0.092896  0.0001  0.974998  0.0
H  H21  1  0.23982347  0.80036554  0.53936492  1  0.092476  0.000199  0.125093  0.092901  0.0001  0.974973  0.0
H  H22  1  0.23982519  0.73899639  0.19963500  1  0.098022  0.000196  0.125095  0.092942  0.0001  0.974993  0.0
H  H23  1  0.62124490  0.72536423  0.79186207  1  -0.003885  0.0005  0.086982  0.120456  0.000238  0.994765  0.0
H  H24  1  0.62124988  0.06649579  0.27463431  1  0.004095  0.000494  0.086973  0.120436  0.000238  0.994742  0.0
H  H25  1  0.62124656  0.20813282  0.93350037  1  -0.001169  0.000498  0.086986  0.120458  0.000238  0.994674  0.0
H  H26  1  0.37875646  0.27463320  0.20813685  1  -0.003917  0.0005  0.086987  0.120466  0.000238  0.994758  0.0
H  H27  1  0.37874887  0.93350005  0.72536472  1  0.004227  0.000494  0.086987  0.120486  0.000238  0.994667  0.0
H  H28  1  0.37874827  0.79186376  0.06649940  1  -0.001145  0.000497  0.086986  0.120476  0.000238  0.994683  0.0
H  H29  1  0.46909393  0.61200864  0.73595306  1  0.100853  0.001491  0.098912  0.135872  0.000731  1.059893  0.001
H  H30  1  0.46909027  0.12394029  0.38798603  1  0.108701  0.001486  0.098915  0.135886  0.000731  1.059909  0.001
H  H31  1  0.46908522  0.26404040  0.87605808  1  0.0911  0.001503  0.098917  0.135892  0.000731  1.059892  0.001
H  H32  1  0.53091396  0.38798584  0.26404291  1  0.10081  0.00149  0.098913  0.135915  0.000731  1.059852  0.001
H  H33  1  0.53090586  0.87605555  0.61201300  1  0.108662  0.001486  0.098922  0.135906  0.000731  1.059892  0.001
H  H34  1  0.53091091  0.73595587  0.12394052  1  0.090906  0.001503  0.098924  0.135906  0.000731  1.059863  0.001
H  H35  1  0.54411614  0.66852617  0.64906007  1  0.0692  -1.6e-05  0.098509  0.149288  -5.6e-05  1.002397  0.0
H  H36  1  0.54411790  0.98053061  0.33146821  1  0.071043  -1.6e-05  0.098511  0.149305  -5.6e-05  1.002429  0.0
H  H37  1  0.54410747  0.35093239  0.01947024  1  0.078238  -1.6e-05  0.098502  0.149273  -5.6e-05  1.002403  0.0
H  H38  1  0.45589045  0.33146673  0.35093601  1  0.069166  -1.6e-05  0.098505  0.149282  -5.6e-05  1.002404  0.0
H  H39  1  0.45588215  0.01946745  0.66853304  1  0.071097  -1.6e-05  0.098516  0.149336  -5.6e-05  1.002333  0.0
H  H40  1  0.45588475  0.64906249  0.98053124  1  0.07826  -1.6e-05  0.098511  0.149317  -5.6e-05  1.002376  0.0
H  H41  1  0.04456159  0.82507647  0.81118743  1  -0.015481  0.000139  0.08765  0.118913  6.1e-05  1.026776  0.0
H  H42  1  0.04455839  0.98611220  0.17492691  1  0.031318  0.000134  0.087645  0.118916  6.1e-05  1.026736  0.0
H  H43  1  0.04455625  0.18881350  0.01388441  1  -0.007482  0.00014  0.087634  0.118877  6.1e-05  1.026751  0.0
H  H44  1  0.95544238  0.17492489  0.18881200  1  -0.015507  0.00014  0.087645  0.118909  6.1e-05  1.026806  0.0
H  H45  1  0.95543906  0.01388597  0.82507275  1  0.031044  0.000134  0.087659  0.118922  6.1e-05  1.026733  0.0
H  H46  1  0.95543858  0.81118723  0.98611269  1  -0.007507  0.00014  0.087648  0.118899  6.1e-05  1.026739  0.0
H  H47  1  0.20643838  0.73750056  0.70785706  1  0.087749  0.000374  0.097557  0.145427  0.000234  1.02422  0.0
H  H48  1  0.20643423  0.97035406  0.26249688  1  0.086552  0.000372  0.097536  0.145402  0.000234  1.024233  0.0
H  H49  1  0.20643382  0.29214351  0.02964448  1  0.075857  0.000374  0.097537  0.14542  0.000235  1.024235  0.0
H  H50  1  0.79356951  0.26249688  0.29214186  1  0.087821  0.000374  0.097536  0.145417  0.000234  1.02424  0.0
H  H51  1  0.79356452  0.02964411  0.73750278  1  0.086563  0.000373  0.097522  0.145393  0.000235  1.024273  0.0
H  H52  1  0.79356754  0.70785423  0.97035561  1  0.07576  0.000374  0.097526  0.145379  0.000234  1.024276  0.0
H  H53  1  0.21773768  0.76355959  0.84964672  1  0.058573  0.000186  0.096209  0.135754  8.1e-05  1.005581  0.0
H  H54  1  0.21773530  0.08608484  0.23643628  1  0.064659  0.000186  0.096202  0.135718  8.1e-05  1.005614  0.0
H  H55  1  0.21773186  0.15034996  0.91390985  1  0.068843  0.000184  0.096204  0.135719  8.1e-05  1.005626  0.0
H  H56  1  0.78226630  0.23643416  0.15034851  1  0.058522  0.000186  0.096207  0.135715  8.1e-05  1.005613  0.0
H  H57  1  0.78226215  0.91391186  0.76356190  1  0.064644  0.000185  0.096184  0.135706  8.1e-05  1.005596  0.0
H  H58  1  0.78226559  0.84964813  0.08608546  1  0.068874  0.000184  0.096221  0.135741  8.1e-05  1.005596  0.0
C  C59  1  0.13455585  0.54314966  0.72796947  1  1.582089  0.002866  0.198792  0.567186  0.001753  4.18132  0.002
C  C60  1  0.13456231  0.18482373  0.45684658  1  1.581154  0.00284  0.198834  0.567338  0.001754  4.181359  0.002
C  C61  1  0.13455920  0.27203369  0.81517958  1  1.573469  0.002863  0.198755  0.567158  0.001754  4.181653  0.002
C  C62  1  0.86543767  0.45684885  0.27202542  1  1.581883  0.002867  0.198774  0.567234  0.001754  4.181379  0.002
C  C63  1  0.86544558  0.81518199  0.54314700  1  1.580768  0.002839  0.198732  0.567115  0.001753  4.181512  0.002
C  C64  1  0.86543954  0.72797662  0.18482711  1  1.574057  0.002862  0.19889  0.567333  0.001754  4.181499  0.002
C  C65  1  0.01844499  0.64421087  0.74995346  1  0.267573  0.000825  -0.000956  0.05356  0.000421  3.853548  -0.001
C  C66  1  0.01844547  0.10574535  0.35578930  1  0.28204  0.000858  -0.001001  0.053429  0.000423  3.853574  -0.001
C  C67  1  0.01844147  0.25004875  0.89425454  1  0.299994  0.0008  -0.001004  0.053427  0.000422  3.85359  -0.001
C  C68  1  0.98155768  0.35578742  0.25004461  1  0.267545  0.000827  -0.000969  0.053583  0.000422  3.853411  -0.001
C  C69  1  0.98155328  0.89425558  0.64421055  1  0.282354  0.000856  -0.001012  0.053509  0.000421  3.853645  -0.001
C  C70  1  0.98155336  0.74995567  0.10574625  1  0.299326  0.000802  -0.001045  0.053343  0.000422  3.853745  -0.001
C  C71  1  0.73203467  0.56173731  0.67278503  1  0.262134  0.000611  0.003223  0.032748  0.000103  3.839078  -0.001
C  C72  1  0.73203175  0.11104568  0.43825997  1  0.280508  0.000581  0.003253  0.032654  0.0001  3.839293  -0.001
C  C73  1  0.73202562  0.32722128  0.88895854  1  0.263794  0.000606  0.003232  0.032797  0.000103  3.83923  -0.001
C  C74  1  0.26797322  0.43826032  0.32721664  1  0.26186  0.000609  0.003231  0.032694  0.000101  3.839163  -0.001
C  C75  1  0.26796308  0.88895315  0.56173609  1  0.28031  0.000585  0.003265  0.032843  0.000103  3.839031  -0.001
C  C76  1  0.26796921  0.67278555  0.11104722  1  0.263884  0.000604  0.003196  0.032697  0.000101  3.83919  -0.001
C  C77  1  0.68587134  0.44787325  0.56826334  1  1.589662  -9.9e-05  0.23576  0.626465  -0.000152  4.084816  0.0
C  C78  1  0.68583602  0.12039814  0.55212817  1  1.598548  -0.000107  0.235706  0.626394  -0.000153  4.085177  0.0
C  C79  1  0.68586060  0.43174578  0.87962167  1  1.59604  -0.000101  0.235809  0.626502  -0.000152  4.084808  0.0
C  C80  1  0.31415614  0.55212779  0.43173493  1  1.589835  -0.0001  0.235853  0.626603  -0.000153  4.084876  0.0
C  C81  1  0.31412877  0.87961369  0.44787406  1  1.598864  -0.000108  0.235793  0.62652  -0.000152  4.084635  0.0
C  C82  1  0.31414990  0.56826304  0.12038948  1  1.596257  -0.000101  0.235801  0.626525  -0.000153  4.084943  0.0
C  C83  1  0.58174158  0.64696328  0.71411580  1  -0.075434  0.002453  -0.242376  -0.407216  0.001831  3.895502  0.002
C  C84  1  0.58173926  0.06715147  0.35303452  1  -0.098889  0.002468  -0.24237  -0.407178  0.001831  3.895523  0.002
C  C85  1  0.58173769  0.28588095  0.93284687  1  -0.081219  0.002451  -0.242375  -0.407222  0.001831  3.895467  0.002
C  C86  1  0.41826631  0.35303426  0.28588153  1  -0.075089  0.002453  -0.242354  -0.407237  0.001831  3.895467  0.002
C  C87  1  0.41825557  0.93284406  0.64696335  1  -0.098924  0.002467  -0.242404  -0.407348  0.001831  3.89537  0.002
C  C88  1  0.41825975  0.71411838  0.06715310  1  -0.081078  0.002451  -0.242394  -0.407301  0.001831  3.895441  0.002
C  C89  1  0.12807968  0.74952613  0.78072325  1  -0.049918  0.000784  -0.245129  -0.415353  0.000498  3.918766  0.0
C  C90  1  0.12807947  0.03119857  0.25047279  1  -0.128873  0.000796  -0.245104  -0.415294  0.000498  3.918741  0.0
C  C91  1  0.12807718  0.21927573  0.96879892  1  -0.069833  0.00079  -0.245112  -0.415284  0.000498  3.918688  0.0
C  C92  1  0.87192429  0.25047374  0.21927470  1  -0.049907  0.000784  -0.245107  -0.415319  0.000498  3.918857  0.0
C  C93  1  0.87192059  0.96880014  0.74952485  1  -0.128581  0.000796  -0.245062  -0.41524  0.000497  3.91877  0.0
C  C94  1  0.87192288  0.78072298  0.03119872  1  -0.069783  0.00079  -0.245099  -0.415249  0.000498  3.918779  0.0
N  N95  1  0.89440863  0.61158016  0.65474094  1  -1.054575  0.09321  -0.486178  -0.357035  0.060393  3.447338  0.078
N  N96  1  0.89441105  0.04316250  0.38841896  1  -1.055794  0.093212  -0.486152  -0.356859  0.0604  3.447237  0.078
N  N97  1  0.89440436  0.34525896  0.95684044  1  -1.058509  0.093232  -0.48616  -0.356843  0.060392  3.447204  0.078
N  N98  1  0.10559273  0.38841844  0.34525830  1  -1.0545  0.093212  -0.486166  -0.356917  0.060395  3.44708  0.078
N  N99  1  0.10559031  0.95683927  0.61158004  1  -1.055872  0.093192  -0.486171  -0.357066  0.060388  3.447328  0.078
N  N100  1  0.10559047  0.65474216  0.04316217  1  -1.058481  0.093243  -0.486168  -0.356941  0.060399  3.447203  0.078
O  O101  1  0.24319125  0.55653280  0.80425966  1  -1.192006  0.001573  -0.335824  -0.597992  0.000752  2.223849  0.001
O  O102  1  0.24319296  0.24773239  0.44346958  1  -1.193922  0.001573  -0.335817  -0.59803  0.000751  2.224043  0.001
O  O103  1  0.24319005  0.19574212  0.75226964  1  -1.197772  0.001576  -0.335837  -0.598002  0.000752  2.223997  0.001
O  O104  1  0.75681011  0.44347099  0.19573880  1  -1.192039  0.001573  -0.335815  -0.59798  0.000752  2.224029  0.001
O  O105  1  0.75680709  0.75226981  0.55652900  1  -1.193701  0.001573  -0.335852  -0.598016  0.000751  2.223701  0.001
O  O106  1  0.75681653  0.80426428  0.24773654  1  -1.197913  0.001575  -0.335875  -0.59802  0.000752  2.224179  0.001
O  O107  1  0.11769834  0.44921802  0.63463975  1  -1.201753  -0.001186  -0.38182  -0.646135  -0.001607  2.338779  0.0
O  O108  1  0.11770387  0.18541954  0.55077719  1  -1.184763  -0.001179  -0.381871  -0.646258  -0.001607  2.338758  0.0
O  O109  1  0.11770260  0.36536185  0.81457619  1  -1.184395  -0.001179  -0.381746  -0.646061  -0.001607  2.338888  0.0
O  O110  1  0.88229780  0.55078174  0.36535980  1  -1.201472  -0.001185  -0.381813  -0.646243  -0.001607  2.3388  0.0
O  O111  1  0.88229618  0.81458130  0.44921832  1  -1.184916  -0.001179  -0.381745  -0.646048  -0.001607  2.339068  0.0
O  O112  1  0.88229223  0.63463865  0.18542409  1  -1.18429  -0.001179  -0.381828  -0.64619  -0.001607  2.338668  0.0
O  O113  1  0.78747916  0.40718791  0.48183797  1  -1.13282  0.086617  -0.312475  -0.518577  0.055319  2.303203  0.079
O  O114  1  0.78748106  0.07464933  0.59281061  1  -1.14018  0.086704  -0.312594  -0.518744  0.055364  2.30252  0.079
O  O115  1  0.78746518  0.51816984  0.92535758  1  -1.143037  0.086609  -0.312443  -0.518416  0.055314  2.303327  0.079
O  O116  1  0.21252873  0.59281543  0.51816686  1  -1.132563  0.08666  -0.312507  -0.518572  0.055348  2.302681  0.079
O  O117  1  0.21252553  0.92535373  0.40718712  1  -1.140732  0.086615  -0.312451  -0.518475  0.055309  2.303141  0.079
O  O118  1  0.21252181  0.48183540  0.07464829  1  -1.142929  0.086664  -0.312513  -0.518632  0.055347  2.302832  0.079
O  O119  1  0.55160317  0.39614039  0.57288461  1  -1.209437  0.015226  -0.393673  -0.654513  0.009516  2.270391  0.013
O  O120  1  0.55160422  0.17673143  0.60384839  1  -1.214383  0.015219  -0.393445  -0.654176  0.009515  2.271409  0.013
O  O121  1  0.55158232  0.42711909  0.82326631  1  -1.210207  0.015224  -0.39366  -0.654569  0.009516  2.270114  0.013
O  O122  1  0.44840211  0.60385131  0.42711709  1  -1.209787  0.015225  -0.393621  -0.65448  0.009515  2.27102  0.013
O  O123  1  0.44840628  0.82326115  0.39614653  1  -1.214133  0.015214  -0.393705  -0.654614  0.009512  2.270273  0.013
O  O124  1  0.44840207  0.57288300  0.17673386  1  -1.210501  0.015227  -0.393601  -0.654435  0.009518  2.270762  0.013
