# generated using pymatgen
data_CdH9C14N5O4
_symmetry_space_group_name_H-M   'P 1'
_cell_length_a   9.90023543
_cell_length_b   10.06463670
_cell_length_c   14.79469835
_cell_angle_alpha   83.82581238
_cell_angle_beta   83.29859648
_cell_angle_gamma   80.06660411
_symmetry_Int_Tables_number   1
_chemical_formula_structural   CdH9C14N5O4
_chemical_formula_sum   'Cd4 H36 C56 N20 O16'
_cell_volume   1436.38720938
_cell_formula_units_Z   4
loop_
 _symmetry_equiv_pos_site_id
 _symmetry_equiv_pos_as_xyz
  1  'x, y, z'
loop_
 _atom_site_type_symbol
 _atom_site_label
 _atom_site_symmetry_multiplicity
 _atom_site_fract_x
 _atom_site_fract_y
 _atom_site_fract_z
 _atom_site_occupancy
 _atom_site_pbe_bader_spin_density
 _atom_site_pbe_cm5_charge
 _atom_site_pbe_ddec_charge
 _atom_site_pbe_ddec_spin_density
 _atom_site_pbe_ddec_sum_bond_order
 _atom_site_pbe_magmom
Cd  Cd0  1  0.19459414  0.25403283  0.15829219  1  0  0.77263  0.904999  0  2.157337  0
Cd  Cd1  1  0.80540672  0.74596766  0.84170759  1  0  0.772637  0.905002  0  2.157352  0
Cd  Cd2  1  0.98925451  0.99450092  0.31669078  1  0  0.785698  0.910042  0  2.087437  0
Cd  Cd3  1  0.01074500  0.00550161  0.68330895  1  0  0.785688  0.910019  0  2.087448  0
H  H4  1  0.02802660  0.46633910  0.31119239  1  0  0.106727  0.110968  0  1.013623  0
H  H5  1  0.97197153  0.53365938  0.68880976  1  0  0.106701  0.110954  0  1.013575  0
H  H6  1  0.22716816  0.65332930  0.49536317  1  0  0.110205  0.117225  0  1.019884  0
H  H7  1  0.77282948  0.34667222  0.50463745  1  0  0.110212  0.117252  0  1.019883  0
H  H8  1  0.23721644  0.22003533  0.52553512  1  0  0.111584  0.11516  0  1.033207  0
H  H9  1  0.76278459  0.77996416  0.47446539  1  0  0.111587  0.11517  0  1.033216  0
H  H10  1  0.75355996  0.27047952  0.85394698  1  0  0.105041  0.104418  0  1.028542  0
H  H11  1  0.24644175  0.72952199  0.14605333  1  0  0.105039  0.104427  0  1.028567  0
H  H12  1  0.50675937  0.09670000  0.69236387  1  0  0.109661  0.11292  0  1.017116  0
H  H13  1  0.49324080  0.90329848  0.30763746  1  0  0.109656  0.11292  0  1.017127  0
H  H14  1  0.48005373  0.52953251  0.67829015  1  0  0.109756  0.112673  0  1.03072  0
H  H15  1  0.51994644  0.47046596  0.32171050  1  0  0.10976  0.112683  0  1.030751  0
H  H16  1  0.41125764  0.21120054  0.92570629  1  0  0.109573  0.103244  0  1.015437  0
H  H17  1  0.58874204  0.78880097  0.07429282  1  0  0.10958  0.103248  0  1.01544  0
H  H18  1  0.26264243  0.25123218  0.77239182  1  0  0.121911  0.117216  0  1.035963  0
H  H19  1  0.73735844  0.74876832  0.22760728  1  0  0.121906  0.117209  0  1.035877  0
H  H20  1  0.64514377  0.44856419  0.09604858  1  0  0.1201  0.115254  0  1.000281  0
H  H21  1  0.35485506  0.55143631  0.90395135  1  0  0.120098  0.115261  0  1.000344  0
H  H22  1  0.82118583  0.36786209  0.23273144  1  0  0.121413  0.118912  0  0.987904  0
H  H23  1  0.17881418  0.63213739  0.76726915  1  0  0.121414  0.118923  0  0.98795  0
H  H24  1  0.96962009  0.01389480  0.06449073  1  0  0.117712  0.113029  0  1.02224  0
H  H25  1  0.03038078  0.98610569  0.93550837  1  0  0.117716  0.113032  0  1.02223  0
H  H26  1  0.70758295  0.06692834  0.00345736  1  0  0.117703  0.118571  0  1.016254  0
H  H27  1  0.29241690  0.93307216  0.99654181  1  0  0.117685  0.118552  0  1.016248  0
H  H28  1  0.47606287  0.20947247  0.48876581  1  0  0.112436  0.09484  0  1.106868  0
H  H29  1  0.52393714  0.79052701  0.51123410  1  0  0.112432  0.094815  0  1.106891  0
H  H30  1  0.74097530  0.08231887  0.52251425  1  0  0.121262  0.131297  0  1.016845  0
H  H31  1  0.25902573  0.91768062  0.47748491  1  0  0.121245  0.131291  0  1.01681  0
H  H32  1  0.80058288  0.42568496  0.94553482  1  0  0.306931  0.290197  0  1.004524  0
H  H33  1  0.19941799  0.57431553  0.05446428  1  0  0.306946  0.290217  0  1.004489  0
H  H34  1  0.02184622  0.31871339  0.82790708  1  0  0.322162  0.306793  0  0.942986  0
H  H35  1  0.97815395  0.68128508  0.17209289  1  0  0.322145  0.306784  0  0.942972  0
H  H36  1  0.47563187  0.21655291  0.31409114  1  0  0.318241  0.304631  0  0.959104  0
H  H37  1  0.52436814  0.78344657  0.68590877  1  0  0.318229  0.304609  0  0.959138  0
H  H38  1  0.54129477  0.09392903  0.15245436  1  0  0.309707  0.294329  0  0.981595  0
H  H39  1  0.45870610  0.90607147  0.84754542  1  0  0.309702  0.29432  0  0.9816  0
C  C40  1  0.13229100  0.32944917  0.41372892  1  0  -0.014402  -0.016288  0  3.978263  0
C  C41  1  0.86770782  0.67055133  0.58627236  1  0  -0.014451  -0.016356  0  3.978324  0
C  C42  1  0.08930258  0.45706243  0.36873271  1  0  -0.069137  -0.090266  0  3.90649  0
C  C43  1  0.91069539  0.54293707  0.63126871  1  0  -0.069033  -0.09017  0  3.906365  0
C  C44  1  0.12215880  0.57385417  0.39805176  1  0  -0.015833  -0.026843  0  3.970869  0
C  C45  1  0.87783815  0.42614533  0.60194973  1  0  -0.015861  -0.026828  0  3.970923  0
C  C46  1  0.20040602  0.56292712  0.47211120  1  0  -0.062464  -0.126265  0  3.872192  0
C  C47  1  0.79959178  0.43707339  0.52789016  1  0  -0.062487  -0.126336  0  3.872212  0
C  C48  1  0.24546339  0.43542690  0.51621318  1  0  0.084796  0.155535  0  4.048448  0
C  C49  1  0.75453441  0.56457360  0.48378885  1  0  0.084844  0.155534  0  4.048452  0
C  C50  1  0.20838341  0.31839168  0.48839294  1  0  -0.068252  -0.142793  0  3.885272  0
C  C51  1  0.79161643  0.68160882  0.51160827  1  0  -0.06827  -0.14279  0  3.885411  0
C  C52  1  0.09350377  0.20514887  0.38353290  1  0  0.199086  0.562771  0  4.195351  0
C  C53  1  0.90649794  0.79485263  0.61646741  1  0  0.199066  0.562735  0  4.195332  0
C  C54  1  0.07161496  0.71014552  0.35116541  1  0  0.196393  0.566142  0  4.230951  0
C  C55  1  0.92838098  0.28985397  0.64883481  1  0  0.196392  0.566182  0  4.230883  0
C  C56  1  0.61815840  0.41413805  0.77173107  1  0  -0.018675  -0.03858  0  3.99938  0
C  C57  1  0.38184246  0.58586245  0.22826938  1  0  -0.018669  -0.038563  0  3.999357  0
C  C58  1  0.67355977  0.28391692  0.80768173  1  0  -0.071287  -0.098299  0  3.918487  0
C  C59  1  0.32644008  0.71608358  0.19231812  1  0  -0.071281  -0.098321  0  3.918476  0
C  C60  1  0.63208017  0.16902483  0.78123109  1  0  -0.016382  -0.026685  0  3.986761  0
C  C61  1  0.36792000  0.83097364  0.21877024  1  0  -0.016402  -0.026688  0  3.986782  0
C  C62  1  0.53683849  0.18469616  0.71675948  1  0  -0.062038  -0.126504  0  3.868036  0
C  C63  1  0.46316254  0.81530333  0.28324103  1  0  -0.062083  -0.126589  0  3.868146  0
C  C64  1  0.48185324  0.31445703  0.68022314  1  0  0.089414  0.159071  0  4.047441  0
C  C65  1  0.51814574  0.68554246  0.31977821  1  0  0.089462  0.159163  0  4.047395  0
C  C66  1  0.52152103  0.42943800  0.70834089  1  0  -0.06653  -0.134509  0  3.890411  0
C  C67  1  0.47848000  0.57056148  0.29165895  1  0  -0.066541  -0.134553  0  3.890465  0
C  C68  1  0.67006438  0.53622292  0.79532279  1  0  0.201379  0.570081  0  4.214332  0
C  C69  1  0.32993681  0.46377555  0.20467778  1  0  0.201378  0.570081  0  4.214321  0
C  C70  1  0.69995982  0.03054180  0.81518525  1  0  0.198464  0.561034  0  4.218389  0
C  C71  1  0.30004120  0.96945769  0.18481527  1  0  0.198458  0.561045  0  4.218337  0
C  C72  1  0.30189450  0.24296457  0.92061857  1  0  -0.00771  -0.038483  0  4.048121  0
C  C73  1  0.69810636  0.75703593  0.07938121  1  0  -0.007721  -0.038503  0  4.048164  0
C  C74  1  0.23163521  0.26317841  0.84385086  1  0  0.00724  -0.031447  0  3.939862  0
C  C75  1  0.76836464  0.73682209  0.15614764  1  0  0.007256  -0.031441  0  3.939809  0
C  C76  1  0.08491850  0.30609304  0.96548300  1  0  0.211449  0.223281  0  4.055668  0
C  C77  1  0.91508151  0.69390644  0.03451691  1  0  0.211451  0.223254  0  4.055672  0
C  C78  1  0.96416813  0.34159125  0.02798623  1  0  0.208086  0.20845  0  4.083629  0
C  C79  1  0.03583189  0.65840823  0.97201233  1  0  0.207998  0.208369  0  4.083772  0
C  C80  1  0.75418170  0.40821767  0.09209505  1  0  0.004283  -0.034629  0  3.933791  0
C  C81  1  0.24582034  0.59178181  0.90790471  1  0  0.004295  -0.034584  0  3.933736  0
C  C82  1  0.84256861  0.36920873  0.15908239  1  0  0.004568  -0.009036  0  3.981443  0
C  C83  1  0.15743158  0.63078974  0.84091556  1  0  0.004571  -0.009105  0  3.981326  0
C  C84  1  0.86902352  0.03743127  0.10159245  1  0  0.004359  -0.007096  0  3.988491  0
C  C85  1  0.13097633  0.96256922  0.89840673  1  0  0.004299  -0.007188  0  3.988569  0
C  C86  1  0.73971373  0.06536204  0.07111843  1  0  0.000924  -0.044457  0  3.934421  0
C  C87  1  0.26028628  0.93463745  0.92888081  1  0  0.000947  -0.044408  0  3.934397  0
C  C88  1  0.72164693  0.07617510  0.22025446  1  0  0.210931  0.208315  0  4.098621  0
C  C89  1  0.27835308  0.92382438  0.77974545  1  0  0.210972  0.208373  0  4.0985  0
C  C90  1  0.67540581  0.09715609  0.31421651  1  0  0.20824  0.208538  0  4.084259  0
C  C91  1  0.32459404  0.90284441  0.68578266  1  0  0.208255  0.20857  0  4.08422  0
C  C92  1  0.56105703  0.16413821  0.44295987  1  0  -0.000155  -0.04429  0  3.927502  0
C  C93  1  0.43894315  0.83586026  0.55703943  1  0  -0.00015  -0.044237  0  3.927513  0
C  C94  1  0.69193633  0.10033847  0.45950257  1  0  0.005817  -0.01261  0  3.958735  0
C  C95  1  0.30806470  0.89966101  0.54049659  1  0  0.005839  -0.012619  0  3.958685  0
N  N96  1  0.32869439  0.43446622  0.58760581  1  0  -0.14261  -0.120169  0  3.250549  0
N  N97  1  0.67130561  0.56553327  0.41239478  1  0  -0.142613  -0.120166  0  3.250464  0
N  N98  1  0.39157566  0.31802380  0.61245566  1  0  -0.145211  -0.125837  0  3.303743  0
N  N99  1  0.60842333  0.68197569  0.38754501  1  0  -0.145226  -0.125848  0  3.303718  0
N  N100  1  0.97259164  0.32807547  0.11831270  1  0  -0.354235  -0.330103  0  3.475677  0
N  N101  1  0.02740752  0.67192300  0.88168736  1  0  -0.354183  -0.330003  0  3.475651  0
N  N102  1  0.20999728  0.26960140  0.99598479  1  0  -0.354561  -0.358937  0  3.46789  0
N  N103  1  0.79000359  0.73039910  0.00401431  1  0  -0.354578  -0.358936  0  3.467903  0
N  N104  1  0.83249767  0.38986908  0.00974781  1  0  -0.377413  -0.246277  0  3.652289  0
N  N105  1  0.16750217  0.61013142  0.99025204  1  0  -0.377399  -0.246288  0  3.652267  0
N  N106  1  0.09563719  0.30292667  0.87333432  1  0  -0.367398  -0.220209  0  3.631905  0
N  N107  1  0.90436181  0.69707282  0.12666500  1  0  -0.367386  -0.220157  0  3.63185  0
N  N108  1  0.76189960  0.05877498  0.37898482  1  0  -0.347725  -0.331014  0  3.446998  0
N  N109  1  0.23810041  0.94122450  0.62101509  1  0  -0.347739  -0.331027  0  3.446945  0
N  N110  1  0.85647006  0.04397864  0.19417846  1  0  -0.349246  -0.328482  0  3.484383  0
N  N111  1  0.14352979  0.95602186  0.80582071  1  0  -0.349229  -0.328454  0  3.484386  0
N  N112  1  0.55199287  0.16115564  0.35086339  1  0  -0.372214  -0.232145  0  3.618208  0
N  N113  1  0.44800815  0.83884385  0.64913712  1  0  -0.372223  -0.232182  0  3.618211  0
N  N114  1  0.64738482  0.08981268  0.14719450  1  0  -0.375653  -0.246645  0  3.65423  0
N  N115  1  0.35261502  0.91018782  0.85280535  1  0  -0.375649  -0.24665  0  3.654171  0
O  O116  1  0.06828513  0.20791643  0.29876753  1  0  -0.344628  -0.58881  0  2.358099  0
O  O117  1  0.93171352  0.79208509  0.70123437  1  0  -0.344623  -0.588822  0  2.358032  0
O  O118  1  0.08274352  0.10379055  0.43909192  1  0  -0.29336  -0.487592  0  2.172099  0
O  O119  1  0.91725531  0.89620995  0.56090869  1  0  -0.293349  -0.487564  0  2.172178  0
O  O120  1  0.98848931  0.72023537  0.29115554  1  0  -0.332192  -0.582282  0  2.185418  0
O  O121  1  0.01150933  0.27976007  0.70884275  1  0  -0.332183  -0.582274  0  2.185345  0
O  O122  1  0.11553054  0.81127018  0.37708081  1  0  -0.322864  -0.531276  0  2.273859  0
O  O123  1  0.88446304  0.18873135  0.62292012  1  0  -0.322866  -0.531316  0  2.273848  0
O  O124  1  0.62130865  0.65372878  0.76266496  1  0  -0.319193  -0.557499  0  2.209418  0
O  O125  1  0.37869119  0.34627171  0.23733490  1  0  -0.319196  -0.557509  0  2.209469  0
O  O126  1  0.76801685  0.51705483  0.84773243  1  0  -0.326816  -0.566714  0  2.293289  0
O  O127  1  0.23198316  0.48294466  0.15226748  1  0  -0.326813  -0.566692  0  2.293222  0
O  O128  1  0.63214485  0.93099328  0.81900117  1  0  -0.330485  -0.56522  0  2.264508  0
O  O129  1  0.36785499  0.06900721  0.18099868  1  0  -0.330476  -0.565219  0  2.264521  0
O  O130  1  0.82218665  0.01497273  0.83589184  1  0  -0.317199  -0.551626  0  2.197898  0
O  O131  1  0.17781438  0.98502676  0.16410867  1  0  -0.317188  -0.551628  0  2.197893  0
