# generated using pymatgen
data_AlH6C14NO5
_symmetry_space_group_name_H-M   'P 1'
_cell_length_a   6.67384580
_cell_length_b   20.06683829
_cell_length_c   23.31780562
_cell_angle_alpha   86.63668994
_cell_angle_beta   89.99952409
_cell_angle_gamma   90.00048568
_symmetry_Int_Tables_number   1
_chemical_formula_structural   AlH6C14NO5
_chemical_formula_sum   'Al4 H24 C56 N4 O20'
_cell_volume   3117.41142637
_cell_formula_units_Z   4
loop_
 _symmetry_equiv_pos_site_id
 _symmetry_equiv_pos_as_xyz
  1  'x, y, z'
loop_
 _atom_site_type_symbol
 _atom_site_label
 _atom_site_symmetry_multiplicity
 _atom_site_fract_x
 _atom_site_fract_y
 _atom_site_fract_z
 _atom_site_occupancy
 _atom_site_pbe_bader_charge
 _atom_site_pbe_bader_spin_density
 _atom_site_pbe_cm5_charge
 _atom_site_pbe_ddec_charge
 _atom_site_pbe_ddec_spin_density
 _atom_site_pbe_ddec_sum_bond_order
 _atom_site_pbe_magmom
Al  Al0  1  0.23641032  0.25031116  0.24995013  1  2.496169  0  0.403431  1.644825  0  2.580971  0
Al  Al1  1  0.76352948  0.74956005  0.75034627  1  2.501961  0  0.403053  1.644776  0  2.579391  0
Al  Al2  1  0.73646232  0.24955549  0.25034512  1  2.501991  0  0.403047  1.644679  0  2.579256  0
Al  Al3  1  0.26358687  0.75031124  0.74995129  1  2.496165  0  0.403539  1.644755  0  2.581022  0
H  H4  1  0.31177318  0.01312947  0.45299649  1  0.065582  0  0.099087  0.095295  0  1.021354  0
H  H5  1  0.69481514  0.94390304  0.51451899  1  0.060023  0  0.099857  0.096523  0  1.017363  0
H  H6  1  0.80520096  0.44390323  0.01451726  1  0.059857  0  0.099833  0.096491  0  1.017288  0
H  H7  1  0.18822404  0.51313116  0.95300724  1  0.065691  0  0.099053  0.095291  0  1.021328  0
H  H8  1  0.30250197  0.09819239  0.37125324  1  0.110377  0  0.110014  0.115325  0  0.998072  0
H  H9  1  0.69853781  0.86305764  0.59926476  1  0.117032  0  0.111187  0.116243  0  0.994802  0
H  H10  1  0.80147215  0.36305448  0.09926091  1  0.116923  0  0.111099  0.116151  0  0.994824  0
H  H11  1  0.19748637  0.59819411  0.87126397  1  0.110061  0  0.110082  0.115401  0  0.99799  0
H  H12  1  0.67612291  0.13064681  0.40095433  1  0.103811  0  0.110092  0.114511  0  0.995655  0
H  H13  1  0.31897395  0.90693973  0.62816853  1  0.114921  0  0.109273  0.11358  0  0.996747  0
H  H14  1  0.18104418  0.40694001  0.12817435  1  0.115039  0  0.109243  0.113539  0  0.99667  0
H  H15  1  0.82388060  0.63064716  0.90094678  1  0.103289  0  0.11006  0.11444  0  0.995583  0
H  H16  1  0.68578818  0.04930178  0.48536513  1  0.058573  0  0.099077  0.094608  0  1.021722  0
H  H17  1  0.31379784  0.99179608  0.54624415  1  0.061262  0  0.099032  0.095599  0  1.018913  0
H  H18  1  0.18622641  0.49180066  0.04625295  1  0.061427  0  0.098998  0.095551  0  1.01904  0
H  H19  1  0.81422568  0.54929961  0.98535761  1  0.058627  0  0.099071  0.094611  0  1.021735  0
H  H20  1  0.70073881  0.00591582  0.06295946  1  0.122168  0  0.124265  0.13801  0  0.973168  0
H  H21  1  0.30091965  0.99448401  0.93695280  1  0.134124  0  0.124114  0.137797  0  0.973912  0
H  H22  1  0.19908151  0.49448531  0.43695128  1  0.134237  0  0.124108  0.137788  0  0.973903  0
H  H23  1  0.79924904  0.50591899  0.56296097  1  0.12221  0  0.124277  0.137982  0  0.973201  0
H  H24  1  0.48602750  0.16649032  0.23339980  1  0.6316  0  0.358226  0.437308  0  0.843115  0
H  H25  1  0.51537029  0.83459995  0.76426893  1  0.622152  0  0.358927  0.438247  0  0.841197  0
H  H26  1  0.98461816  0.33459767  0.26426900  1  0.622182  0  0.358937  0.438305  0  0.841174  0
H  H27  1  0.01395367  0.66649423  0.73339758  1  0.631636  0  0.358288  0.437338  0  0.843129  0
C  C28  1  0.48238931  0.32708584  0.32600578  1  1.711092  0  0.282533  0.713644  0  4.157953  0
C  C29  1  0.50905165  0.67284581  0.67423419  1  1.70814  0  0.281639  0.713761  0  4.157261  0
C  C30  1  0.99093392  0.17284139  0.17423683  1  1.708206  0  0.281608  0.713721  0  4.156914  0
C  C31  1  0.01763659  0.82708697  0.82600828  1  1.711204  0  0.282454  0.713569  0  4.158012  0
C  C32  1  0.49169866  0.33218540  0.17012661  1  1.561403  0  0.266462  0.641825  0  4.103335  0
C  C33  1  0.51730489  0.66761587  0.83002607  1  1.566291  0  0.266662  0.641281  0  4.104067  0
C  C34  1  0.98267494  0.16761660  0.33002572  1  1.566201  0  0.26684  0.641684  0  4.1039  0
C  C35  1  0.00831650  0.83219150  0.67012869  1  1.56153  0  0.266416  0.641683  0  4.103478  0
C  C36  1  0.17258402  0.03964765  0.44268765  1  -0.03531  0  -0.090549  -0.134224  0  3.984885  0
C  C37  1  0.83102094  0.93737860  0.54007318  1  -0.042146  0  -0.089662  -0.133945  0  3.984025  0
C  C38  1  0.66899261  0.43737880  0.04007172  1  -0.042127  0  -0.089679  -0.133975  0  3.983958  0
C  C39  1  0.32742009  0.53964525  0.94269213  1  -0.035451  0  -0.090538  -0.134181  0  3.984752  0
C  C40  1  0.16810963  0.08659067  0.39645592  1  -0.158681  0  -0.079242  -0.08239  0  3.978611  0
C  C41  1  0.83257946  0.89146640  0.58703445  1  -0.091308  0  -0.078172  -0.078757  0  3.974928  0
C  C42  1  0.66743299  0.39146361  0.08703301  1  -0.091494  0  -0.078047  -0.078587  0  3.975142  0
C  C43  1  0.33188058  0.58659211  0.89646296  1  -0.158267  0  -0.079293  -0.082498  0  3.978631  0
C  C44  1  0.98850677  0.11904400  0.38079114  1  0.037708  0  -0.016201  -0.047877  0  3.975854  0
C  C45  1  0.00854115  0.88040973  0.61909405  1  0.019993  0  -0.01678  -0.049223  0  3.975018  0
C  C46  1  0.49147829  0.38040697  0.11909411  1  0.020481  0  -0.016797  -0.049406  0  3.975626  0
C  C47  1  0.51148377  0.61904424  0.88079151  1  0.037848  0  -0.016136  -0.04771  0  3.975996  0
C  C48  1  0.81458983  0.10460270  0.41292111  1  -0.009123  0  -0.078015  -0.078841  0  3.973358  0
C  C49  1  0.18267377  0.91594233  0.60314066  1  -0.024384  0  -0.079488  -0.081327  0  3.977204  0
C  C50  1  0.31734993  0.41594367  0.10314492  1  -0.025022  0  -0.079459  -0.081213  0  3.97742  0
C  C51  1  0.68540525  0.60460283  0.91291727  1  -0.008478  0  -0.077984  -0.078719  0  3.973036  0
C  C52  1  0.82064501  0.05845042  0.45970306  1  -0.041517  0  -0.090328  -0.134778  0  3.98377  0
C  C53  1  0.17930070  0.96273744  0.55675298  1  -0.053122  0  -0.090373  -0.134832  0  3.983653  0
C  C54  1  0.32071960  0.46273777  0.05675767  1  -0.053038  0  -0.090408  -0.134787  0  3.98395  0
C  C55  1  0.67936097  0.55844804  0.95969924  1  -0.041325  0  -0.09028  -0.134779  0  3.98368  0
C  C56  1  0.99910522  0.02451112  0.47526264  1  -0.036474  0  -0.001714  0.077283  0  3.991429  0
C  C57  1  0.00350171  0.97455949  0.52431218  1  -0.024544  0  -0.001414  0.075324  0  3.992961  0
C  C58  1  0.49651849  0.47455913  0.02431394  1  -0.024488  0  -0.001303  0.075442  0  3.993225  0
C  C59  1  0.50090852  0.52451066  0.97526561  1  -0.036936  0  -0.001798  0.077103  0  3.991608  0
C  C60  1  0.83221819  0.00307157  0.03567406  1  0.029988  0  -0.049362  -0.124416  0  3.867756  0
C  C61  1  0.16932340  0.99738812  0.96419079  1  0.015443  0  -0.049147  -0.123236  0  3.870233  0
C  C62  1  0.33067384  0.49738877  0.46419116  1  0.064232  0  -0.049146  -0.123247  0  3.870228  0
C  C63  1  0.66776759  0.50307427  0.53567584  1  0.03007  0  -0.049309  -0.124222  0  3.867319  0
C  C64  1  0.99601304  0.04487289  0.04508789  1  0.109505  0  0.02713  0.119592  0  4.054076  0
C  C65  1  0.00545962  0.95557932  0.95477698  1  0.105734  0  0.02707  0.115152  0  4.060169  0
C  C66  1  0.49453714  0.45558223  0.45477444  1  0.056779  0  0.027062  0.115152  0  4.060331  0
C  C67  1  0.50396872  0.54487397  0.54509042  1  0.109352  0  0.027076  0.119359  0  4.054033  0
C  C68  1  0.16603645  0.04136785  0.00845503  1  0.110979  0  0.026567  0.035857  0  4.021475  0
C  C69  1  0.83540775  0.95912837  0.99136119  1  0.146293  0  0.026136  0.036412  0  4.023732  0
C  C70  1  0.66458390  0.45913144  0.49136145  1  0.146448  0  0.026009  0.036276  0  4.023657  0
C  C71  1  0.33395343  0.54136871  0.50845562  1  0.110776  0  0.026658  0.036  0  4.021489  0
C  C72  1  0.99175125  0.08922527  0.08982039  1  -0.230482  0  -0.017133  -0.035881  0  4.080586  0
C  C73  1  0.01026982  0.91108261  0.91014967  1  -0.240633  0  -0.016479  -0.033833  0  4.079792  0
C  C74  1  0.48973669  0.41108500  0.41014715  1  -0.240067  0  -0.016448  -0.033828  0  4.079873  0
C  C75  1  0.50824024  0.58922900  0.58982075  1  -0.230502  0  -0.017208  -0.035929  0  4.080618  0
C  C76  1  0.01426484  0.87260390  0.87173798  1  0.022021  0  -0.010063  -0.143672  0  3.894026  0
C  C77  1  0.98981202  0.12756129  0.12835832  1  0.003233  0  -0.011751  -0.14646  0  3.896988  0
C  C78  1  0.51016984  0.62757034  0.62835351  1  0.003147  0  -0.011772  -0.146444  0  3.897107  0
C  C79  1  0.48575430  0.37260470  0.37173675  1  0.021507  0  -0.009984  -0.143566  0  3.893938  0
C  C80  1  0.66448957  0.91840246  0.98244914  1  0.821376  0  0.183976  0.232586  0  4.014719  0
C  C81  1  0.33705352  0.08205554  0.01738006  1  0.847786  0  0.18458  0.233595  0  4.014033  0
C  C82  1  0.16294132  0.58205437  0.51737971  1  0.848005  0  0.18462  0.233664  0  4.014066  0
C  C83  1  0.83550460  0.41840761  0.48244949  1  0.820973  0  0.183934  0.232512  0  4.014758  0
N  N84  1  0.52063380  0.88668759  0.97549018  1  -1.100867  0  -0.289715  -0.335801  0  2.703844  0
N  N85  1  0.48095874  0.11374752  0.02433093  1  -1.108165  0  -0.290309  -0.336686  0  2.703813  0
N  N86  1  0.01904247  0.61374946  0.52432870  1  -1.108329  0  -0.29039  -0.336786  0  2.703838  0
N  N87  1  0.97935851  0.38669281  0.47548938  1  -1.100386  0  -0.289664  -0.335739  0  2.703851  0
O  O88  1  0.66140388  0.30914734  0.18677301  1  -1.26564  0  -0.238192  -0.598542  0  2.354529  0
O  O89  1  0.35064894  0.68226327  0.80556667  1  -1.266784  0  -0.239749  -0.604562  0  2.355947  0
O  O90  1  0.14933442  0.18226262  0.30556182  1  -1.266639  0  -0.239936  -0.604899  0  2.355886  0
O  O91  1  0.83860037  0.80915353  0.68677615  1  -1.265801  0  -0.238219  -0.598604  0  2.354384  0
O  O92  1  0.31146543  0.30583564  0.31149161  1  -1.226097  0  -0.220347  -0.568055  0  2.272758  0
O  O93  1  0.67763483  0.68557077  0.69654361  1  -1.230882  0  -0.221732  -0.574603  0  2.277941  0
O  O94  1  0.82235318  0.18556208  0.19654917  1  -1.231138  0  -0.221794  -0.574645  0  2.277924  0
O  O95  1  0.18853062  0.80583586  0.81149421  1  -1.226212  0  -0.220235  -0.567862  0  2.273353  0
O  O96  1  0.32347874  0.31846610  0.19410277  1  -1.259953  0  -0.240756  -0.605527  0  2.345501  0
O  O97  1  0.68850354  0.69000855  0.81400733  1  -1.258485  0  -0.237723  -0.596696  0  2.345187  0
O  O98  1  0.81148630  0.19000846  0.31401032  1  -1.258447  0  -0.237641  -0.596658  0  2.345302  0
O  O99  1  0.17652180  0.81847123  0.69410581  1  -1.260144  0  -0.240713  -0.605338  0  2.345692  0
O  O100  1  0.16134624  0.19514285  0.18816371  1  -1.225262  0  -0.221087  -0.570707  0  2.27695  0
O  O101  1  0.84885773  0.81321961  0.80440110  1  -1.232909  0  -0.221696  -0.575198  0  2.282141  0
O  O102  1  0.65113485  0.31322069  0.30440053  1  -1.232944  0  -0.221692  -0.575092  0  2.282776  0
O  O103  1  0.33864912  0.69514470  0.68816472  1  -1.225336  0  -0.221093  -0.570702  0  2.277169  0
O  O104  1  0.48592572  0.20924153  0.25070880  1  -1.432208  0  -0.447537  -0.994034  0  2.191713  0
O  O105  1  0.51386575  0.79056244  0.74932448  1  -1.421518  0  -0.447681  -0.994827  0  2.195901  0
O  O106  1  0.98613587  0.29056125  0.24932326  1  -1.421569  0  -0.447691  -0.99494  0  2.195984  0
O  O107  1  0.01405716  0.70924433  0.75070829  1  -1.432199  0  -0.447653  -0.994161  0  2.191854  0
