# generated using pymatgen
data_AlHC12IO5F3
_symmetry_space_group_name_H-M   'P 1'
_cell_length_a   6.66247820
_cell_length_b   21.49406431
_cell_length_c   23.49495550
_cell_angle_alpha   102.61279187
_cell_angle_beta   90.00022907
_cell_angle_gamma   89.99991422
_symmetry_Int_Tables_number   1
_chemical_formula_structural   AlHC12IO5F3
_chemical_formula_sum   'Al4 H4 C48 I4 O20 F12'
_cell_volume   3283.37180273
_cell_formula_units_Z   4
loop_
 _symmetry_equiv_pos_site_id
 _symmetry_equiv_pos_as_xyz
  1  'x, y, z'
loop_
 _atom_site_type_symbol
 _atom_site_label
 _atom_site_symmetry_multiplicity
 _atom_site_fract_x
 _atom_site_fract_y
 _atom_site_fract_z
 _atom_site_occupancy
 _atom_site_pbe_bader_charge
 _atom_site_pbe_bader_spin_density
 _atom_site_pbe_cm5_charge
 _atom_site_pbe_ddec_charge
 _atom_site_pbe_ddec_spin_density
 _atom_site_pbe_ddec_sum_bond_order
 _atom_site_pbe_magmom
Al  Al0  1  0.22778576  0.25045717  0.25022030  1  2.502437  0  0.406086  1.650637  0  2.573333  0
Al  Al1  1  0.77221309  0.74954309  0.74977938  1  2.502442  0  0.406039  1.650525  0  2.573446  0
Al  Al2  1  0.72778589  0.24954266  0.24977870  1  2.502448  0  0.406065  1.650552  0  2.573405  0
Al  Al3  1  0.27221446  0.75045693  0.75022010  1  2.502449  0  0.406037  1.650515  0  2.573494  0
H  H4  1  0.47962125  0.33044077  0.24568326  1  0.612667  0  0.360937  0.444963  0  0.832188  0
H  H5  1  0.52037760  0.66955933  0.75431772  1  0.612663  0  0.36096  0.444995  0  0.832139  0
H  H6  1  0.97962034  0.16955998  0.25431820  1  0.612669  0  0.36096  0.445005  0  0.832138  0
H  H7  1  0.02037701  0.83044114  0.74568323  1  0.612657  0  0.360933  0.444965  0  0.832184  0
C  C8  1  0.47681582  0.16397033  0.16400441  1  1.70996  0  0.274972  0.697457  0  4.186308  0
C  C9  1  0.52318903  0.83603133  0.83599527  1  1.70992  0  0.274976  0.697585  0  4.186182  0
C  C10  1  0.97681524  0.33603049  0.33599530  1  1.709854  0  0.27495  0.697492  0  4.186291  0
C  C11  1  0.02318211  0.66396800  0.66400479  1  1.709855  0  0.274955  0.697517  0  4.1862  0
C  C12  1  0.47697897  0.18259534  0.32008237  1  1.617483  0  0.277163  0.687212  0  4.076494  0
C  C13  1  0.52301688  0.81740322  0.67991599  1  1.617431  0  0.277157  0.687228  0  4.076512  0
C  C14  1  0.97697179  0.31740388  0.17991646  1  1.617403  0  0.277099  0.68715  0  4.076559  0
C  C15  1  0.02302255  0.68259705  0.82008409  1  1.617578  0  0.277135  0.687157  0  4.076505  0
C  C16  1  0.17428097  0.55327989  0.90124760  1  -0.147575  0  -0.059839  -0.111761  0  3.912065  0
C  C17  1  0.82571788  0.44672104  0.09875295  1  -0.14759  0  -0.059851  -0.111816  0  3.912086  0
C  C18  1  0.67428253  0.94671818  0.59875132  1  -0.147539  0  -0.059816  -0.111743  0  3.912037  0
C  C19  1  0.32571932  0.05327991  0.40124703  1  -0.147498  0  -0.05985  -0.111866  0  3.912095  0
C  C20  1  0.17328397  0.59425695  0.86281679  1  0.508646  0  0.1011  0.254955  0  4.053035  0
C  C21  1  0.82671638  0.40574501  0.13718421  1  0.508656  0  0.101126  0.254999  0  4.052922  0
C  C22  1  0.67328027  0.90574329  0.63718345  1  0.508643  0  0.101078  0.254946  0  4.053066  0
C  C23  1  0.32671708  0.09425527  0.36281490  1  0.508685  0  0.101108  0.255011  0  4.052758  0
C  C24  1  0.02318506  0.64040328  0.86316242  1  0.129611  0  -0.019199  -0.226408  0  3.94684  0
C  C25  1  0.97681529  0.35959831  0.13683901  1  0.130285  0  -0.019203  -0.226411  0  3.946784  0
C  C26  1  0.52318008  0.85959765  0.63683853  1  0.13029  0  -0.019224  -0.22643  0  3.946851  0
C  C27  1  0.47681577  0.14040101  0.36316026  1  0.130191  0  -0.019196  -0.226336  0  3.946678  0
C  C28  1  0.87127367  0.64448219  0.90524955  1  0.509953  0  0.105449  0.186229  0  4.076312  0
C  C29  1  0.12872668  0.35551884  0.09475144  1  0.509421  0  0.105505  0.186275  0  4.076331  0
C  C30  1  0.37127085  0.85551781  0.59475004  1  0.509423  0  0.105465  0.186274  0  4.076282  0
C  C31  1  0.62872800  0.14448122  0.40524832  1  0.509445  0  0.105431  0.186162  0  4.076305  0
C  C32  1  0.87039299  0.60469702  0.94465071  1  0.594736  0  0.094174  0.121219  0  4.0579  0
C  C33  1  0.12960886  0.39530411  0.05535072  1  0.594763  0  0.094144  0.121177  0  4.057882  0
C  C34  1  0.37039243  0.89530298  0.55534888  1  0.594731  0  0.094178  0.121207  0  4.05799  0
C  C35  1  0.62960642  0.10469728  0.44465080  1  0.594736  0  0.09418  0.121187  0  4.057989  0
C  C36  1  0.01917680  0.55789720  0.94336047  1  0.228666  0  -0.00853  0.042109  0  4.139537  0
C  C37  1  0.98082205  0.44210409  0.05663965  1  0.228675  0  -0.008512  0.042134  0  4.139543  0
C  C38  1  0.51917930  0.94210220  0.55663786  1  0.228689  0  -0.008565  0.042038  0  4.139679  0
C  C39  1  0.48082255  0.05789832  0.44336095  1  0.22861  0  -0.008526  0.042182  0  4.139488  0
C  C40  1  0.00822780  0.51739824  0.98281585  1  -0.271596  0  -0.03684  -0.059004  0  4.104831  0
C  C41  1  0.99177105  0.48260156  0.01718383  1  -0.023047  0  -0.036789  -0.058898  0  4.104882  0
C  C42  1  0.50823105  0.98260127  0.51718290  1  -0.023037  0  -0.036803  -0.058933  0  4.104945  0
C  C43  1  0.49176930  0.01739936  0.48281634  1  -0.271595  0  -0.036824  -0.058962  0  4.104938  0
C  C44  1  0.02196760  0.61402117  0.61199893  1  0.225796  0  0.00228  -0.131658  0  3.822759  0
C  C45  1  0.97803125  0.38597519  0.38800202  1  0.225733  0  0.002254  -0.131733  0  3.82265  0
C  C46  1  0.52197201  0.88597840  0.88800418  1  0.226346  0  0.00218  -0.131799  0  3.822718  0
C  C47  1  0.47802984  0.11402156  0.11199418  1  0.226604  0  0.002207  -0.131639  0  3.822923  0
C  C48  1  0.01389233  0.57021954  0.56874062  1  -0.362723  0  -0.005376  0.029739  0  4.253697  0
C  C49  1  0.98611553  0.42977896  0.43125948  1  -0.362675  0  -0.005355  0.029781  0  4.253638  0
C  C50  1  0.51389263  0.92977850  0.93125987  1  -0.363486  0  -0.005432  0.029708  0  4.254063  0
C  C51  1  0.48611672  0.07022382  0.06874069  1  -0.363801  0  -0.005368  0.029689  0  4.254138  0
C  C52  1  0.00468383  0.52217608  0.52161100  1  0.118654  0  0.002358  -0.000488  0  4.189755  0
C  C53  1  0.99532553  0.47782268  0.47838823  1  -0.070631  0  0.00242  -0.000413  0  4.189837  0
C  C54  1  0.50468756  0.97781920  0.97838553  1  0.11876  0  0.002372  -0.000508  0  4.189283  0
C  C55  1  0.49532780  0.02218189  0.02161371  1  -0.070414  0  0.002493  -0.000323  0  4.18911  0
I  I56  1  0.40199516  0.48576343  0.89626731  1  0.215027  0  0.11022  0.043428  0  1.451716  0
I  I57  1  0.59800369  0.51423749  0.10373324  1  0.214999  0  0.110193  0.043411  0  1.451723  0
I  I58  1  0.90199289  0.01423562  0.60373265  1  0.215029  0  0.11022  0.043423  0  1.451691  0
I  I59  1  0.09800446  0.98576371  0.39626702  1  0.215025  0  0.110206  0.04343  0  1.451758  0
O  O60  1  0.64731333  0.19673972  0.30229463  1  -1.239325  0  -0.227326  -0.58333  0  2.33527  0
O  O61  1  0.35268552  0.80325827  0.69770329  1  -1.239365  0  -0.227291  -0.583309  0  2.335319  0
O  O62  1  0.14731220  0.30325806  0.19770340  1  -1.239248  0  -0.227327  -0.583381  0  2.335213  0
O  O63  1  0.85268815  0.69674173  0.80229628  1  -1.239304  0  -0.227303  -0.583311  0  2.335301  0
O  O64  1  0.30582999  0.18328667  0.18483673  1  -1.233257  0  -0.225929  -0.575903  0  2.282634  0
O  O65  1  0.69417186  0.81671379  0.81516382  1  -1.2333  0  -0.225857  -0.575872  0  2.282766  0
O  O66  1  0.80583072  0.31671262  0.31516409  1  -1.233251  0  -0.225909  -0.575887  0  2.282677  0
O  O67  1  0.19416663  0.68328598  0.68483644  1  -1.233206  0  -0.225894  -0.57592  0  2.282589  0
O  O68  1  0.30742780  0.19985323  0.30454325  1  -1.239226  0  -0.225983  -0.580083  0  2.343764  0
O  O69  1  0.69257105  0.80014657  0.69545642  1  -1.239184  0  -0.225968  -0.580005  0  2.34368  0
O  O70  1  0.80742542  0.30014866  0.19545672  1  -1.239293  0  -0.225922  -0.579926  0  2.343771  0
O  O71  1  0.19257493  0.69985320  0.80454384  1  -1.239245  0  -0.225984  -0.579987  0  2.343653  0
O  O72  1  0.14856478  0.31703168  0.31558367  1  -1.222746  0  -0.22495  -0.572615  0  2.286868  0
O  O73  1  0.85143257  0.68296838  0.68441513  1  -1.222751  0  -0.224923  -0.572591  0  2.286822  0
O  O74  1  0.64856432  0.18296926  0.18441394  1  -1.222766  0  -0.224909  -0.572577  0  2.286971  0
O  O75  1  0.35143753  0.81703209  0.81558444  1  -1.222683  0  -0.224958  -0.572635  0  2.286814  0
O  O76  1  0.47831108  0.28775632  0.25294365  1  -1.409314  0  -0.446002  -0.999468  0  2.199414  0
O  O77  1  0.52168777  0.71224337  0.74705558  1  -1.409315  0  -0.446017  -0.99949  0  2.199423  0
O  O78  1  0.97831286  0.21224346  0.24705562  1  -1.409315  0  -0.446008  -0.999499  0  2.199353  0
O  O79  1  0.02168599  0.78775680  0.75294406  1  -1.409302  0  -0.445982  -0.999441  0  2.199389  0
F  F80  1  0.31997386  0.58760808  0.82217530  1  -0.629549  0  -0.087966  -0.115804  0  1.399484  0
F  F81  1  0.68002499  0.41239294  0.17782569  1  -0.629575  0  -0.087989  -0.115833  0  1.399419  0
F  F82  1  0.81997220  0.91239259  0.67782511  1  -0.62954  0  -0.087953  -0.115799  0  1.39947  0
F  F83  1  0.18002515  0.08760690  0.32217326  1  -0.629611  0  -0.08797  -0.115831  0  1.399283  0
F  F84  1  0.72407012  0.68813812  0.90986123  1  -0.615947  0  -0.076838  -0.089792  0  1.374007  0
F  F85  1  0.27592723  0.31186224  0.09013888  1  -0.61592  0  -0.076825  -0.089758  0  1.374021  0
F  F86  1  0.22406744  0.81186228  0.59013776  1  -0.615977  0  -0.076832  -0.089797  0  1.37397  0
F  F87  1  0.77592991  0.18813691  0.40985929  1  -0.615935  0  -0.076791  -0.089726  0  1.373956  0
F  F88  1  0.72330234  0.61148346  0.98495582  1  -0.632027  0  -0.090016  -0.111743  0  1.415453  0
F  F89  1  0.27669801  0.38851804  0.01504517  1  -0.631996  0  -0.090007  -0.11174  0  1.415464  0
F  F90  1  0.22330575  0.88851600  0.51504316  1  -0.632033  0  -0.09001  -0.111736  0  1.415513  0
F  F91  1  0.77669460  0.11148492  0.48495739  1  -0.632029  0  -0.090031  -0.111749  0  1.415468  0
