# generated using pymatgen
data_TbH6C3(NO)6
_symmetry_space_group_name_H-M   'P 1'
_cell_length_a   8.95272246
_cell_length_b   9.21713645
_cell_length_c   12.99541735
_cell_angle_alpha   90.00135168
_cell_angle_beta   89.99820927
_cell_angle_gamma   104.97126087
_symmetry_Int_Tables_number   1
_chemical_formula_structural   TbH6C3(NO)6
_chemical_formula_sum   'Tb4 H24 C12 N24 O24'
_cell_volume   1035.96112480
_cell_formula_units_Z   4
loop_
 _symmetry_equiv_pos_site_id
 _symmetry_equiv_pos_as_xyz
  1  'x, y, z'
loop_
 _atom_site_type_symbol
 _atom_site_label
 _atom_site_symmetry_multiplicity
 _atom_site_fract_x
 _atom_site_fract_y
 _atom_site_fract_z
 _atom_site_occupancy
 _atom_site_hle17_bader_spin_density
 _atom_site_hle17_ddec_charge
 _atom_site_hle17_ddec_spin_density
 _atom_site_hle17_ddec_sum_bond_order
 _atom_site_hle17_magmom
 _atom_site_hse06_10hf_bader_spin_density
 _atom_site_hse06_10hf_ddec_charge
 _atom_site_hse06_10hf_ddec_spin_density
 _atom_site_hse06_10hf_ddec_sum_bond_order
 _atom_site_hse06_10hf_magmom
 _atom_site_hse06_bader_spin_density
 _atom_site_hse06_ddec_charge
 _atom_site_hse06_ddec_spin_density
 _atom_site_hse06_ddec_sum_bond_order
 _atom_site_hse06_magmom
 _atom_site_pbe_bader_spin_density
 _atom_site_pbe_cm5_charge
 _atom_site_pbe_ddec_charge
 _atom_site_pbe_ddec_spin_density
 _atom_site_pbe_ddec_sum_bond_order
 _atom_site_pbe_magmom
Tb  Tb0  1  0.22514372  0.62871431  0.31686408  1  0  2.12671  0  1.695738  0  0  1.930316  0  2.209417  0  0  1.98421  0  2.163865  0  0  1.531259  1.890373  0  2.24416  0
Tb  Tb1  1  0.72517222  0.62875624  0.68314758  1  0  2.126644  0  1.695792  0  0  1.930156  0  2.209592  0  0  1.984059  0  2.164037  0  0  1.531204  1.890194  0  2.24438  0
Tb  Tb2  1  0.85400098  0.09513053  0.20661557  1  0  2.263233  0  1.538252  0  0  2.107322  0  2.003768  0  0  2.226394  0  1.823066  0  0  1.495279  2.074659  0  2.033564  0
Tb  Tb3  1  0.35403264  0.09515686  0.79338110  1  0  2.263064  0  1.538428  0  0  2.107096  0  2.003996  0  0  2.226188  0  1.823262  0  0  1.495209  2.074424  0  2.033811  0
H  H4  1  0.88575328  0.06477639  0.44187456  1  0  0.425971  0  0.870266  0  0  0.386432  0  0.947204  0  0  0.39775  0  0.930832  0  0  0.307056  0.377283  0  0.960688  0
H  H5  1  0.38575985  0.06476476  0.55811885  1  0  0.426171  0  0.870073  0  0  0.386602  0  0.94705  0  0  0.397921  0  0.930678  0  0  0.307109  0.377453  0  0.960534  0
H  H6  1  0.89562405  0.23704357  0.41378760  1  0  0.455654  0  0.826859  0  0  0.427407  0  0.883199  0  0  0.439546  0  0.865483  0  0  0.308435  0.417777  0  0.897471  0
H  H7  1  0.39563798  0.23703951  0.58620092  1  0  0.455572  0  0.826978  0  0  0.427349  0  0.883283  0  0  0.439487  0  0.865572  0  0  0.308407  0.417717  0  0.897558  0
H  H8  1  0.68978454  0.33112288  0.25309485  1  0  0.460646  0  0.781406  0  0  0.437984  0  0.842844  0  0  0.447538  0  0.829621  0  0  0.338618  0.429274  0  0.854796  0
H  H9  1  0.18981398  0.33113072  0.74692301  1  0  0.46076  0  0.781173  0  0  0.438142  0  0.842538  0  0  0.447697  0  0.829392  0  0  0.338727  0.429431  0  0.854496  0
H  H10  1  0.85780550  0.38952605  0.29734553  1  0  0.441615  0  0.855343  0  0  0.409901  0  0.920898  0  0  0.419954  0  0.90642  0  0  0.313741  0.402671  0  0.931566  0
H  H11  1  0.35782017  0.38952854  0.70263556  1  0  0.441405  0  0.855608  0  0  0.409686  0  0.921207  0  0  0.41973  0  0.906731  0  0  0.313677  0.402457  0  0.931873  0
H  H12  1  0.92728235  0.86893222  0.01144078  1  0  0.409108  0  0.894505  0  0  0.366567  0  0.976255  0  0  0.378022  0  0.959777  0  0  0.293029  0.358365  0  0.988118  0
H  H13  1  0.42731131  0.86897114  0.98856161  1  0  0.409107  0  0.894459  0  0  0.366567  0  0.976213  0  0  0.378022  0  0.959734  0  0  0.293061  0.358367  0  0.988074  0
H  H14  1  0.04075084  0.03309212  0.01513214  1  0  0.442864  0  0.841532  0  0  0.415946  0  0.897895  0  0  0.426921  0  0.881713  0  0  0.304495  0.408359  0  0.909169  0
H  H15  1  0.54079773  0.03312284  0.98488222  1  0  0.443102  0  0.841167  0  0  0.416132  0  0.89765  0  0  0.427106  0  0.881465  0  0  0.304551  0.408544  0  0.908929  0
H  H16  1  0.09667141  0.00575145  0.32776404  1  0  0.410813  0  0.902297  0  0  0.369801  0  0.982618  0  0  0.381405  0  0.965989  0  0  0.305271  0.361662  0  0.994492  0
H  H17  1  0.59666610  0.00575460  0.67220831  1  0  0.410835  0  0.902268  0  0  0.369755  0  0.982689  0  0  0.38136  0  0.966058  0  0  0.3053  0.361615  0  0.994564  0
H  H18  1  0.14923637  0.98275666  0.21569619  1  0  0.465734  0  0.790681  0  0  0.442813  0  0.844609  0  0  0.453253  0  0.829351  0  0  0.327083  0.435496  0  0.855511  0
H  H19  1  0.64928566  0.98280925  0.78426946  1  0  0.465397  0  0.79084  0  0  0.44244  0  0.845067  0  0  0.452881  0  0.82981  0  0  0.326868  0.435121  0  0.855974  0
H  H20  1  0.81372224  0.10230093  0.00048565  1  0  0.432209  0  0.836768  0  0  0.409928  0  0.895556  0  0  0.420178  0  0.881896  0  0  0.314193  0.402252  0  0.904962  0
H  H21  1  0.31372710  0.10228822  0.99950805  1  0  0.432217  0  0.836805  0  0  0.409929  0  0.895598  0  0  0.420181  0  0.881898  0  0  0.314185  0.402251  0  0.905007  0
H  H22  1  0.76442261  0.25207413  0.03141498  1  0  0.414214  0  0.895667  0  0  0.370619  0  0.980618  0  0  0.382076  0  0.964559  0  0  0.29674  0.362137  0  0.992678  0
H  H23  1  0.26442476  0.25206513  0.96858711  1  0  0.41418  0  0.895693  0  0  0.370613  0  0.980599  0  0  0.38207  0  0.964542  0  0  0.296761  0.362132  0  0.992658  0
H  H24  1  0.99800712  0.62555313  0.14222227  1  0  0.402164  0  0.914401  0  0  0.357659  0  1.001313  0  0  0.369041  0  0.984936  0  0  0.291817  0.349746  0  1.012636  0
H  H25  1  0.49802223  0.62556970  0.85778937  1  0  0.40218  0  0.914362  0  0  0.357672  0  1.001297  0  0  0.369054  0  0.984921  0  0  0.291802  0.349759  0  1.01262  0
H  H26  1  0.92878289  0.67584708  0.24332411  1  0  0.387404  0  0.943374  0  0  0.34135  0  1.033527  0  0  0.352535  0  1.017522  0  0  0.29272  0.333523  0  1.044711  0
H  H27  1  0.42879975  0.67587459  0.75669377  1  0  0.387359  0  0.943406  0  0  0.341373  0  1.033474  0  0  0.352555  0  1.017475  0  0  0.292729  0.333542  0  1.044664  0
C  C28  1  0.44720437  0.67765907  0.52060244  1  0  0.148723  0  3.883055  0  0  0.125884  0  4.160976  0  0  0.12954  0  4.177616  0  0  0.211421  0.123207  0  4.149793  0
C  C29  1  0.94721676  0.67770006  0.47939999  1  0  0.1489  0  3.883049  0  0  0.125987  0  4.16108  0  0  0.129635  0  4.177718  0  0  0.211354  0.123311  0  4.149897  0
C  C30  1  0.39367331  0.51204855  0.51298578  1  0  0.641563  0  3.949894  0  0  0.58801  0  4.257628  0  0  0.622287  0  4.246029  0  0  0.22818  0.56483  0  4.264217  0
C  C31  1  0.89369013  0.51208898  0.48701871  1  0  0.641853  0  3.949759  0  0  0.588228  0  4.257594  0  0  0.62253  0  4.24595  0  0  0.228359  0.565047  0  4.264189  0
C  C32  1  0.24970221  0.46805491  0.09038460  1  0  0.138225  0  3.83741  0  0  0.120943  0  4.10602  0  0  0.123027  0  4.120984  0  0  0.211403  0.119869  0  4.094985  0
C  C33  1  0.74971595  0.46807344  0.90961546  1  0  0.138312  0  3.837352  0  0  0.12113  0  4.105802  0  0  0.123216  0  4.120762  0  0  0.211527  0.120074  0  4.094738  0
C  C34  1  0.13605719  0.36050808  0.15338748  1  0  0.662511  0  3.937055  0  0  0.61521  0  4.22601  0  0  0.650405  0  4.219011  0  0  0.232954  0.59086  0  4.23429  0
C  C35  1  0.63607981  0.36053330  0.84660700  1  0  0.662052  0  3.93775  0  0  0.614719  0  4.226742  0  0  0.649913  0  4.219752  0  0  0.232645  0.590365  0  4.23501  0
C  C36  1  0.57353746  0.80495121  0.26244638  1  0  0.148173  0  3.88912  0  0  0.128039  0  4.157878  0  0  0.131216  0  4.179664  0  0  0.209864  0.125502  0  4.146635  0
C  C37  1  0.07355304  0.80499327  0.73755486  1  0  0.148428  0  3.889188  0  0  0.128476  0  4.157614  0  0  0.131653  0  4.179403  0  0  0.210157  0.125936  0  4.146372  0
C  C38  1  0.48931007  0.92244307  0.24778193  1  0  0.654219  0  3.948621  0  0  0.602175  0  4.2589  0  0  0.637658  0  4.248143  0  0  0.225819  0.577963  0  4.26729  0
C  C39  1  0.98932924  0.92249064  0.75221952  1  0  0.653868  0  3.948755  0  0  0.60189  0  4.258873  0  0  0.637376  0  4.248106  0  0  0.225423  0.577682  0  4.267257  0
N  N40  1  0.37923687  0.76917728  0.46951788  1  0  -0.380982  0  3.206647  0  0  -0.348166  0  3.49903  0  0  -0.361939  0  3.518567  0  0  -0.280858  -0.338554  0  3.485545  0
N  N41  1  0.87925232  0.76922511  0.53048452  1  0  -0.380998  0  3.206785  0  0  -0.348135  0  3.49916  0  0  -0.361908  0  3.518698  0  0  -0.280818  -0.338521  0  3.485675  0
N  N42  1  0.45351203  0.90840539  0.49893636  1  0  -0.047234  0  2.960652  0  0  -0.032339  0  3.245211  0  0  -0.031908  0  3.254422  0  0  -0.068823  -0.031327  0  3.238484  0
N  N43  1  0.95352742  0.90844760  0.50105765  1  0  -0.047376  0  2.960199  0  0  -0.03249  0  3.244791  0  0  -0.032062  0  3.254  0  0  -0.068855  -0.031476  0  3.238064  0
N  N44  1  0.56453154  0.90010873  0.56412248  1  0  -0.053004  0  3.01021  0  0  -0.026451  0  3.286028  0  0  -0.027384  0  3.29491  0  0  -0.070461  -0.025302  0  3.279303  0
N  N45  1  0.06454610  0.90014281  0.43586596  1  0  -0.052719  0  3.00957  0  0  -0.026291  0  3.285511  0  0  -0.027223  0  3.29439  0  0  -0.070451  -0.025144  0  3.278793  0
N  N46  1  0.56231171  0.75589492  0.57943859  1  0  -0.368982  0  3.200974  0  0  -0.32952  0  3.487878  0  0  -0.342089  0  3.504287  0  0  -0.298794  -0.320638  0  3.476564  0
N  N47  1  0.06232330  0.75592751  0.42055590  1  0  -0.369213  0  3.201158  0  0  -0.329692  0  3.488105  0  0  -0.342261  0  3.504511  0  0  -0.298798  -0.320814  0  3.476792  0
N  N48  1  0.30243127  0.61149117  0.11969293  1  0  -0.346455  0  3.155536  0  0  -0.310341  0  3.434571  0  0  -0.322517  0  3.453241  0  0  -0.254962  -0.301683  0  3.421248  0
N  N49  1  0.80244673  0.61150967  0.88031313  1  0  -0.346555  0  3.155369  0  0  -0.310482  0  3.434367  0  0  -0.322656  0  3.453032  0  0  -0.255144  -0.301823  0  3.421038  0
N  N50  1  0.39665515  0.67754761  0.04359171  1  0  -0.0802  0  2.983845  0  0  -0.059134  0  3.263603  0  0  -0.061101  0  3.275103  0  0  -0.080634  -0.057024  0  3.255296  0
N  N51  1  0.89666068  0.67755894  0.95641787  1  0  -0.080172  0  2.983476  0  0  -0.059088  0  3.263245  0  0  -0.061058  0  3.274748  0  0  -0.080592  -0.056976  0  3.25494  0
N  N52  1  0.40178113  0.57491412  0.97262626  1  0  -0.069685  0  3.012981  0  0  -0.043744  0  3.295856  0  0  -0.046189  0  3.306764  0  0  -0.072365  -0.041882  0  3.288067  0
N  N53  1  0.90177788  0.57491992  0.02737897  1  0  -0.069742  0  3.012769  0  0  -0.043829  0  3.295657  0  0  -0.046275  0  3.306563  0  0  -0.072358  -0.041974  0  3.287875  0
N  N54  1  0.30885909  0.44222165  0.99968756  1  0  -0.239904  0  3.012919  0  0  -0.209011  0  3.278838  0  0  -0.217031  0  3.29019  0  0  -0.189711  -0.202742  0  3.270407  0
N  N55  1  0.80886196  0.44223052  0.00031042  1  0  -0.239756  0  3.012692  0  0  -0.208857  0  3.278567  0  0  -0.216875  0  3.289917  0  0  -0.189667  -0.202593  0  3.270135  0
N  N56  1  0.72644119  0.82941329  0.25052440  1  0  -0.414081  0  3.139947  0  0  -0.378294  0  3.423235  0  0  -0.402009  0  3.44045  0  0  -0.306721  -0.369119  0  3.41254  0
N  N57  1  0.22645280  0.82945279  0.74948898  1  0  -0.414138  0  3.139819  0  0  -0.378376  0  3.423095  0  0  -0.402089  0  3.440295  0  0  -0.306879  -0.369202  0  3.41239  0
N  N58  1  0.75553953  0.69653599  0.27071252  1  0  -0.034915  0  3.051965  0  0  0.000476  0  3.333675  0  0  -0.001451  0  3.347833  0  0  -0.067863  0.002066  0  3.32625  0
N  N59  1  0.25555365  0.69657391  0.72930826  1  0  -0.034843  0  3.051938  0  0  0.000391  0  3.333797  0  0  -0.001536  0  3.347961  0  0  -0.067877  0.002007  0  3.326343  0
N  N60  1  0.62608136  0.59555676  0.29354181  1  0  -0.034846  0  2.867127  0  0  -0.038492  0  3.150987  0  0  -0.034562  0  3.158802  0  0  -0.075633  -0.040138  0  3.146041  0
N  N61  1  0.12609868  0.59559545  0.70647145  1  0  -0.034654  0  2.86709  0  0  -0.038268  0  3.151005  0  0  -0.034336  0  3.158824  0  0  -0.075532  -0.039923  0  3.146054  0
N  N62  1  0.50951120  0.66225787  0.28881182  1  0  -0.389433  0  3.229899  0  0  -0.345726  0  3.517461  0  0  -0.359318  0  3.534151  0  0  -0.292202  -0.335794  0  3.505092  0
N  N63  1  0.00953033  0.66230197  0.71119018  1  0  -0.389806  0  3.230225  0  0  -0.346165  0  3.517765  0  0  -0.359759  0  3.534456  0  0  -0.292401  -0.336231  0  3.505398  0
O  O64  1  0.86565926  0.13207693  0.38700142  1  0  -0.929903  0  1.856688  0  0  -0.874867  0  2.050022  0  0  -0.905339  0  2.00887  0  0  -0.649155  -0.860768  0  2.077086  0
O  O65  1  0.36568391  0.13207346  0.61299285  1  0  -0.930038  0  1.856667  0  0  -0.874964  0  2.049963  0  0  -0.905441  0  2.008812  0  0  -0.649154  -0.860862  0  2.07703  0
O  O66  1  0.79698087  0.32978120  0.24099402  1  0  -0.884282  0  1.868856  0  0  -0.838871  0  2.070187  0  0  -0.866926  0  2.035325  0  0  -0.628124  -0.825588  0  2.092444  0
O  O67  1  0.29701613  0.32979963  0.75900455  1  0  -0.884258  0  1.868822  0  0  -0.838906  0  2.07003  0  0  -0.866946  0  2.035301  0  0  -0.628184  -0.825613  0  2.09228  0
O  O68  1  0.94212070  0.97041827  0.04277193  1  0  -0.894027  0  1.853067  0  0  -0.836202  0  2.033558  0  0  -0.863676  0  1.995902  0  0  -0.599447  -0.822502  0  2.057603  0
O  O69  1  0.44217450  0.97045258  0.95722913  1  0  -0.894242  0  1.852741  0  0  -0.836338  0  2.033195  0  0  -0.863805  0  1.995542  0  0  -0.599516  -0.822637  0  2.057238  0
O  O70  1  0.08231546  0.03212494  0.25398758  1  0  -0.924919  0  1.903216  0  0  -0.876162  0  2.110793  0  0  -0.905399  0  2.070164  0  0  -0.651618  -0.863148  0  2.134939  0
O  O71  1  0.58233334  0.03214774  0.74598617  1  0  -0.924516  0  1.903165  0  0  -0.875713  0  2.110984  0  0  -0.904955  0  2.070366  0  0  -0.651438  -0.862691  0  2.13512  0
O  O72  1  0.74023610  0.13955327  0.04268493  1  0  -0.880129  0  1.921091  0  0  -0.821971  0  2.114969  0  0  -0.851298  0  2.079709  0  0  -0.616638  -0.806991  0  2.135959  0
O  O73  1  0.24024151  0.13954456  0.95731373  1  0  -0.880141  0  1.921155  0  0  -0.821971  0  2.114948  0  0  -0.851299  0  2.079653  0  0  -0.616696  -0.806999  0  2.135943  0
O  O74  1  0.02886800  0.66365906  0.21360356  1  0  -0.956422  0  2.05329  0  0  -0.900659  0  2.291577  0  0  -0.921592  0  2.259397  0  0  -0.685311  -0.885269  0  2.313858  0
O  O75  1  0.52888348  0.66367917  0.78640832  1  0  -0.956375  0  2.053393  0  0  -0.900625  0  2.291506  0  0  -0.921578  0  2.259366  0  0  -0.685278  -0.885265  0  2.313868  0
O  O76  1  0.29558122  0.46155654  0.44330383  1  0  -0.637046  0  1.959947  0  0  -0.591393  0  2.196798  0  0  -0.614532  0  2.185423  0  0  -0.354417  -0.574605  0  2.203874  0
O  O77  1  0.79559941  0.46159400  0.55670358  1  0  -0.637029  0  1.959792  0  0  -0.591348  0  2.19666  0  0  -0.614495  0  2.185275  0  0  -0.354386  -0.574558  0  2.203736  0
O  O78  1  0.45064421  0.43840623  0.57884786  1  0  -0.653852  0  1.993837  0  0  -0.588357  0  2.211175  0  0  -0.612969  0  2.198709  0  0  -0.293323  -0.569513  0  2.219121  0
O  O79  1  0.95066261  0.43844816  0.42115281  1  0  -0.654315  0  1.99424  0  0  -0.588686  0  2.211531  0  0  -0.613313  0  2.19905  0  0  -0.293491  -0.569848  0  2.21949  0
O  O80  1  0.13208267  0.38861374  0.24895588  1  0  -0.689991  0  2.060172  0  0  -0.63437  0  2.306463  0  0  -0.662477  0  2.29804  0  0  -0.380134  -0.616706  0  2.314898  0
O  O81  1  0.63211000  0.38864837  0.75104110  1  0  -0.689907  0  2.060327  0  0  -0.634209  0  2.306512  0  0  -0.662335  0  2.298126  0  0  -0.380031  -0.616542  0  2.314949  0
O  O82  1  0.04597858  0.25053162  0.10841163  1  0  -0.684373  0  2.082993  0  0  -0.630494  0  2.330543  0  0  -0.664939  0  2.318251  0  0  -0.395236  -0.612546  0  2.337411  0
O  O83  1  0.54600728  0.25054894  0.89157901  1  0  -0.683953  0  2.083432  0  0  -0.630066  0  2.330958  0  0  -0.664511  0  2.318669  0  0  -0.394928  -0.612134  0  2.337855  0
O  O84  1  0.57288321  0.05157999  0.22494096  1  0  -0.671386  0  1.954969  0  0  -0.624087  0  2.191238  0  0  -0.656046  0  2.17574  0  0  -0.364686  -0.607628  0  2.20063  0
O  O85  1  0.07289850  0.05162964  0.77505203  1  0  -0.670991  0  1.955011  0  0  -0.623744  0  2.19126  0  0  -0.655697  0  2.175756  0  0  -0.364483  -0.607287  0  2.20065  0
O  O86  1  0.34323321  0.88121406  0.25854980  1  0  -0.665682  0  1.994079  0  0  -0.616111  0  2.240673  0  0  -0.640239  0  2.226717  0  0  -0.362257  -0.598362  0  2.249001  0
O  O87  1  0.84324803  0.88125205  0.74146210  1  0  -0.665689  0  1.993937  0  0  -0.616112  0  2.24046  0  0  -0.640245  0  2.226499  0  0  -0.3621  -0.598357  0  2.24879  0
