# generated using pymatgen
data_CuH12C16NO4
_symmetry_space_group_name_H-M   'P 1'
_cell_length_a   9.64971002
_cell_length_b   9.84412767
_cell_length_c   10.78314848
_cell_angle_alpha   89.81805164
_cell_angle_beta   82.44860407
_cell_angle_gamma   61.21268449
_symmetry_Int_Tables_number   1
_chemical_formula_structural   CuH12C16NO4
_chemical_formula_sum   'Cu2 H24 C32 N2 O8'
_cell_volume   887.81252209
_cell_formula_units_Z   2
loop_
 _symmetry_equiv_pos_site_id
 _symmetry_equiv_pos_as_xyz
  1  'x, y, z'
loop_
 _atom_site_type_symbol
 _atom_site_label
 _atom_site_symmetry_multiplicity
 _atom_site_fract_x
 _atom_site_fract_y
 _atom_site_fract_z
 _atom_site_occupancy
 _atom_site_hle17_ddec_charge
 _atom_site_hle17_ddec_spin_density
 _atom_site_hle17_ddec_sum_bond_order
 _atom_site_hle17_magmom
 _atom_site_hse06_10hf_ddec_charge
 _atom_site_hse06_10hf_ddec_spin_density
 _atom_site_hse06_10hf_ddec_sum_bond_order
 _atom_site_hse06_10hf_magmom
 _atom_site_hse06_ddec_charge
 _atom_site_hse06_ddec_spin_density
 _atom_site_hse06_ddec_sum_bond_order
 _atom_site_hse06_magmom
 _atom_site_pbe_cm5_charge
 _atom_site_pbe_ddec_charge
 _atom_site_pbe_ddec_spin_density
 _atom_site_pbe_ddec_sum_bond_order
 _atom_site_pbe_magmom
Cu  Cu0  1  0.62669268  0.50753151  0.50860083  1  0.827707  -0.681646  1.949036  -0.489  0.81725  -0.801912  2.362224  -0.633  0.918264  -0.889716  2.279066  -0.732  0.687284  0.753666  -0.706248  2.420776  -0.546
Cu  Cu1  1  0.37331402  0.49247352  0.49140249  1  0.827909  0.681651  1.948998  0.489  0.817411  0.801908  2.362252  0.633  0.918508  0.889718  2.278996  0.732  0.6873  0.753744  0.70625  2.420964  0.546
H  H2  1  0.93504322  0.04482394  0.61038807  1  0.093762  -0.000264  0.956101  0.0  0.103977  -0.000209  1.017647  0.0  0.107036  -0.000135  1.015614  0.0  0.102123  0.101802  -0.000251  1.019197  0.0
H  H3  1  0.06495117  0.95517880  0.38959991  1  0.09374  0.000264  0.956223  0.0  0.104024  0.000209  1.017687  0.0  0.107065  0.000135  1.015671  0.0  0.102158  0.101839  0.000251  1.01925  0.0
H  H4  1  0.05177672  0.78993905  0.70748878  1  0.102936  0.000138  0.961463  0.0  0.112342  9.8e-05  1.021955  0.0  0.115582  4.1e-05  1.021031  0.0  0.100219  0.110031  0.000141  1.022748  0.0
H  H5  1  0.94822520  0.21005901  0.29249838  1  0.102865  -0.000133  0.961453  0.0  0.112227  -9.8e-05  1.022  0.0  0.115461  -4.1e-05  1.021086  0.0  0.100227  0.109919  -0.000141  1.022792  0.0
H  H6  1  0.88329944  0.66580944  0.76724361  1  0.076571  -8e-06  0.953056  0.0  0.088987  4e-06  1.011815  0.0  0.091317  2e-06  1.011202  0.0  0.096308  0.087228  1e-06  1.012383  0.0
H  H7  1  0.11670050  0.33418631  0.23274191  1  0.076572  1e-06  0.953015  0.0  0.088943  -4e-06  1.011829  0.0  0.091272  -3e-06  1.011215  0.0  0.096256  0.087182  -1e-06  1.0124  0.0
H  H8  1  0.60568124  0.78577542  0.71686466  1  0.103583  -3e-05  0.96464  0.0  0.112412  -3e-05  1.026629  0.0  0.11604  4e-06  1.024738  0.0  0.100247  0.109642  -0.000142  1.028306  0.0
H  H9  1  0.39430991  0.21423784  0.28314035  1  0.103594  3.5e-05  0.964583  0.0  0.112506  3.1e-05  1.026492  0.0  0.116134  -4e-06  1.024601  0.0  0.100228  0.109736  0.000142  1.028165  0.0
H  H10  1  0.48981754  0.04164528  0.62148714  1  0.09848  0.000306  0.949712  0.0  0.108693  0.000246  1.009838  0.0  0.112128  0.000158  1.007391  0.0  0.102502  0.106327  0.000273  1.011552  0.0
H  H11  1  0.51017657  0.95836213  0.37850921  1  0.098466  -0.00031  0.949675  0.0  0.108661  -0.000245  1.009833  0.0  0.112089  -0.000158  1.007384  0.0  0.102485  0.106296  -0.000273  1.011547  0.0
H  H12  1  0.53111822  0.69566174  0.89629842  1  0.094646  -0.000251  0.954595  0.0  0.105149  -0.000197  1.015221  0.0  0.108082  -0.00013  1.013381  0.0  0.103048  0.103136  -0.000268  1.016523  0.0
H  H13  1  0.46885463  0.30436324  0.10370672  1  0.09469  0.00025  0.954693  0.0  0.10519  0.000197  1.015308  0.0  0.108129  0.00013  1.013468  0.0  0.103053  0.103175  0.000268  1.016612  0.0
H  H14  1  0.43579808  0.77049338  0.12487434  1  0.09065  0.000117  0.942189  0.0  0.102385  8.8e-05  0.996817  0.0  0.104618  6e-05  0.997256  0.0  0.100844  0.100807  0.000122  0.99663  0.0
H  H15  1  0.56418063  0.22953038  0.87512645  1  0.090597  -0.000115  0.942074  0.0  0.102306  -8.8e-05  0.996758  0.0  0.104513  -6e-05  0.997225  0.0  0.100793  0.100735  -0.000122  0.996561  0.0
H  H16  1  0.20684964  0.74381679  0.22873495  1  0.08375  9e-06  0.983167  0.0  0.09047  1.6e-05  1.053842  0.0  0.092905  -6e-06  1.052323  0.0  0.09497  0.088594  4.1e-05  1.055211  0.0
H  H17  1  0.79316214  0.25616280  0.77127991  1  0.08379  -1.2e-05  0.9831  0.0  0.090486  -1.6e-05  1.053778  0.0  0.092916  6e-06  1.052275  0.0  0.094953  0.088609  -4.1e-05  1.055145  0.0
H  H18  1  0.06265323  0.65318248  0.10324483  1  0.07955  -0.000132  0.948911  0.0  0.091159  -0.000103  1.004209  0.0  0.093488  -6.3e-05  1.004186  0.0  0.095881  0.089592  -0.000117  1.004236  0.0
H  H19  1  0.93736883  0.34677391  0.89677729  1  0.079618  0.000133  0.948975  0.0  0.091183  0.000103  1.004325  0.0  0.093511  6.3e-05  1.004303  0.0  0.095878  0.089613  0.000117  1.004352  0.0
H  H20  1  0.15565575  0.58418473  0.87373754  1  0.094743  0.000251  0.951022  0.0  0.104849  0.0002  1.011084  0.0  0.108076  0.000127  1.008681  0.0  0.101183  0.102589  0.000264  1.012799  0.0
H  H21  1  0.84433372  0.41581471  0.12627881  1  0.094785  -0.000252  0.95095  0.0  0.104895  -0.0002  1.011002  0.0  0.108121  -0.000127  1.008599  0.0  0.101196  0.102635  -0.000264  1.012719  0.0
H  H22  1  0.93580221  0.33064197  0.63104818  1  0.094347  1.9e-05  0.935819  0.0  0.105329  3.8e-05  0.993632  0.0  0.109179  4e-05  0.990657  0.0  0.125748  0.102267  3.3e-05  0.996232  0.0
H  H23  1  0.06422059  0.66934094  0.36895434  1  0.094311  -1.5e-05  0.935834  0.0  0.105248  -3.8e-05  0.993706  0.0  0.109114  -4e-05  0.99071  0.0  0.125753  0.10219  -3.3e-05  0.996297  0.0
H  H24  1  0.79282546  0.67972639  0.38418258  1  0.099657  3.4e-05  0.92152  0.0  0.110002  5e-05  0.977249  0.0  0.114492  5.2e-05  0.973708  0.0  0.127855  0.106505  3.7e-05  0.980247  0.0
H  H25  1  0.20719679  0.32025766  0.61581814  1  0.099661  -3.5e-05  0.92157  0.0  0.109999  -4.9e-05  0.977301  0.0  0.114496  -5.2e-05  0.973764  0.0  0.127839  0.1065  -3.7e-05  0.980297  0.0
C  C26  1  0.63131688  0.21781308  0.56328967  1  0.637261  -0.0007  3.865052  -0.001  0.603027  -0.000261  4.15375  -0.001  0.645213  -0.000289  4.146482  -0.001  0.213865  0.5742  -0.000215  4.15845  -0.001
C  C27  1  0.36868397  0.78218499  0.43669946  1  0.637279  0.000694  3.864858  0.001  0.603024  0.000263  4.153612  0.001  0.645207  0.000288  4.146344  0.001  0.21381  0.574193  0.000216  4.158315  0.001
C  C28  1  0.70431850  0.06019191  0.61301725  1  -0.077245  0.000615  3.778027  0.001  -0.053247  0.000223  4.004198  0.0  -0.064206  0.000135  4.028138  0.0  -0.022638  -0.045295  0.000376  3.987824  0.0
C  C29  1  0.29568446  0.93980614  0.38697073  1  -0.077143  -0.000683  3.77803  -0.001  -0.053183  -0.000219  4.004279  0.0  -0.06414  -0.000135  4.028214  0.0  -0.022603  -0.045224  -0.000377  3.9879  0.0
C  C30  1  0.86328144  0.98827322  0.63595147  1  -0.070913  0.001119  3.742155  0.002  -0.09379  0.000672  3.988885  0.001  -0.092913  0.000472  4.009512  0.001  -0.085046  -0.094435  0.000744  3.975109  0.001
C  C31  1  0.13671741  0.01172256  0.36403789  1  -0.071047  -0.001038  3.742189  -0.001  -0.093963  -0.000674  3.988905  -0.001  -0.093073  -0.000473  4.009539  -0.001  -0.085078  -0.094603  -0.000744  3.975136  -0.001
C  C32  1  0.92773158  0.84663555  0.69111796  1  -0.07395  0.0004  3.755915  0.0  -0.087325  0.000347  4.008558  0.0  -0.09165  0.000195  4.031652  0.0  -0.09334  -0.084531  0.0005  3.992989  0.001
C  C33  1  0.07226663  0.15336368  0.30886868  1  -0.073831  -0.000509  3.755656  -0.001  -0.087162  -0.000348  4.008315  0.0  -0.091483  -0.000193  4.031406  0.0  -0.093387  -0.08437  -0.0005  3.992743  -0.001
C  C34  1  0.83332605  0.77626128  0.72331022  1  -0.05931  0.00022  3.771996  0.0  -0.078632  5.3e-05  4.025656  0.0  -0.079786  3.3e-05  4.049466  0.0  -0.090732  -0.077497  5e-05  4.009158  0.0
C  C35  1  0.16667354  0.22374144  0.27668183  1  -0.059223  -0.000101  3.771898  0.0  -0.078502  -5.3e-05  4.02552  0.0  -0.079654  -3.7e-05  4.049329  0.0  -0.090621  -0.077368  -5.1e-05  4.009026  0.0
C  C36  1  0.67641755  0.84460008  0.69711255  1  -0.07947  -0.000992  3.765073  -0.001  -0.092446  -0.000561  4.018087  -0.001  -0.097017  -0.000325  4.041008  0.0  -0.093796  -0.089371  -0.000537  4.002524  -0.001
C  C37  1  0.32357947  0.15540150  0.30287886  1  -0.079597  0.000887  3.765211  0.001  -0.092641  0.000561  4.018215  0.001  -0.097214  0.000328  4.041132  0.0  -0.09387  -0.089565  0.000537  4.002657  0.001
C  C38  1  0.61194317  0.98646005  0.64221261  1  -0.071594  -0.001062  3.740531  -0.002  -0.094834  -0.000627  3.985909  -0.001  -0.093687  -0.000426  4.005984  -0.001  -0.086444  -0.095649  -0.00063  3.9723  -0.001
C  C39  1  0.38805262  0.01354617  0.35777799  1  -0.071573  0.00115  3.740629  0.002  -0.094788  0.000625  3.986048  0.001  -0.093631  0.000424  4.006116  0.001  -0.086396  -0.095609  0.00063  3.972439  0.001
C  C40  1  0.40624376  0.58830678  0.73500101  1  0.637548  0.000608  3.862857  0.001  0.602231  0.000373  4.155727  0.001  0.644449  0.000369  4.148761  0.001  0.21428  0.573579  0.000323  4.160066  0.001
C  C41  1  0.59374888  0.41170762  0.26500568  1  0.637766  -0.000607  3.862561  -0.001  0.602307  -0.00037  4.155629  -0.001  0.644528  -0.000369  4.148651  -0.001  0.214345  0.573654  -0.000322  4.159977  -0.001
C  C42  1  0.34814257  0.63667322  0.87130318  1  -0.070897  2.1e-05  3.767632  0.0  -0.046153  -2.8e-05  3.99296  0.0  -0.057479  -1.7e-05  4.017026  0.0  -0.020324  -0.037758  2.9e-05  3.976057  0.0
C  C43  1  0.65183379  0.36334248  0.12870252  1  -0.07108  -5.3e-05  3.767822  0.0  -0.046308  2.4e-05  3.993213  0.0  -0.057636  1.3e-05  4.017283  0.0  -0.020397  -0.037909  -3.3e-05  3.97631  0.0
C  C44  1  0.42709265  0.68931573  0.94200142  1  -0.060898  0.001107  3.731312  0.001  -0.085095  0.000668  3.975119  0.001  -0.083472  0.000478  3.995671  0.001  -0.080324  -0.086041  0.000678  3.960923  0.001
C  C45  1  0.57288557  0.31070687  0.05800036  1  -0.060991  -0.001074  3.731552  -0.001  -0.085191  -0.000667  3.975346  -0.001  -0.083571  -0.000475  3.995893  -0.001  -0.080345  -0.086136  -0.000678  3.961152  -0.001
C  C46  1  0.37422763  0.72981245  0.06978110  1  -0.070901  0.000509  3.760088  0.001  -0.081729  0.00037  4.011099  0.0  -0.086276  0.000223  4.034331  0.0  -0.089787  -0.078763  0.000467  3.995237  0.001
C  C47  1  0.62575765  0.27020203  0.93022734  1  -0.070757  -0.000557  3.760137  -0.001  -0.08156  -0.000368  4.01116  0.0  -0.086085  -0.000226  4.034397  0.0  -0.089724  -0.078602  -0.000468  3.995296  -0.001
C  C48  1  0.24387444  0.71603021  0.12811025  1  -0.043697  0.000145  3.746127  0.0  -0.064618  2.9e-05  4.001973  0.0  -0.064068  3e-06  4.023644  0.0  -0.086512  -0.06455  2.7e-05  3.98711  0.0
C  C49  1  0.75612588  0.28396217  0.87189936  1  -0.043685  -8.8e-05  3.746034  0.0  -0.064562  -3.1e-05  4.001858  0.0  -0.064011  1e-06  4.023513  0.0  -0.086448  -0.064492  -2.7e-05  3.986994  0.0
C  C50  1  0.16447710  0.66417448  0.05792059  1  -0.087786  -0.000702  3.800024  -0.001  -0.097183  -0.000393  4.049118  0.0  -0.102395  -0.000243  4.073293  0.0  -0.096021  -0.093666  -0.000455  4.032382  -0.001
C  C51  1  0.83553129  0.33581206  0.94209092  1  -0.087927  0.000659  3.800008  0.001  -0.097317  0.000394  4.049114  0.0  -0.102527  0.000239  4.073289  0.0  -0.096089  -0.093795  0.000454  4.032372  0.001
C  C52  1  0.21565719  0.62546722  0.92981257  1  -0.07068  -0.000938  3.749964  -0.001  -0.094038  -0.000617  3.9933  -0.001  -0.092771  -0.000438  4.01428  -0.001  -0.086223  -0.094757  -0.000636  3.978864  -0.001
C  C53  1  0.78433490  0.37453334  0.07020071  1  -0.070593  0.000974  3.749999  0.001  -0.093926  0.000616  3.993285  0.001  -0.092654  0.000441  4.014271  0.001  -0.086111  -0.094646  0.000637  3.978853  0.001
C  C54  1  0.96533584  0.40664494  0.57302866  1  0.076904  0.00101  3.67718  0.001  0.054576  0.000648  3.927386  0.001  0.058174  0.000608  3.942783  0.001  0.063207  0.052056  0.000677  3.917658  0.001
C  C55  1  0.03468307  0.59334378  0.42697242  1  0.077067  -0.001027  3.677429  -0.001  0.054753  -0.000648  3.927617  -0.001  0.058339  -0.000608  3.943014  -0.001  0.063267  0.05223  -0.000678  3.917887  -0.001
C  C56  1  0.88666640  0.59920451  0.43529855  1  0.080703  0.000995  3.674648  0.001  0.057204  0.000627  3.926363  0.001  0.060866  0.000597  3.941114  0.001  0.063488  0.054567  0.000677  3.917172  0.001
C  C57  1  0.11335526  0.40078071  0.56470316  1  0.080748  -0.000986  3.674525  -0.001  0.057234  -0.000627  3.92624  -0.001  0.060889  -0.000597  3.941002  -0.001  0.063533  0.0546  -0.000677  3.917036  -0.001
N  N58  1  0.85253897  0.50583285  0.50848238  1  -0.239431  0.000742  3.231475  0.0  -0.196117  0.000373  3.514207  -0.001  -0.210947  0.000395  3.528266  0.0  -0.313343  -0.18723  0.000278  3.506363  -0.001
N  N59  1  0.14748215  0.49415353  0.49151754  1  -0.239694  -0.000739  3.23177  0.0  -0.196331  -0.000374  3.514469  0.001  -0.211179  -0.000394  3.528547  0.0  -0.31346  -0.187432  -0.000279  3.506631  0.001
O  O60  1  0.71498362  0.28702802  0.55371824  1  -0.579067  -0.073417  2.104274  -0.096  -0.554816  -0.050431  2.383452  -0.073  -0.598899  -0.039955  2.376617  -0.061  -0.312061  -0.525513  -0.053675  2.38882  -0.074
O  O61  1  0.28503881  0.71296054  0.44625185  1  -0.579011  0.073379  2.104485  0.096  -0.55474  0.050414  2.383706  0.073  -0.598826  0.039944  2.376861  0.061  -0.311944  -0.525426  0.053658  2.389094  0.074
O  O62  1  0.48954893  0.27320130  0.53733576  1  -0.568331  0.082047  2.096066  0.108  -0.545176  0.055085  2.370022  0.08  -0.589925  0.043257  2.363562  0.066  -0.311594  -0.515444  0.05888  2.374659  0.082
O  O63  1  0.51045094  0.72681309  0.46268035  1  -0.568325  -0.082082  2.095606  -0.108  -0.545175  -0.055098  2.369571  -0.08  -0.58992  -0.043265  2.363122  -0.066  -0.311614  -0.515456  -0.058896  2.3742  -0.082
O  O64  1  0.53956552  0.57921216  0.68917116  1  -0.566291  -0.081541  2.089218  -0.107  -0.544775  -0.054611  2.365532  -0.079  -0.589655  -0.04286  2.359759  -0.066  -0.309834  -0.515666  -0.057042  2.370204  -0.079
O  O65  1  0.46042835  0.42076988  0.31084288  1  -0.566535  0.081581  2.088998  0.107  -0.544965  0.054633  2.365361  0.079  -0.589879  0.042876  2.359594  0.066  -0.309994  -0.51583  0.057065  2.370049  0.079
O  O66  1  0.31755867  0.55853572  0.67447733  1  -0.582415  0.076794  2.109396  0.101  -0.560134  0.051883  2.38566  0.075  -0.604854  0.04097  2.379136  0.063  -0.315051  -0.53045  0.055159  2.390536  0.077
O  O67  1  0.68242204  0.44149262  0.32551581  1  -0.582369  -0.076771  2.10962  -0.101  -0.560016  -0.051874  2.385931  -0.075  -0.604717  -0.040965  2.379411  -0.063  -0.314972  -0.530356  -0.055146  2.390798  -0.077
