# generated using pymatgen
data_CdH11C12N5ClO2
_symmetry_space_group_name_H-M   'P 1'
_cell_length_a   8.26569874
_cell_length_b   9.22027546
_cell_length_c   11.61605286
_cell_angle_alpha   115.57871528
_cell_angle_beta   98.15861058
_cell_angle_gamma   103.98545156
_symmetry_Int_Tables_number   1
_chemical_formula_structural   CdH11C12N5ClO2
_chemical_formula_sum   'Cd2 H22 C24 N10 Cl2 O4'
_cell_volume   743.54753841
_cell_formula_units_Z   2
loop_
 _symmetry_equiv_pos_site_id
 _symmetry_equiv_pos_as_xyz
  1  'x, y, z'
loop_
 _atom_site_type_symbol
 _atom_site_label
 _atom_site_symmetry_multiplicity
 _atom_site_fract_x
 _atom_site_fract_y
 _atom_site_fract_z
 _atom_site_occupancy
 _atom_site_hle17_bader_spin_density
 _atom_site_hle17_ddec_charge
 _atom_site_hle17_ddec_spin_density
 _atom_site_hle17_ddec_sum_bond_order
 _atom_site_hle17_magmom
 _atom_site_hse06_10hf_bader_spin_density
 _atom_site_hse06_10hf_ddec_charge
 _atom_site_hse06_10hf_ddec_spin_density
 _atom_site_hse06_10hf_ddec_sum_bond_order
 _atom_site_hse06_10hf_magmom
 _atom_site_hse06_bader_spin_density
 _atom_site_hse06_ddec_charge
 _atom_site_hse06_ddec_spin_density
 _atom_site_hse06_ddec_sum_bond_order
 _atom_site_hse06_magmom
 _atom_site_pbe_bader_spin_density
 _atom_site_pbe_cm5_charge
 _atom_site_pbe_ddec_charge
 _atom_site_pbe_ddec_spin_density
 _atom_site_pbe_ddec_sum_bond_order
 _atom_site_pbe_magmom
Cd  Cd0  1  0.66188177  0.50200362  0.63531012  1  0  1.005295  0  1.892208  0  0  0.826932  0  2.361147  0  0  0.879108  0  2.314649  0  0  0.665356  0.790674  0  2.391788  0
Cd  Cd1  1  0.33812391  0.49799842  0.36469078  1  0  1.005309  0  1.89214  0  0  0.826879  0  2.361159  0  0  0.879085  0  2.314667  0  0  0.665385  0.790623  0  2.391804  0
H  H2  1  0.83084615  0.46196570  0.88753816  1  0  0.128892  0  0.969436  0  0  0.134681  0  1.034054  0  0  0.139507  0  1.031163  0  0  0.109664  0.130722  0  1.036744  0
H  H3  1  0.16913996  0.53802230  0.11245567  1  0  0.128874  0  0.969468  0  0  0.134727  0  1.034011  0  0  0.139554  0  1.031128  0  0  0.109668  0.130758  0  1.036736  0
H  H4  1  0.90350179  0.47190282  0.10809102  1  0  0.085954  0  0.963881  0  0  0.094321  0  1.028756  0  0  0.096278  0  1.028171  0  0  0.105074  0.092533  0  1.029874  0
H  H5  1  0.09648491  0.52809035  0.89190536  1  0  0.086028  0  0.963674  0  0  0.094306  0  1.028662  0  0  0.096236  0  1.028124  0  0  0.105051  0.092515  0  1.029772  0
H  H6  1  0.78467672  0.62727665  0.29004819  1  0  0.101281  0  0.983177  0  0  0.109256  0  1.049447  0  0  0.112339  0  1.049076  0  0  0.093171  0.106375  0  1.050424  0
H  H7  1  0.21531099  0.37272657  0.70994885  1  0  0.101353  0  0.983151  0  0  0.109279  0  1.049512  0  0  0.112364  0  1.049087  0  0  0.093155  0.106396  0  1.050495  0
H  H8  1  0.57059114  0.76424461  0.25346980  1  0  0.135819  0  0.923792  0  0  0.145536  0  0.980503  0  0  0.149542  0  0.977935  0  0  0.119054  0.141952  0  0.982991  0
H  H9  1  0.42940109  0.23576784  0.74653486  1  0  0.135921  0  0.9238  0  0  0.145591  0  0.980521  0  0  0.149617  0  0.977937  0  0  0.119064  0.142009  0  0.98301  0
H  H10  1  0.49443561  0.94614339  0.85961669  1  0  0.139576  0  0.910845  0  0  0.146498  0  0.979198  0  0  0.150841  0  0.97461  0  0  0.131745  0.143194  0  0.98279  0
H  H11  1  0.50555924  0.05386625  0.14038388  1  0  0.139603  0  0.910778  0  0  0.146485  0  0.979149  0  0  0.151141  0  0.973526  0  0  0.131743  0.14318  0  0.982741  0
H  H12  1  0.43386332  0.75142768  0.70603721  1  0  0.12451  0  0.925008  0  0  0.133489  0  0.993158  0  0  0.13558  0  0.991751  0  0  0.124222  0.13126  0  0.994676  0
H  H13  1  0.56612688  0.24858600  0.29396678  1  0  0.124423  0  0.92502  0  0  0.133399  0  0.993161  0  0  0.13582  0  0.990669  0  0  0.124199  0.131174  0  0.994675  0
H  H14  1  0.93519085  0.88042615  0.91387264  1  0  0.091469  0  0.9486  0  0  0.099375  0  1.013028  0  0  0.101317  0  1.011028  0  0  0.130969  0.098049  0  1.014476  0
H  H15  1  0.06480232  0.11956084  0.08612584  1  0  0.091431  0  0.948599  0  0  0.099381  0  1.012972  0  0  0.101329  0  1.010985  0  0  0.130966  0.098055  0  1.014421  0
H  H16  1  0.11039797  0.54410753  0.62298097  1  0  0.118915  0  0.927642  0  0  0.126481  0  0.994474  0  0  0.129369  0  0.9907  0  0  0.141428  0.123951  0  0.99758  0
H  H17  1  0.88960837  0.45589615  0.37702567  1  0  0.118933  0  0.927472  0  0  0.126418  0  0.994421  0  0  0.129484  0  0.989954  0  0  0.141424  0.123885  0  0.99753  0
H  H18  1  0.88049336  0.04005928  0.47111576  1  0  0.129288  0  0.950891  0  0  0.148343  0  1.010343  0  0  0.150236  0  1.010115  0  0  0.091784  0.147616  0  1.009893  0
H  H19  1  0.11950751  0.95992939  0.52887188  1  0  0.129314  0  0.950818  0  0  0.148381  0  1.010244  0  0  0.150274  0  1.01001  0  0  0.091797  0.147652  0  1.009798  0
H  H20  1  0.89392516  0.08619447  0.63991368  1  0  0.129595  0  0.939856  0  0  0.149355  0  0.99769  0  0  0.15149  0  0.99722  0  0  0.092564  0.148742  0  0.997232  0
H  H21  1  0.10609938  0.91381316  0.36008036  1  0  0.12951  0  0.939813  0  0  0.149282  0  0.997641  0  0  0.151419  0  0.997174  0  0  0.09252  0.148667  0  0.997183  0
H  H22  1  0.69707538  0.95259029  0.51523374  1  0  0.14475  0  0.955784  0  0  0.163562  0  1.015798  0  0  0.165929  0  1.01506  0  0  0.090767  0.162128  0  1.016192  0
H  H23  1  0.30294021  0.04741871  0.48477887  1  0  0.144752  0  0.955783  0  0  0.163594  0  1.015778  0  0  0.165974  0  1.015027  0  0  0.09077  0.162159  0  1.016175  0
C  C24  1  0.66849878  0.61640056  0.94955497  1  0  0.175714  0  3.754521  0  0  0.176251  0  3.992137  0  0  0.184668  0  4.01492  0  0  0.104703  0.170069  0  3.978029  0
C  C25  1  0.33150054  0.38360053  0.05044936  1  0  0.175806  0  3.754545  0  0  0.176483  0  3.992147  0  0  0.1849  0  4.015002  0  0  0.10486  0.170304  0  3.978022  0
C  C26  1  0.78157586  0.53497187  0.96768380  1  0  -0.133419  0  3.658085  0  0  -0.153608  0  3.907621  0  0  -0.162969  0  3.92817  0  0  -0.076742  -0.148697  0  3.896599  0
C  C27  1  0.21840770  0.46501906  0.03231589  1  0  -0.133443  0  3.658063  0  0  -0.153724  0  3.907567  0  0  -0.163085  0  3.928116  0  0  -0.076744  -0.148812  0  3.896503  0
C  C28  1  0.81681778  0.53728530  0.09127474  1  0  0.036403  0  3.617183  0  0  0.018388  0  3.869832  0  0  0.025362  0  3.887717  0  0  -0.047551  0.011965  0  3.860746  0
C  C29  1  0.18318238  0.46270787  0.90872373  1  0  0.036232  0  3.617253  0  0  0.018385  0  3.869865  0  0  0.025336  0  3.887751  0  0  -0.047587  0.011971  0  3.860731  0
C  C30  1  0.74898405  0.62545188  0.19542567  1  0  -0.105491  0  3.765321  0  0  -0.12428  0  4.024543  0  0  -0.132501  0  4.050961  0  0  -0.096729  -0.118928  0  4.008767  0
C  C31  1  0.25101138  0.37455252  0.80457158  1  0  -0.105461  0  3.765479  0  0  -0.124257  0  4.024605  0  0  -0.132493  0  4.051002  0  0  -0.09665  -0.118906  0  4.0088  0
C  C32  1  0.63055006  0.70189171  0.17691225  1  0  -0.063266  0  3.604808  0  0  -0.08443  0  3.848923  0  0  -0.084832  0  3.86667  0  0  -0.05615  -0.085704  0  3.839331  0
C  C33  1  0.36944760  0.29810811  0.82309152  1  0  -0.063629  0  3.604889  0  0  -0.084579  0  3.848971  0  0  -0.084997  0  3.866694  0  0  -0.056226  -0.085856  0  3.839376  0
C  C34  1  0.58993048  0.69897083  0.05228916  1  0  0.166367  0  3.817217  0  0  0.167918  0  4.059946  0  0  0.174853  0  4.079493  0  0  0.117752  0.163498  0  4.047375  0
C  C35  1  0.41005848  0.30102513  0.94771174  1  0  0.166662  0  3.817139  0  0  0.168012  0  4.060073  0  0  0.174943  0  4.079654  0  0  0.117781  0.163583  0  4.047475  0
C  C36  1  0.50506899  0.73209840  0.88330119  1  0  0.407952  0  3.652979  0  0  0.383096  0  3.941578  0  0  0.404186  0  3.95202  0  0  0.244094  0.36823  0  3.935633  0
C  C37  1  0.49492826  0.26791793  0.11670601  1  0  0.407966  0  3.652476  0  0  0.38293  0  3.941299  0  0  0.404657  0  3.949425  0  0  0.244024  0.368077  0  3.935302  0
C  C38  1  0.42489489  0.80661775  0.80860157  1  0  -0.120774  0  3.600821  0  0  -0.192565  0  3.834417  0  0  -0.192295  0  3.840667  0  0  -0.030607  -0.192068  0  3.830803  0
C  C39  1  0.57510887  0.19338570  0.19140132  1  0  -0.120698  0  3.600346  0  0  -0.192317  0  3.83397  0  0  -0.183581  0  3.845222  0  0  -0.030571  -0.191825  0  3.830343  0
C  C40  1  0.02071878  0.82381039  0.86077967  1  0  0.181571  0  3.73814  0  0  0.132788  0  4.026825  0  0  0.143816  0  4.04038  0  0  0.137363  0.125795  0  4.01674  0
C  C41  1  0.97928483  0.17619958  0.13922697  1  0  0.181588  0  3.738072  0  0  0.132774  0  4.02673  0  0  0.14506  0  4.036661  0  0  0.137337  0.12578  0  4.016644  0
C  C42  1  0.10293153  0.64920447  0.71083987  1  0  0.199117  0  3.60312  0  0  0.119104  0  3.873326  0  0  0.134888  0  3.882485  0  0  0.170592  0.10858  0  3.867542  0
C  C43  1  0.89706749  0.35078883  0.28916026  1  0  0.199162  0  3.603346  0  0  0.119256  0  3.873574  0  0  0.143895  0  3.888393  0  0  0.17062  0.108733  0  3.867785  0
C  C44  1  0.75490523  0.21723197  0.57310865  1  0  0.732324  0  3.861187  0  0  0.698484  0  4.14293  0  0  0.732413  0  4.137713  0  0  0.188228  0.674251  0  4.144114  0
C  C45  1  0.24511319  0.78275797  0.42688186  1  0  0.732188  0  3.861499  0  0  0.698335  0  4.143269  0  0  0.732263  0  4.138066  0  0  0.188212  0.674107  0  4.144453  0
C  C46  1  0.81149274  0.06556949  0.54752982  1  0  -0.45154  0  3.678432  0  0  -0.524624  0  3.9044  0  0  -0.531891  0  3.907469  0  0  -0.252154  -0.519808  0  3.900973  0
C  C47  1  0.18852073  0.93442345  0.45246720  1  0  -0.451487  0  3.678394  0  0  -0.524615  0  3.904317  0  0  -0.531894  0  3.907372  0  0  -0.252141  -0.519799  0  3.90089  0
N  N48  1  0.60979294  0.64420112  0.84316472  1  0  -0.473988  0  3.089669  0  0  -0.409237  0  3.359997  0  0  -0.435339  0  3.375399  0  0  -0.339163  -0.393366  0  3.351466  0
N  N49  1  0.39019603  0.35579849  0.15683475  1  0  -0.47396  0  3.089943  0  0  -0.409124  0  3.36028  0  0  -0.435214  0  3.375743  0  0  -0.339088  -0.393258  0  3.351728  0
N  N50  1  0.48454319  0.76647135  0.01042308  1  0  -0.381653  0  2.813092  0  0  -0.357642  0  3.079373  0  0  -0.373029  0  3.090807  0  0  -0.289375  -0.348824  0  3.073059  0
N  N51  1  0.51545731  0.23353388  0.98956887  1  0  -0.381894  0  2.812646  0  0  -0.35768  0  3.079054  0  0  -0.372891  0  3.089897  0  0  -0.289397  -0.348865  0  3.072725  0
N  N52  1  0.24261625  0.78164309  0.80388249  1  0  0.064851  0  3.528758  0  0  0.187906  0  3.710799  0  0  0.177214  0  3.734457  0  0  -0.125236  0.193647  0  3.696779  0
N  N53  1  0.75739409  0.21836843  0.19612957  1  0  0.064895  0  3.528913  0  0  0.187789  0  3.711062  0  0  0.146989  0  3.777955  0  0  -0.125206  0.193531  0  3.697041  0
N  N54  1  0.19247088  0.89529175  0.90078275  1  0  -0.262844  0  2.842679  0  0  -0.267212  0  3.111067  0  0  -0.275639  0  3.125638  0  0  -0.221059  -0.26014  0  3.100175  0
N  N55  1  0.80751801  0.10471140  0.09921352  1  0  -0.262959  0  2.842194  0  0  -0.267276  0  3.110613  0  0  -0.266919  0  3.132571  0  0  -0.221103  -0.260205  0  3.099724  0
N  N56  1  0.95995651  0.67197872  0.74505017  1  0  -0.405309  0  3.199965  0  0  -0.337168  0  3.492497  0  0  -0.358816  0  3.506227  0  0  -0.348329  -0.322813  0  3.483186  0
N  N57  1  0.04003859  0.32801728  0.25495217  1  0  -0.40532  0  3.200329  0  0  -0.337184  0  3.492834  0  0  -0.357858  0  3.502859  0  0  -0.348339  -0.322827  0  3.48352  0
Cl  Cl58  1  0.67198198  0.64811570  0.48986450  1  0  -0.566134  0  1.006682  0  0  -0.498104  0  1.287934  0  0  -0.517644  0  1.264434  0  0  -0.284163  -0.484212  0  1.303555  0
Cl  Cl59  1  0.32802855  0.35188261  0.51013739  1  0  -0.56613  0  1.006641  0  0  -0.498121  0  1.287929  0  0  -0.517663  0  1.264443  0  0  -0.28418  -0.484228  0  1.303551  0
O  O60  1  0.76561182  0.28149286  0.49561089  1  0  -0.668504  0  1.915929  0  0  -0.609595  0  2.147512  0  0  -0.639888  0  2.139729  0  0  -0.3459  -0.582895  0  2.148881  0
O  O61  1  0.23441009  0.71850296  0.50439299  1  0  -0.668422  0  1.915796  0  0  -0.609499  0  2.147363  0  0  -0.639837  0  2.139791  0  0  -0.345897  -0.582816  0  2.148738  0
O  O62  1  0.69622933  0.27893094  0.67387308  1  0  -0.666658  0  1.928245  0  0  -0.603338  0  2.160586  0  0  -0.634036  0  2.151716  0  0  -0.345395  -0.575793  0  2.162303  0
O  O63  1  0.30378164  0.72106920  0.32611909  1  0  -0.66661  0  1.928526  0  0  -0.60327  0  2.160854  0  0  -0.633961  0  2.151994  0  0  -0.345419  -0.575746  0  2.162584  0
