# generated using pymatgen
data_Al6H52C80N4O35
_symmetry_space_group_name_H-M   'P 1'
_cell_length_a   12.84049116
_cell_length_b   13.11864119
_cell_length_c   26.72725378
_cell_angle_alpha   83.69588399
_cell_angle_beta   83.69697981
_cell_angle_gamma   63.08026651
_symmetry_Int_Tables_number   1
_chemical_formula_structural   Al6H52C80N4O35
_chemical_formula_sum   'Al6 H52 C80 N4 O35'
_cell_volume   3980.89801644
_cell_formula_units_Z   1
loop_
 _symmetry_equiv_pos_site_id
 _symmetry_equiv_pos_as_xyz
  1  'x, y, z'
loop_
 _atom_site_type_symbol
 _atom_site_label
 _atom_site_symmetry_multiplicity
 _atom_site_fract_x
 _atom_site_fract_y
 _atom_site_fract_z
 _atom_site_occupancy
 _atom_site_pbe_bader_charge
 _atom_site_pbe_bader_spin_density
 _atom_site_pbe_cm5_charge
 _atom_site_pbe_ddec_charge
 _atom_site_pbe_ddec_spin_density
 _atom_site_pbe_ddec_sum_bond_order
 _atom_site_pbe_magmom
Al  Al0  1  0.40730304  0.40689962  0.51093415  1  2.492276  0  0.400846  1.680689  0  2.562024  0
Al  Al1  1  0.64989317  0.42524083  0.49598235  1  2.481421  0  0.51143  1.661184  0  2.507866  0
Al  Al2  1  0.42723359  0.64479472  0.49811914  1  2.479304  0  0.506575  1.66006  0  2.514005  0
Al  Al3  1  0.93019474  0.92928409  0.98009768  1  2.493703  0  0.402061  1.682887  0  2.556371  0
Al  Al4  1  0.91255531  0.69108182  0.99615887  1  2.479175  0  0.508824  1.662568  0  2.509609  0
Al  Al5  1  0.68844847  0.90906553  0.99276211  1  2.481333  0  0.510101  1.661651  0  2.509765  0
H  H6  1  0.85940697  0.09670429  0.27593220  1  0.075376  0  0.101729  0.103086  0  1.011883  0
H  H7  1  0.99722568  0.11611053  0.19577320  1  0.088016  0  0.09753  0.13715  0  1.005431  0
H  H8  1  0.07316908  0.15095169  0.23792762  1  0.030068  0  0.091508  0.119992  0  1.003545  0
H  H9  1  0.14679942  0.08413025  0.18125554  1  0.03838  0  0.097075  0.133507  0  0.984232  0
H  H10  1  0.84458480  0.29813422  0.25044605  1  0.005368  0  0.09591  0.049848  0  0.982854  0
H  H11  1  0.71441412  0.42023363  0.23232957  1  0.03999  0  0.091855  0.045131  0  0.997758  0
H  H12  1  0.82121988  0.44640705  0.15041888  1  0.027777  0  0.092672  0.130391  0  1.001135  0
H  H13  1  0.89217753  0.45019473  0.20333489  1  0.027422  0  0.087959  0.117229  0  1.011449  0
H  H14  1  0.95057825  0.32462575  0.16894405  1  0.066384  0  0.096454  0.134926  0  0.996171  0
H  H15  1  0.34045756  0.73236519  0.77047494  1  0.032484  0  0.08747  0.034481  0  1.031515  0
H  H16  1  0.37907676  0.82477210  0.72687938  1  0.023581  0  0.094891  0.047462  0  0.98341  0
H  H17  1  0.78143483  0.95835237  0.23286085  1  0.067306  0  0.104701  0.108878  0  0.986123  0
H  H18  1  0.27273913  0.98569695  0.78362273  1  0.013305  0  0.091131  0.122616  0  0.997527  0
H  H19  1  0.17733605  0.92901532  0.76951665  1  0.036799  0  0.094139  0.127244  0  0.995067  0
H  H20  1  0.23906374  0.89313222  0.82919553  1  0.045644  0  0.100782  0.142533  0  0.980112  0
H  H21  1  0.57085012  0.93136648  0.71816234  1  0.421134  0  0.300515  0.293446  0  0.943873  0
H  H22  1  0.51662106  0.88777416  0.67601080  1  0.411148  0  0.294707  0.282491  0  0.963659  0
H  H23  1  0.52948557  0.49293647  0.76883055  1  0.420397  0  0.300009  0.29331  0  0.946715  0
H  H24  1  0.47855934  0.57290521  0.71590739  1  0.413609  0  0.291247  0.279112  0  0.978028  0
H  H25  1  0.96833133  0.39489457  0.75792166  1  0.018885  0  0.097914  0.053731  0  0.970548  0
H  H26  1  0.98267616  0.52315024  0.76115885  1  0.052252  0  0.09916  0.057978  0  0.980912  0
H  H27  1  0.11369782  0.48172438  0.68137955  1  0.04352  0  0.088881  0.122003  0  1.022485  0
H  H28  1  0.75826542  0.46018042  0.79256083  1  0.105412  0  0.112847  0.12688  0  0.97204  0
H  H29  1  0.17060906  0.36448906  0.72733696  1  0.042703  0  0.093868  0.125327  0  0.995187  0
H  H30  1  0.09648486  0.35623820  0.67637974  1  0.047954  0  0.098285  0.136584  0  0.981919  0
H  H31  1  0.81507125  0.79773009  0.68067735  1  0.069959  0  0.102388  0.070737  0  0.983251  0
H  H32  1  0.95117834  0.70094043  0.70616917  1  0.012382  0  0.092063  0.047281  0  1.012088  0
H  H33  1  0.94041326  0.86520752  0.75312616  1  0.034047  0  0.087662  0.120984  0  1.013577  0
H  H34  1  0.94775773  0.89182002  0.68626938  1  0.047916  0  0.093688  0.128722  0  0.992042  0
H  H35  1  0.81158226  0.95901383  0.72208564  1  0.057404  0  0.083612  0.116981  0  1.035957  0
H  H36  1  0.39929318  0.74370238  0.23667044  1  0.409526  0  0.289261  0.27415  0  0.97898  0
H  H37  1  0.35271820  0.74582272  0.29750316  1  0.433914  0  0.290127  0.278684  0  0.978199  0
H  H38  1  0.49710748  0.57510473  0.18514288  1  0.010646  0  0.091134  0.046435  0  1.003818  0
H  H39  1  0.99707261  0.80855205  0.29167273  1  0.078779  0  0.105758  0.109288  0  0.988957  0
H  H40  1  0.37692359  0.64400689  0.14547491  1  0.056792  0  0.101885  0.062449  0  0.974428  0
H  H41  1  0.44557184  0.46566330  0.10044900  1  0.044427  0  0.09531  0.130917  0  0.991228  0
H  H42  1  0.55967887  0.50829033  0.09834696  1  0.036524  0  0.094364  0.126858  0  0.991493  0
H  H43  1  0.56355531  0.39245076  0.14048626  1  0.072622  0  0.091832  0.134186  0  1.018896  0
H  H44  1  0.37642104  0.30538284  0.23030371  1  0.415521  0  0.294234  0.285266  0  0.975873  0
H  H45  1  0.42158525  0.19077517  0.19594505  1  0.430533  0  0.294649  0.282866  0  0.968042  0
H  H46  1  0.62011143  0.88741747  0.27352599  1  0.048989  0  0.088977  0.040857  0  1.007838  0
H  H47  1  0.51674332  0.00468056  0.23747094  1  0.034329  0  0.097278  0.052176  0  0.983705  0
H  H48  1  0.35786772  0.02739227  0.30465268  1  0.044081  0  0.093062  0.127438  0  0.992843  0
H  H49  1  0.42596159  0.88504021  0.28435180  1  0.015986  0  0.083187  0.104854  0  1.047793  0
H  H50  1  0.21697786  0.47839762  0.27860406  1  0.085174  0  0.110094  0.111612  0  0.97644  0
H  H51  1  0.45967627  0.91301367  0.34274368  1  0.027597  0  0.098163  0.14009  0  0.984344  0
H  H52  1  0.01078408  0.63698932  0.23164833  1  0.093002  0  0.104388  0.094317  0  0.985385  0
H  H53  1  0.54364575  0.36733522  0.25886396  1  0.054439  0  0.110282  0.127747  0  0.983356  0
H  H54  1  0.20329796  0.94167370  0.25666059  1  0.032685  0  0.09099  0.043891  0  1.000155  0
H  H55  1  0.05355333  0.97393650  0.27174813  1  0.021576  0  0.092676  0.042722  0  0.9967  0
H  H56  1  0.32404200  0.29214581  0.55273429  1  0.580479  0  0.294515  0.385189  0  0.919728  0
H  H57  1  0.00870384  0.04811189  0.93824324  1  0.570218  0  0.293927  0.383548  0  0.92234  0
C  C58  1  0.61141183  0.28866336  0.43643085  1  1.642739  0  0.277385  0.715094  0  4.163506  0
C  C59  1  0.15674929  0.68859987  0.19465077  1  0.07802  0  -0.007359  -0.009904  0  3.833399  0
C  C60  1  0.19819487  0.56519589  0.26320260  1  -0.049949  0  -0.071366  -0.131817  0  3.633069  0
C  C61  1  0.60453222  0.60548769  0.41716206  1  1.673089  0  0.28471  0.697409  0  4.177859  0
C  C62  1  0.19128070  0.66183979  0.29570350  1  0.118887  0  0.006739  0.092456  0  3.831735  0
C  C63  1  0.27437364  0.59723480  0.22119921  1  0.614978  0  0.094197  0.168397  0  3.763771  0
C  C64  1  0.26828857  0.69516820  0.25293993  1  0.421098  0  0.08253  0.107869  0  3.751145  0
C  C65  1  0.13419590  0.69918546  0.14363949  1  -0.465309  0  -0.014607  0.015592  0  4.084075  0
C  C66  1  0.21176511  0.65029127  0.34716431  1  -0.580111  0  -0.018107  -0.008434  0  4.072483  0
C  C67  1  0.61082346  0.10247427  0.27361520  1  0.590585  0  0.084094  0.138016  0  3.763635  0
C  C68  1  0.55267228  0.20072311  0.22972348  1  0.473175  0  0.089208  0.187522  0  3.79339  0
C  C69  1  0.65488486  0.66167006  0.26819719  1  -0.314063  0  0.007488  0.000112  0  4.177781  0
C  C70  1  0.69331651  0.09581238  0.10126390  1  0.258092  0  -0.045792  -0.221581  0  3.959935  0
C  C71  1  0.63899411  0.23499648  0.38975824  1  -0.021067  0  -0.047832  -0.220927  0  3.970792  0
C  C72  1  0.72889726  0.04889013  0.23968604  1  -0.047528  0  -0.077786  -0.135935  0  3.662397  0
C  C73  1  0.28591519  0.60884745  0.43874468  1  1.667649  0  0.27968  0.711762  0  4.16988  0
C  C74  1  0.67223186  0.14402474  0.19576101  1  0.116845  0  -0.00114  0.007203  0  3.821238  0
C  C75  1  0.77266553  0.12586088  0.26227254  1  -0.061948  0  -0.081583  -0.153585  0  3.653142  0
C  C76  1  0.65511346  0.18088963  0.29646380  1  0.113984  0  0.002032  0.082133  0  3.831979  0
C  C77  1  0.71567091  0.22211252  0.21919611  1  0.632359  0  0.095542  0.225337  0  3.774011  0
C  C78  1  0.59733630  0.27659286  0.25272260  1  -0.026766  0  -0.074891  -0.199673  0  3.596654  0
C  C79  1  0.68310842  0.12047737  0.14481181  1  -0.554009  0  -0.012924  0.022332  0  4.063765  0
C  C80  1  0.64138377  0.64567459  0.31854578  1  -0.379933  0  0.000557  0.030899  0  4.226654  0
C  C81  1  0.64598215  0.20680903  0.34706943  1  -0.253833  0  -0.013274  0.008242  0  4.054142  0
C  C82  1  0.62640780  0.75940337  0.72321264  1  0.411405  0  0.077299  0.118137  0  3.804454  0
C  C83  1  0.56455292  0.71520785  0.76965004  1  0.578261  0  0.077438  0.074942  0  3.768419  0
C  C84  1  0.70481863  0.68977327  0.89131747  1  0.268684  0  -0.047199  -0.235186  0  3.95122  0
C  C85  1  0.61126522  0.29379081  0.57804648  1  1.699949  0  0.278226  0.694548  0  4.183599  0
C  C86  1  0.64196025  0.62693823  0.60285986  1  0.219953  0  -0.048311  -0.239952  0  3.948211  0
C  C87  1  0.74279452  0.70495084  0.75158902  1  0.597953  0  0.090856  0.107763  0  3.747465  0
C  C88  1  0.68143510  0.66060812  0.79810721  1  0.095023  0  -0.000621  0.024007  0  3.838108  0
C  C89  1  0.78402063  0.58662667  0.72642552  1  0.616435  0  0.091891  0.165257  0  3.781893  0
C  C90  1  0.66793235  0.64303310  0.69739011  1  0.113394  0  -0.001845  -0.042589  0  3.807359  0
C  C91  1  0.62838155  0.63165550  0.36458130  1  0.333554  0  0.014572  -0.115515  0  3.780723  0
C  C92  1  0.72187415  0.54461322  0.77229433  1  -0.084831  0  -0.077582  -0.199544  0  3.642077  0
C  C93  1  0.60730708  0.59593169  0.74417725  1  0.455242  0  0.097575  0.214622  0  3.759158  0
C  C94  1  0.69286342  0.67387088  0.84856735  1  -0.46858  0  0.002873  0.055484  0  4.021666  0
C  C95  1  0.65629180  0.63414589  0.64657683  1  -0.486292  0  0.001132  0.065372  0  4.031732  0
C  C96  1  0.10274494  0.69316272  0.86460005  1  0.100088  0  0.013952  -0.109573  0  3.805447  0
C  C97  1  0.61539352  0.60531297  0.55597111  1  1.610909  0  0.283471  0.727982  0  4.145832  0
C  C98  1  0.13437196  0.67608262  0.82004952  1  -0.079524  0  -0.007244  0.015545  0  4.259317  0
C  C99  1  0.16549741  0.66093551  0.77097545  1  -0.378089  0  0.004324  -0.000179  0  4.200574  0
C  C100  1  0.19002142  0.65175176  0.72523699  1  0.161156  0  -0.000325  -0.012714  0  4.209752  0
C  C101  1  0.21767655  0.64210244  0.67567066  1  -0.153729  0  -0.010327  0.011307  0  4.279942  0
C  C102  1  0.07550213  0.75026779  0.27038859  1  -0.06331  0  -0.076857  -0.155074  0  3.640876  0
C  C103  1  0.24435103  0.63256837  0.63033715  1  0.120916  0  0.006096  -0.122988  0  3.820975  0
C  C104  1  0.69609300  0.09991568  0.86273372  1  0.166549  0  0.006027  -0.122967  0  3.815757  0
C  C105  1  0.68260379  0.13391402  0.81819463  1  -0.250618  0  -0.007766  0.022421  0  4.259478  0
C  C106  1  0.66946538  0.16746398  0.76916683  1  -0.138057  0  -2e-05  -0.006332  0  4.195882  0
C  C107  1  0.66038890  0.19357475  0.72351925  1  0.10369  0  0.001367  -0.003871  0  4.199841  0
C  C108  1  0.64994510  0.22077333  0.67394092  1  -0.422817  0  -0.005069  0.028469  0  4.254086  0
C  C109  1  0.29410155  0.60593528  0.57978795  1  1.66906  0  0.27612  0.687838  0  4.197279  0
C  C110  1  0.63941852  0.24586849  0.62858339  1  0.32964  0  0.005591  -0.12512  0  3.812645  0
C  C111  1  0.05383049  0.73059057  0.05393175  1  1.633736  0  0.278579  0.709454  0  4.172236  0
C  C112  1  0.72622038  0.73511574  0.07380177  1  1.693138  0  0.282947  0.691902  0  4.185802  0
C  C113  1  0.15089097  0.78417634  0.22728231  1  0.588871  0  0.082318  0.149139  0  3.779812  0
C  C114  1  0.72422562  0.04600940  0.05354196  1  1.649792  0  0.27867  0.716063  0  4.161171  0
C  C115  1  0.04746642  0.72684948  0.91384389  1  1.70486  0  0.277975  0.688639  0  4.19097  0
C  C116  1  0.72986266  0.72045212  0.93648066  1  1.593577  0  0.283604  0.729604  0  4.140768  0
C  C117  1  0.72571614  0.04402251  0.91210719  1  1.686504  0  0.278062  0.693002  0  4.183578  0
C  C118  1  0.69653749  0.71055858  0.12587823  1  0.159277  0  0.01342  -0.116055  0  3.793402  0
C  C119  1  0.68097611  0.69483099  0.17167936  1  -0.306795  0  -0.002937  0.021175  0  4.243568  0
C  C120  1  0.66643142  0.67720779  0.22187060  1  0.332613  0  0.004373  -0.009433  0  4.179676  0
C  C121  1  0.11816893  0.97152636  0.24037418  1  0.425263  0  -0.069187  0.094166  0  3.93296  0
C  C122  1  0.08160997  0.08752371  0.21210908  1  -0.094217  0  -0.243275  -0.402692  0  3.976792  0
C  C123  1  0.79650292  0.35025160  0.21766658  1  0.422662  0  -0.068804  0.089882  0  3.931908  0
C  C124  1  0.10908601  0.70551516  0.10032264  1  0.213605  0  -0.043894  -0.216943  0  3.963327  0
C  C125  1  0.86947751  0.39549227  0.18297741  1  -0.049207  0  -0.245305  -0.399854  0  3.978909  0
C  C126  1  0.35882735  0.80715560  0.76717299  1  0.406102  0  -0.071104  0.091233  0  3.927358  0
C  C127  1  0.25614423  0.90999248  0.78874226  1  -0.011859  0  -0.241793  -0.39668  0  3.973105  0
C  C128  1  0.98372602  0.46283679  0.73515278  1  0.410464  0  -0.066046  0.087898  0  3.920363  0
C  C129  1  0.09771864  0.41354292  0.70306835  1  -0.06735  0  -0.242773  -0.397371  0  3.980076  0
C  C130  1  0.86974568  0.77980773  0.71251896  1  0.404463  0  -0.070576  0.085757  0  3.885075  0
C  C131  1  0.89363796  0.87996970  0.71901043  1  -0.081341  0  -0.248716  -0.398355  0  3.98469  0
C  C132  1  0.43791547  0.56082765  0.16296414  1  0.40442  0  -0.067061  0.089579  0  3.896553  0
C  C133  1  0.50532386  0.47644242  0.12334538  1  -0.072186  0  -0.243106  -0.396051  0  3.961729  0
C  C134  1  0.53827661  0.96768622  0.27628014  1  0.371578  0  -0.070989  0.087418  0  3.937762  0
C  C135  1  0.23525257  0.63849899  0.39100724  1  0.279238  0  -0.043527  -0.212045  0  3.975163  0
C  C136  1  0.43940480  0.94725664  0.30379140  1  -0.012359  0  -0.24588  -0.397176  0  3.980631  0
C  C137  1  0.08382774  0.65351184  0.23865068  1  -0.03441  0  -0.065937  -0.045454  0  3.65506  0
N  N138  1  0.58841092  0.86712958  0.69541506  1  -1.171012  0  -0.608953  -0.625305  0  3.269222  0
N  N139  1  0.55064158  0.52936168  0.73616201  1  -1.177256  0  -0.609127  -0.635208  0  3.274572  0
N  N140  1  0.36787050  0.70481420  0.26522607  1  -1.197345  0  -0.615731  -0.638361  0  3.315229  0
N  N141  1  0.44334684  0.24816169  0.20887722  1  -1.203633  0  -0.608403  -0.630179  0  3.325784  0
O  O142  1  0.30868252  0.51045047  0.45926769  1  -1.21342  0  -0.196549  -0.52965  0  2.281211  0
O  O143  1  0.65420644  0.82841279  0.05216871  1  -1.233967  0  -0.217382  -0.56735  0  2.249263  0
O  O144  1  0.64669980  0.02517903  0.03535513  1  -1.257005  0  -0.250393  -0.621532  0  2.231231  0
O  O145  1  0.51113668  0.31317749  0.45790983  1  -1.224444  0  -0.202767  -0.549873  0  2.298522  0
O  O146  1  0.82375371  0.02596755  0.92605514  1  -1.207411  0  -0.205769  -0.556426  0  2.292573  0
O  O147  1  0.02219938  0.82743657  0.92375869  1  -1.192042  0  -0.201753  -0.541406  0  2.288034  0
O  O148  1  0.02551494  0.65182032  0.94204813  1  -1.246109  0  -0.234968  -0.59187  0  2.240842  0
O  O149  1  0.82630838  0.65176801  0.95628394  1  -1.250331  0  -0.232357  -0.602543  0  2.243022  0
O  O150  1  0.65698184  0.81714862  0.95350371  1  -1.247402  0  -0.229213  -0.595005  0  2.242948  0
O  O151  1  0.65074852  0.01423366  0.93669456  1  -1.241589  0  -0.232147  -0.585898  0  2.235379  0
O  O152  1  0.84269203  0.84202746  0.98943189  1  -1.608719  0  -0.390614  -1.274023  0  2.29147  0
O  O153  1  0.68706908  0.51208684  0.53579211  1  -1.252411  0  -0.229198  -0.59423  0  2.240631  0
O  O154  1  0.68988528  0.31194591  0.45208377  1  -1.255324  0  -0.248115  -0.617256  0  2.227796  0
O  O155  1  0.67803587  0.51046005  0.43693503  1  -1.227145  0  -0.216138  -0.566383  0  2.248494  0
O  O156  1  0.50934999  0.67724083  0.43853069  1  -1.227261  0  -0.219145  -0.570926  0  2.244713  0
O  O157  1  0.30870254  0.68485355  0.45567048  1  -1.257187  0  -0.24677  -0.614994  0  2.241449  0
O  O158  1  0.31333901  0.50935472  0.56659817  1  -1.197509  0  -0.201701  -0.541637  0  2.293124  0
O  O159  1  0.51196399  0.31240852  0.56535368  1  -1.214356  0  -0.20632  -0.557496  0  2.295516  0
O  O160  1  0.68802490  0.31738155  0.55116443  1  -1.243315  0  -0.232924  -0.587719  0  2.237012  0
O  O161  1  0.12680816  0.89145518  0.20523521  1  -1.069393  0  -0.203093  -0.227436  0  2.491898  0
O  O162  1  0.76835852  0.27965205  0.18922971  1  -1.067711  0  -0.198479  -0.237942  0  2.499948  0
O  O163  1  0.45993608  0.77870138  0.79529442  1  -1.075833  0  -0.205251  -0.220859  0  2.501139  0
O  O164  1  0.51835016  0.67808598  0.53768232  1  -1.25285  0  -0.235285  -0.605933  0  2.244847  0
O  O165  1  0.88958063  0.52277638  0.70169227  1  -1.05629  0  -0.200246  -0.226547  0  2.492399  0
O  O166  1  0.80793465  0.76010883  0.75891178  1  -1.071722  0  -0.207238  -0.229712  0  2.472734  0
O  O167  1  0.37110477  0.51530515  0.19769797  1  -1.056026  0  -0.194004  -0.223569  0  2.516474  0
O  O168  1  0.55787535  0.04547948  0.30381463  1  -1.062158  0  -0.205123  -0.226591  0  2.490064  0
O  O169  1  0.31849550  0.68200697  0.55380979  1  -1.248071  0  -0.236371  -0.591505  0  2.240257  0
O  O170  1  0.49551323  0.49375023  0.50200705  1  -1.609769  0  -0.390609  -1.272122  0  2.288983  0
O  O171  1  0.82573401  0.02222339  0.03364819  1  -1.220435  0  -0.203287  -0.547603  0  2.285805  0
O  O172  1  0.03161356  0.82646099  0.03058412  1  -1.219706  0  -0.199588  -0.536403  0  2.289987  0
O  O173  1  0.02655154  0.65404175  0.04062756  1  -1.256255  0  -0.246911  -0.615905  0  2.235776  0
O  O174  1  0.82457916  0.66329672  0.05485026  1  -1.229183  0  -0.216501  -0.564848  0  2.247723  0
O  O175  1  0.32492796  0.32994544  0.51967591  1  -1.356456  0  -0.572135  -0.986339  0  1.789228  0
O  O176  1  0.01244414  0.00636263  0.97064096  1  -1.347064  0  -0.570208  -0.983446  0  1.792422  0
