# generated using pymatgen
data_GdNiH12C15N2O13
_symmetry_space_group_name_H-M   'P 1'
_cell_length_a   9.53025283
_cell_length_b   10.62094159
_cell_length_c   10.72787406
_cell_angle_alpha   81.34030176
_cell_angle_beta   73.70345669
_cell_angle_gamma   75.73538672
_symmetry_Int_Tables_number   1
_chemical_formula_structural   GdNiH12C15N2O13
_chemical_formula_sum   'Gd2 Ni2 H24 C30 N4 O26'
_cell_volume   1006.23848718
_cell_formula_units_Z   2
loop_
 _symmetry_equiv_pos_site_id
 _symmetry_equiv_pos_as_xyz
  1  'x, y, z'
loop_
 _atom_site_type_symbol
 _atom_site_label
 _atom_site_symmetry_multiplicity
 _atom_site_fract_x
 _atom_site_fract_y
 _atom_site_fract_z
 _atom_site_occupancy
 _atom_site_pbe_cm5_charge
 _atom_site_pbe_ddec_charge
 _atom_site_pbe_ddec_spin_density
 _atom_site_pbe_ddec_sum_bond_order
 _atom_site_pbe_magmom
Gd  Gd0  1  0.32433046  0.30245066  0.96586117  1  1.456362  2.007535  -0.003428  2.195108  -0.003
Gd  Gd1  1  0.67574884  0.69765328  0.03412712  1  1.45611  2.007922  0.00351  2.194075  0.003
Ni  Ni2  1  0.19753652  0.13706489  0.38040645  1  0.645072  0.756802  -0.012617  2.57163  -0.007
Ni  Ni3  1  0.80250344  0.86282981  0.61938582  1  0.645342  0.756987  0.012941  2.571899  0.007
H  H4  1  0.42324274  0.30234213  0.24496300  1  0.128743  0.101897  0.001741  1.037246  0.002
H  H5  1  0.57674631  0.69764085  0.75500212  1  0.128834  0.102064  -0.001724  1.037138  -0.002
H  H6  1  0.65362673  0.33807899  0.29021958  1  0.114797  0.136833  0.000722  1.027147  0.001
H  H7  1  0.34626664  0.66201309  0.70983167  1  0.114744  0.136777  -0.000718  1.027343  -0.001
H  H8  1  0.71093593  0.24145247  0.50528377  1  0.107304  0.104627  3.7e-05  1.017141  0.0
H  H9  1  0.28885505  0.75870458  0.49482489  1  0.107266  0.10472  -3.8e-05  1.016948  0.0
H  H10  1  0.01273265  0.73702550  0.36614203  1  0.125198  0.103535  0.00074  0.984149  0.001
H  H11  1  0.98743011  0.26259956  0.63370037  1  0.125045  0.103237  -0.000788  0.984366  -0.001
H  H12  1  0.23830933  0.55308307  0.32482960  1  0.118289  0.138052  0.000226  0.998953  0.0
H  H13  1  0.76184843  0.44650200  0.67528785  1  0.118335  0.137841  -0.000247  0.998989  0.0
H  H14  1  0.32040522  0.42247916  0.51839856  1  0.108811  0.106062  -9.2e-05  1.029689  0.0
H  H15  1  0.67965007  0.57734916  0.48187732  1  0.109012  0.10645  9.1e-05  1.029074  0.0
H  H16  1  0.44801354  0.07986685  0.13735206  1  0.305185  0.398019  -4.1e-05  0.937684  0.0
H  H17  1  0.55207611  0.92016580  0.86263156  1  0.305403  0.398622  4.3e-05  0.936992  0.0
H  H18  1  0.59092632  0.08172313  0.02114370  1  0.31919  0.418169  9e-06  0.884371  0.0
H  H19  1  0.40914054  0.91840807  0.97884171  1  0.318993  0.418008  -9e-06  0.884741  0.0
H  H20  1  0.14021524  0.08895610  0.03681122  1  0.335215  0.419549  8.9e-05  0.862617  0.0
H  H21  1  0.86009308  0.91090160  0.96350749  1  0.335282  0.419539  -8.6e-05  0.861974  0.0
H  H22  1  0.23663516  0.07392248  0.88994986  1  0.308489  0.413443  -0.000113  0.912247  0.0
H  H23  1  0.76324530  0.92614353  0.11020478  1  0.308447  0.413243  0.000114  0.912688  0.0
H  H24  1  0.13923203  0.96161506  0.28330653  1  0.314531  0.391514  0.000677  0.902041  0.0
H  H25  1  0.86077273  0.03824021  0.71646739  1  0.314722  0.39169  -0.000683  0.901568  0.0
H  H26  1  0.96847594  0.00694669  0.36227550  1  0.289083  0.392695  0.001525  0.944956  0.002
H  H27  1  0.03153351  0.99300982  0.63738642  1  0.289103  0.392533  -0.001511  0.945109  -0.002
C  C28  1  0.45396479  0.26248942  0.33545476  1  0.058258  0.104952  0.000585  3.889249  -0.001
C  C29  1  0.54598402  0.73752753  0.66452483  1  0.058292  0.104625  -0.000574  3.889446  0.001
C  C30  1  0.58192321  0.28128448  0.36206195  1  -0.066757  -0.090559  0.006314  3.896615  0.006
C  C31  1  0.41797802  0.71879292  0.63796904  1  -0.066882  -0.090666  -0.006275  3.896989  -0.006
C  C32  1  0.61193125  0.22899367  0.48105861  1  -0.062134  -0.050615  -0.002958  3.919853  -0.002
C  C33  1  0.38791101  0.77110978  0.51899476  1  -0.062127  -0.050607  0.002966  3.920253  0.002
C  C34  1  0.51324747  0.16083605  0.57162034  1  0.005631  -0.070021  0.004365  3.926311  0.004
C  C35  1  0.48659733  0.83923512  0.42841967  1  0.005893  -0.069843  -0.004366  3.926222  -0.004
C  C36  1  0.38826382  0.14403574  0.53733855  1  0.110814  0.052173  0.000587  3.958046  -0.001
C  C37  1  0.61164983  0.85599078  0.46265423  1  0.110668  0.052016  -0.000575  3.958404  0.001
C  C38  1  0.27571916  0.06825833  0.62183060  1  0.217647  0.550692  0.00134  4.202815  0.003
C  C39  1  0.72414746  0.93179004  0.37809078  1  0.217558  0.550291  -0.001323  4.202356  -0.003
C  C40  1  0.53982211  0.11714762  0.70443365  1  0.242375  0.647419  0.00179  4.166844  0.002
C  C41  1  0.46008549  0.88292976  0.29558077  1  0.242362  0.647466  -0.001822  4.165923  -0.002
C  C42  1  0.05288961  0.67775581  0.44651752  1  0.050918  0.080546  -0.000119  3.938115  -0.001
C  C43  1  0.94723004  0.32198263  0.55340422  1  0.05129  0.081679  9.8e-05  3.938542  0.001
C  C44  1  0.17737286  0.57418171  0.42463009  1  -0.068267  -0.10109  0.002014  3.924757  0.002
C  C45  1  0.82273591  0.42552006  0.57542972  1  -0.068115  -0.100777  -0.002174  3.926479  -0.002
C  C46  1  0.22174776  0.50177921  0.53187903  1  -0.06016  -0.060118  -0.001101  3.91322  -0.001
C  C47  1  0.77830344  0.49806324  0.46827080  1  -0.060683  -0.060898  0.001181  3.913738  0.001
C  C48  1  0.13980590  0.53113403  0.65852134  1  0.017438  -0.030656  0.000647  3.868633  0.0
C  C49  1  0.86021004  0.46885359  0.34158061  1  0.017758  -0.030564  -0.000775  3.868826  0.0
C  C50  1  0.01627758  0.63593988  0.67160619  1  0.120649  0.08482  0.000377  3.917489  0.0
C  C51  1  0.98372817  0.36406374  0.32835888  1  0.120756  0.085022  -0.000387  3.917011  0.0
C  C52  1  0.91302961  0.67161914  0.80044572  1  0.208048  0.536726  0.000708  4.210778  0.0
C  C53  1  0.08698339  0.32849785  0.19950549  1  0.20827  0.537  -0.000761  4.209034  0.0
C  C54  1  0.19025418  0.45139435  0.77325516  1  0.197565  0.590814  0.000681  4.261521  0.001
C  C55  1  0.80971087  0.54871043  0.22690704  1  0.197249  0.590281  -0.000712  4.261408  -0.001
C  C56  1  0.56305205  0.47670639  0.93944888  1  0.21923  0.508447  -6.3e-05  4.22297  0.0
C  C57  1  0.43700281  0.52337508  0.06058371  1  0.219311  0.509254  6.2e-05  4.220556  0.0
N  N58  1  0.36191691  0.19424438  0.42061002  1  -0.330777  -0.245173  0.084871  3.674336  0.084
N  N59  1  0.63805941  0.80576189  0.57933614  1  -0.330668  -0.244626  -0.084139  3.674914  -0.084
N  N60  1  0.97606858  0.70860852  0.56730974  1  -0.320265  -0.245338  0.029488  3.619001  0.03
N  N61  1  0.02400015  0.29125937  0.43257153  1  -0.320628  -0.24609  -0.031775  3.61869  -0.032
O  O62  1  0.18009073  0.05051538  0.56354390  1  -0.302988  -0.551497  -0.04246  2.421066  -0.045
O  O63  1  0.81992733  0.94940559  0.43625834  1  -0.303006  -0.551046  0.043905  2.419668  0.047
O  O64  1  0.27926899  0.02553343  0.73571119  1  -0.295609  -0.507403  -0.004259  2.189477  -0.005
O  O65  1  0.72037623  0.97463975  0.26429748  1  -0.295372  -0.507232  0.004495  2.190494  0.005
O  O66  1  0.46848457  0.19295337  0.79072861  1  -0.395842  -0.622574  0.002379  2.383569  0.002
O  O67  1  0.53153618  0.80713659  0.20929284  1  -0.395576  -0.622393  -0.00259  2.382775  -0.003
O  O68  1  0.63612029  0.01382917  0.72357313  1  -0.294648  -0.552194  0.007763  2.342434  0.007
O  O69  1  0.36379119  0.98620297  0.27636154  1  -0.2949  -0.552168  -0.009379  2.343393  -0.009
O  O70  1  0.93538874  0.61387393  0.90604390  1  -0.311993  -0.518927  0.007603  2.207597  0.008
O  O71  1  0.06463903  0.38638499  0.09393275  1  -0.312068  -0.518762  -0.007451  2.20593  -0.008
O  O72  1  0.79384442  0.76200988  0.79771106  1  -0.348277  -0.584765  0.043034  2.449576  0.046
O  O73  1  0.20612472  0.23805286  0.20219278  1  -0.348295  -0.584976  -0.0418  2.45027  -0.044
O  O74  1  0.27049069  0.49778914  0.82429563  1  -0.37201  -0.616701  0.000562  2.199401  0.001
O  O75  1  0.72952874  0.50233528  0.17579074  1  -0.37165  -0.616536  -0.000574  2.199221  -0.001
O  O76  1  0.16200126  0.33914766  0.80699973  1  -0.356166  -0.608701  0.000561  2.153855  0.001
O  O77  1  0.83792377  0.66098554  0.19325603  1  -0.355914  -0.608334  -0.000593  2.152999  -0.001
O  O78  1  0.55334880  0.37996171  0.88936970  1  -0.369886  -0.581659  -3.4e-05  2.259621  0.0
O  O79  1  0.44669129  0.62012933  0.11064099  1  -0.369721  -0.581879  3e-05  2.259028  0.0
O  O80  1  0.66572902  0.54097458  0.89936327  1  -0.374398  -0.607444  -0.000192  2.305208  0.0
O  O81  1  0.33434495  0.45906808  0.10070769  1  -0.374748  -0.607962  0.00019  2.303678  0.0
O  O82  1  0.49696646  0.13716901  0.06511009  1  -0.633026  -0.839564  5.4e-05  2.081357  0.0
O  O83  1  0.50311786  0.86293519  0.93493280  1  -0.633355  -0.840292  -6.1e-05  2.080236  0.0
O  O84  1  0.23892289  0.08974715  0.97858526  1  -0.591308  -0.821041  -0.000121  2.042491  0.0
O  O85  1  0.76123015  0.91023944  0.02149632  1  -0.59153  -0.821058  0.000125  2.041929  0.0
O  O86  1  0.06325847  0.03751302  0.31547866  1  -0.570394  -0.739881  0.044277  2.108173  0.044
O  O87  1  0.93673046  0.96241663  0.68410417  1  -0.570744  -0.739958  -0.044013  2.108389  -0.043
