# generated using pymatgen
data_CdH13C14N5O3
_symmetry_space_group_name_H-M   'P 1'
_cell_length_a   9.75058549
_cell_length_b   10.35782688
_cell_length_c   22.84492039
_cell_angle_alpha   90.00023700
_cell_angle_beta   89.99975621
_cell_angle_gamma   89.99940210
_symmetry_Int_Tables_number   1
_chemical_formula_structural   CdH13C14N5O3
_chemical_formula_sum   'Cd4 H52 C56 N20 O12'
_cell_volume   2307.21991420
_cell_formula_units_Z   4
loop_
 _symmetry_equiv_pos_site_id
 _symmetry_equiv_pos_as_xyz
  1  'x, y, z'
loop_
 _atom_site_type_symbol
 _atom_site_label
 _atom_site_symmetry_multiplicity
 _atom_site_fract_x
 _atom_site_fract_y
 _atom_site_fract_z
 _atom_site_occupancy
 _atom_site_pbe_bader_charge
 _atom_site_pbe_bader_spin_density
 _atom_site_pbe_cm5_charge
 _atom_site_pbe_ddec_charge
 _atom_site_pbe_ddec_spin_density
 _atom_site_pbe_ddec_sum_bond_order
 _atom_site_pbe_magmom
Cd  Cd0  1  0.49601298  0.06964904  0.90342392  1  1.236611  0  0.758308  0.734621  0  2.318287  0
Cd  Cd1  1  0.00399494  0.93035156  0.40342440  1  1.236497  0  0.758312  0.734633  0  2.318418  0
Cd  Cd2  1  0.50399515  0.56965489  0.59657451  1  1.236537  0  0.758291  0.73452  0  2.318532  0
Cd  Cd3  1  0.99601833  0.43035070  0.09657993  1  1.236851  0  0.758312  0.734657  0  2.318483  0
H  H4  1  0.29642001  0.01060330  0.02192662  1  0.167508  0  0.125232  0.113851  0  1.016497  0
H  H5  1  0.20358632  0.98937423  0.52192451  1  0.167835  0  0.125123  0.113799  0  1.016511  0
H  H6  1  0.70360237  0.51061688  0.47807523  1  0.177426  0  0.125105  0.113712  0  1.016458  0
H  H7  1  0.79642502  0.48938184  0.97807684  1  0.167679  0  0.125189  0.113796  0  1.016535  0
H  H8  1  0.13114897  0.13662888  0.08808825  1  0.144934  0  0.121488  0.099208  0  1.001497  0
H  H9  1  0.36883642  0.86334158  0.58808770  1  0.145297  0  0.121516  0.099277  0  1.001535  0
H  H10  1  0.86888319  0.63662872  0.41191907  1  0.144702  0  0.121578  0.099273  0  1.001448  0
H  H11  1  0.63116411  0.36336162  0.91191299  1  0.145066  0  0.121488  0.099242  0  1.001522  0
H  H12  1  0.11752360  0.43210065  0.96609158  1  0.112427  0  0.120365  0.101051  0  1.028998  0
H  H13  1  0.38248186  0.56788705  0.46608000  1  0.111941  0  0.120421  0.101207  0  1.028945  0
H  H14  1  0.88249765  0.93210437  0.53391580  1  0.112238  0  0.120382  0.101031  0  1.028995  0
H  H15  1  0.61753779  0.06788998  0.03391100  1  0.112391  0  0.120419  0.101085  0  1.028941  0
H  H16  1  0.27279906  0.53177202  0.88990693  1  0.03251  0  0.099166  0.143457  0  0.98276  0
H  H17  1  0.22716998  0.46822265  0.38989599  1  0.032609  0  0.099136  0.143415  0  0.98274  0
H  H18  1  0.72717055  0.03179112  0.61008925  1  0.032122  0  0.099174  0.143474  0  0.982913  0
H  H19  1  0.77282336  0.96822715  0.11009746  1  0.032384  0  0.099155  0.143432  0  0.982863  0
H  H20  1  0.12914265  0.44601131  0.86278284  1  0.011706  0  0.096745  0.135971  0  0.990202  0
H  H21  1  0.37083068  0.55396282  0.36276557  1  0.011722  0  0.096843  0.136143  0  0.990138  0
H  H22  1  0.87083126  0.94604222  0.63721975  1  0.011773  0  0.096793  0.136099  0  0.990142  0
H  H23  1  0.62916760  0.05397246  0.13722672  1  0.011688  0  0.096833  0.136101  0  0.990194  0
H  H24  1  0.27987517  0.46422465  0.81850981  1  0.092362  0  0.101313  0.149675  0  1.016027  0
H  H25  1  0.22008511  0.53577222  0.31849944  1  0.092134  0  0.101409  0.149761  0  1.016043  0
H  H26  1  0.72008621  0.96424578  0.68148712  1  0.092139  0  0.101296  0.149664  0  1.016152  0
H  H27  1  0.77990723  0.03576547  0.18149457  1  0.091951  0  0.101369  0.14972  0  1.01606  0
H  H28  1  0.81377022  0.16956452  0.75059928  1  0.104594  0  0.115151  0.118299  0  0.980798  0
H  H29  1  0.68618379  0.83040879  0.25060658  1  0.103862  0  0.115093  0.118198  0  0.980758  0
H  H30  1  0.18619775  0.66959021  0.74940021  1  0.104641  0  0.115152  0.118332  0  0.980649  0
H  H31  1  0.31379786  0.33042239  0.24939626  1  0.10452  0  0.115102  0.118248  0  0.980672  0
H  H32  1  0.92471617  0.25556905  0.65772737  1  0.10032  0  0.115517  0.121591  0  0.977934  0
H  H33  1  0.57525486  0.74441300  0.15772954  1  0.100087  0  0.115486  0.121622  0  0.977846  0
H  H34  1  0.07528770  0.75558894  0.84228058  1  0.100323  0  0.115386  0.121532  0  0.977938  0
H  H35  1  0.42472063  0.24443037  0.34227841  1  0.100784  0  0.115485  0.12159  0  0.977926  0
H  H36  1  0.79746044  0.42305235  0.59995771  1  0.106616  0  0.115343  0.080278  0  1.012622  0
H  H37  1  0.70253251  0.57694457  0.09995709  1  0.106348  0  0.115334  0.080259  0  1.01266  0
H  H38  1  0.20255579  0.92306103  0.90004658  1  0.106488  0  0.115387  0.08028  0  1.012634  0
H  H39  1  0.29743883  0.07697719  0.40005231  1  0.106628  0  0.115363  0.080286  0  1.012668  0
H  H40  1  0.47475019  0.42539466  0.71789724  1  0.135578  0  0.120484  0.095885  0  1.01307  0
H  H41  1  0.02522409  0.57459735  0.21790580  1  0.135991  0  0.120435  0.095861  0  1.013075  0
H  H42  1  0.52522602  0.92541566  0.78208649  1  0.135857  0  0.120443  0.095868  0  1.013261  0
H  H43  1  0.97476984  0.07459562  0.28209835  1  0.135903  0  0.120514  0.095951  0  1.013073  0
H  H44  1  0.58499233  0.70988000  0.03403766  1  0.03469  0  0.088449  0.136084  0  1.01871  0
H  H45  1  0.91504003  0.29011048  0.53404740  1  0.034756  0  0.088503  0.136162  0  1.018829  0
H  H46  1  0.41505640  0.20990641  0.46595227  1  0.034636  0  0.088448  0.136159  0  1.018917  0
H  H47  1  0.08495317  0.79011315  0.96596586  1  0.035088  0  0.088379  0.136031  0  1.018709  0
H  H48  1  0.74588402  0.72605535  0.99546872  1  0.044988  0  0.093765  0.155007  0  1.012158  0
H  H49  1  0.75413812  0.27394064  0.49547883  1  0.045119  0  0.093661  0.154838  0  1.012293  0
H  H50  1  0.25415199  0.22606709  0.50451598  1  0.045292  0  0.093726  0.154974  0  1.012265  0
H  H51  1  0.24585856  0.77396434  0.00452654  1  0.04529  0  0.093685  0.154907  0  1.012269  0
H  H52  1  0.60425514  0.64963053  0.96147702  1  0.04461  0  0.095152  0.144135  0  0.995447  0
H  H53  1  0.89576517  0.35036223  0.46148648  1  0.044676  0  0.095069  0.144051  0  0.995318  0
H  H54  1  0.39577665  0.14964324  0.53850711  1  0.044922  0  0.095089  0.144062  0  0.995207  0
H  H55  1  0.10422650  0.85037114  0.03852515  1  0.044361  0  0.09514  0.14419  0  0.995301  0
C  C56  1  0.57443063  0.38545720  0.70615267  1  0.520685  0  0.061783  0.084733  0  3.881348  0
C  C57  1  0.92553906  0.61453884  0.20616033  1  0.520138  0  0.06186  0.084754  0  3.881277  0
C  C58  1  0.42555118  0.88547439  0.79383711  1  0.520392  0  0.061805  0.084738  0  3.881316  0
C  C59  1  0.07444516  0.11453672  0.29384082  1  0.519975  0  0.061746  0.084595  0  3.881273  0
C  C60  1  0.63731755  0.29187954  0.74136341  1  -0.065596  0  -0.005284  -0.046667  0  3.9591  0
C  C61  1  0.86264780  0.70810816  0.24137313  1  -0.065044  0  -0.005301  -0.046751  0  3.958913  0
C  C62  1  0.36265716  0.79190082  0.75862622  1  -0.065277  0  -0.005243  -0.046685  0  3.9591  0
C  C63  1  0.13733223  0.20810994  0.25862950  1  -0.065447  0  -0.005262  -0.046678  0  3.959216  0
C  C64  1  0.25438304  0.10448509  0.00971310  1  0.511167  0  0.058113  0.056164  0  3.935086  0
C  C65  1  0.24562439  0.89549908  0.50970591  1  0.510678  0  0.058238  0.056144  0  3.935189  0
C  C66  1  0.74563719  0.60449745  0.49029198  1  0.501169  0  0.058323  0.056358  0  3.9349  0
C  C67  1  0.75438806  0.39550912  0.99029309  1  0.510461  0  0.058254  0.056331  0  3.935336  0
C  C68  1  0.16500429  0.17347795  0.04575454  1  0.441734  0  0.045892  0.025767  0  3.930924  0
C  C69  1  0.33499573  0.82649692  0.54574832  1  0.441065  0  0.045941  0.025803  0  3.931028  0
C  C70  1  0.83502538  0.67348624  0.45425416  1  0.441818  0  0.045902  0.025809  0  3.931055  0
C  C71  1  0.66501344  0.32651225  0.95425099  1  0.441722  0  0.045857  0.025572  0  3.931288  0
C  C72  1  0.15812374  0.33722541  0.97757978  1  0.533764  0  0.056849  0.020414  0  3.866822  0
C  C73  1  0.34188267  0.66275854  0.47757065  1  0.534631  0  0.056755  0.020013  0  3.867147  0
C  C74  1  0.84189351  0.83723228  0.52242699  1  0.534209  0  0.056843  0.020461  0  3.866876  0
C  C75  1  0.65813379  0.16276582  0.02242271  1  0.534217  0  0.05683  0.02025  0  3.866988  0
C  C76  1  0.24959467  0.26925689  0.94100780  1  0.485482  0  0.121821  0.118932  0  3.99568  0
C  C77  1  0.25041506  0.73073443  0.44099946  1  0.485743  0  0.121791  0.119004  0  3.995475  0
C  C78  1  0.75041724  0.76926978  0.55899229  1  0.486134  0  0.121762  0.118803  0  3.995811  0
C  C79  1  0.74959650  0.23074219  0.05899533  1  0.486023  0  0.121778  0.118976  0  3.995555  0
C  C80  1  0.30081811  0.32513683  0.88635625  1  0.586508  0  0.116287  0.183678  0  3.940164  0
C  C81  1  0.19917557  0.67485491  0.38634531  1  0.587035  0  0.116333  0.183577  0  3.940077  0
C  C82  1  0.69917057  0.82515266  0.61364437  1  0.586233  0  0.116288  0.183719  0  3.940377  0
C  C83  1  0.80081921  0.17485213  0.11365070  1  0.586084  0  0.116255  0.183428  0  3.940302  0
C  C84  1  0.24183638  0.44839354  0.86302083  1  -0.024306  0  -0.237512  -0.440268  0  3.966393  0
C  C85  1  0.25814002  0.55159508  0.36300734  1  -0.02406  0  -0.237636  -0.440416  0  3.966685  0
C  C86  1  0.75813955  0.94841485  0.63697826  1  -0.02396  0  -0.237533  -0.440424  0  3.96675  0
C  C87  1  0.74185521  0.05159403  0.13698583  1  -0.023684  0  -0.237616  -0.44033  0  3.966902  0
C  C88  1  0.57148572  0.24266419  0.79594757  1  1.321665  0  0.214781  0.417019  0  4.169933  0
C  C89  1  0.92847825  0.75732405  0.29595634  1  1.322398  0  0.214833  0.417254  0  4.169609  0
C  C90  1  0.42848035  0.74268819  0.70403890  1  1.321788  0  0.214812  0.417051  0  4.169756  0
C  C91  1  0.07150632  0.25731913  0.20404943  1  1.322235  0  0.214829  0.417211  0  4.169844  0
C  C92  1  0.76485280  0.24335808  0.72373785  1  0.012293  0  -0.058854  -0.047728  0  3.928942  0
C  C93  1  0.73510651  0.75662269  0.22374403  1  0.012503  0  -0.058799  -0.047519  0  3.92864  0
C  C94  1  0.23512967  0.74338069  0.77626089  1  0.012329  0  -0.058915  -0.047789  0  3.928699  0
C  C95  1  0.26486371  0.25662928  0.27626044  1  0.012271  0  -0.058793  -0.047602  0  3.928549  0
C  C96  1  0.82520394  0.29037225  0.67270590  1  -0.065953  0  -0.082554  -0.13513  0  4.002334  0
C  C97  1  0.67477007  0.70961188  0.17270952  1  -0.064561  0  -0.082679  -0.135447  0  4.002514  0
C  C98  1  0.17479541  0.79039301  0.82729904  1  -0.065917  0  -0.082381  -0.135016  0  4.002189  0
C  C99  1  0.32520584  0.20962808  0.32730099  1  -0.065802  0  -0.082592  -0.135336  0  4.002467  0
C  C100  1  0.75540563  0.38361397  0.64042493  1  0.487905  0  0.048474  0.09002  0  3.961209  0
C  C101  1  0.74457475  0.61638239  0.14042559  1  0.487079  0  0.048483  0.090069  0  3.961214  0
C  C102  1  0.24459979  0.88362766  0.85957886  1  0.487646  0  0.04832  0.089948  0  3.961453  0
C  C103  1  0.25539920  0.11639954  0.35958169  1  0.487271  0  0.048466  0.090074  0  3.961389  0
C  C104  1  0.63361282  0.72784290  0.99157258  1  -0.059446  0  -0.250079  -0.516212  0  3.916049  0
C  C105  1  0.86641140  0.27215306  0.49158286  1  -0.059445  0  -0.249923  -0.516019  0  3.916098  0
C  C106  1  0.36642010  0.22785269  0.50841299  1  -0.059808  0  -0.25001  -0.516214  0  3.915835  0
C  C107  1  0.13358633  0.77216140  0.00842864  1  -0.059908  0  -0.249979  -0.516131  0  3.915848  0
C  C108  1  0.58373309  0.85422955  0.96589002  1  1.552618  0  0.179225  0.661034  0  4.184197  0
C  C109  1  0.91629027  0.14576616  0.46589777  1  1.552575  0  0.17922  0.660988  0  4.184133  0
C  C110  1  0.41628703  0.35424107  0.53410453  1  1.55239  0  0.179173  0.660982  0  4.184081  0
C  C111  1  0.08373358  0.64576169  0.03411351  1  1.553025  0  0.179239  0.660975  0  4.184583  0
N  N112  1  0.63223014  0.42963392  0.65678105  1  -1.24616  0  -0.327559  -0.22615  0  3.510395  0
N  N113  1  0.86775731  0.57036647  0.15678265  1  -1.246379  0  -0.327452  -0.226023  0  3.510128  0
N  N114  1  0.36776653  0.92964536  0.84321581  1  -1.246433  0  -0.32753  -0.226185  0  3.510386  0
N  N115  1  0.13223359  0.07037299  0.34321843  1  -1.245936  0  -0.327569  -0.226106  0  3.510154  0
N  N116  1  0.29566332  0.15187403  0.95834804  1  -1.208215  0  -0.303616  -0.238929  0  3.458132  0
N  N117  1  0.20435040  0.84811842  0.45834045  1  -1.208268  0  -0.303618  -0.238889  0  3.458366  0
N  N118  1  0.70434896  0.65188620  0.54165403  1  -1.20789  0  -0.303669  -0.239008  0  3.458185  0
N  N119  1  0.79566283  0.34812366  0.04165717  1  -1.207978  0  -0.303631  -0.238961  0  3.458412  0
N  N120  1  0.11833774  0.28976502  0.02921754  1  -1.205889  0  -0.304372  -0.177616  0  3.502165  0
N  N121  1  0.38166034  0.71021259  0.52920882  1  -1.206314  0  -0.304443  -0.177472  0  3.502431  0
N  N122  1  0.88168952  0.78976822  0.47079092  1  -1.206364  0  -0.304462  -0.177637  0  3.502308  0
N  N123  1  0.61835124  0.21022753  0.97078679  1  -1.206299  0  -0.304374  -0.177381  0  3.502349  0
N  N124  1  0.40344008  0.26384057  0.86183509  1  -0.770084  0  -0.216257  -0.146897  0  3.615332  0
N  N125  1  0.09655068  0.73615769  0.36183106  1  -0.770585  0  -0.216287  -0.146892  0  3.615446  0
N  N126  1  0.59655343  0.76385081  0.63816149  1  -0.770092  0  -0.216204  -0.146778  0  3.615518  0
N  N127  1  0.90344337  0.23616291  0.13816986  1  -0.769953  0  -0.216179  -0.146748  0  3.61536  0
N  N128  1  0.45977196  0.31198434  0.81299795  1  -0.668272  0  -0.253239  -0.343015  0  3.265913  0
N  N129  1  0.04020477  0.68801344  0.31299791  1  -0.668403  0  -0.253187  -0.342955  0  3.266012  0
N  N130  1  0.54020662  0.81199944  0.68699522  1  -0.668107  0  -0.253205  -0.342944  0  3.265961  0
N  N131  1  0.95978678  0.18801959  0.18700293  1  -0.668951  0  -0.253176  -0.342906  0  3.266316  0
O  O132  1  0.62471276  0.14579240  0.82114734  1  -1.143516  0  -0.31318  -0.491181  0  2.205345  0
O  O133  1  0.87524591  0.85418450  0.32116253  1  -1.143783  0  -0.313263  -0.491368  0  2.205103  0
O  O134  1  0.37524318  0.64583402  0.67883241  1  -1.143701  0  -0.313251  -0.491259  0  2.20514  0
O  O135  1  0.12473340  0.35419237  0.17884122  1  -1.143512  0  -0.313269  -0.491367  0  2.205047  0
O  O136  1  0.64881110  0.90124372  0.92225315  1  -1.163413  0  -0.361833  -0.56645  0  2.096867  0
O  O137  1  0.85121357  0.09876507  0.42225616  1  -1.163179  0  -0.361891  -0.566455  0  2.096455  0
O  O138  1  0.35122590  0.40122730  0.57775199  1  -1.163246  0  -0.361763  -0.566377  0  2.096867  0
O  O139  1  0.14880981  0.59878071  0.07776379  1  -1.163896  0  -0.361812  -0.566467  0  2.096858  0
O  O140  1  0.47803135  0.90800879  0.98798438  1  -1.202337  0  -0.355385  -0.610641  0  2.140752  0
O  O141  1  0.02198319  0.09198009  0.48799519  1  -1.202809  0  -0.355326  -0.610608  0  2.141103  0
O  O142  1  0.52196762  0.40805003  0.51200194  1  -1.202448  0  -0.355347  -0.610599  0  2.140946  0
O  O143  1  0.97806591  0.59195086  0.01201337  1  -1.202436  0  -0.355369  -0.610577  0  2.141169  0
