# generated using pymatgen
data_CaH4C5N2O5
_symmetry_space_group_name_H-M   'P 1'
_cell_length_a   6.40065142
_cell_length_b   9.85196416
_cell_length_c   10.89181646
_cell_angle_alpha   90.00007371
_cell_angle_beta   104.02416496
_cell_angle_gamma   89.99997148
_symmetry_Int_Tables_number   1
_chemical_formula_structural   CaH4C5N2O5
_chemical_formula_sum   'Ca4 H16 C20 N8 O20'
_cell_volume   666.35509523
_cell_formula_units_Z   4
loop_
 _symmetry_equiv_pos_site_id
 _symmetry_equiv_pos_as_xyz
  1  'x, y, z'
loop_
 _atom_site_type_symbol
 _atom_site_label
 _atom_site_symmetry_multiplicity
 _atom_site_fract_x
 _atom_site_fract_y
 _atom_site_fract_z
 _atom_site_occupancy
 _atom_site_hle17_bader_spin_density
 _atom_site_hle17_ddec_charge
 _atom_site_hle17_ddec_spin_density
 _atom_site_hle17_ddec_sum_bond_order
 _atom_site_hle17_magmom
 _atom_site_hse06_10hf_bader_spin_density
 _atom_site_hse06_10hf_ddec_charge
 _atom_site_hse06_10hf_ddec_spin_density
 _atom_site_hse06_10hf_ddec_sum_bond_order
 _atom_site_hse06_10hf_magmom
 _atom_site_hse06_bader_spin_density
 _atom_site_hse06_ddec_charge
 _atom_site_hse06_ddec_spin_density
 _atom_site_hse06_ddec_sum_bond_order
 _atom_site_hse06_magmom
 _atom_site_pbe_bader_spin_density
 _atom_site_pbe_cm5_charge
 _atom_site_pbe_ddec_charge
 _atom_site_pbe_ddec_spin_density
 _atom_site_pbe_ddec_sum_bond_order
 _atom_site_pbe_magmom
Ca  Ca0  1  0.08820571  0.55628309  0.17194785  1  0  1.544381  0  1.061406  0  0  1.404813  0  1.403259  0  0  1.44884  0  1.360979  0  0  0.881424  1.3718  0  1.433459  0
Ca  Ca1  1  0.41179360  0.05628438  0.32805168  1  0  1.544437  0  1.061339  0  0  1.404857  0  1.403225  0  0  1.448875  0  1.360951  0  0  0.88144  1.371849  0  1.433432  0
Ca  Ca2  1  0.91179457  0.44371603  0.82805222  1  0  1.544399  0  1.061384  0  0  1.404827  0  1.403249  0  0  1.448846  0  1.360975  0  0  0.881427  1.371801  0  1.43345  0
Ca  Ca3  1  0.58820506  0.94371576  0.67194818  1  0  1.544442  0  1.061349  0  0  1.40485  0  1.403254  0  0  1.448873  0  1.360978  0  0  0.881438  1.371841  0  1.43346  0
H  H4  1  0.53616362  0.62472516  0.11294592  1  0  0.432721  0  0.861648  0  0  0.401018  0  0.926559  0  0  0.410867  0  0.912253  0  0  0.309347  0.393966  0  0.936821  0
H  H5  1  0.96383623  0.12472347  0.38705501  1  0  0.432751  0  0.861626  0  0  0.401048  0  0.92653  0  0  0.410897  0  0.912224  0  0  0.309365  0.393999  0  0.936786  0
H  H6  1  0.46383504  0.37527599  0.88705393  1  0  0.432738  0  0.861638  0  0  0.401037  0  0.926542  0  0  0.410886  0  0.912236  0  0  0.309362  0.393984  0  0.936806  0
H  H7  1  0.03616406  0.87527565  0.61294599  1  0  0.432761  0  0.861618  0  0  0.401054  0  0.926533  0  0  0.410904  0  0.912225  0  0  0.309361  0.394004  0  0.936791  0
H  H8  1  0.35927813  0.60578950  0.98211221  1  0  0.433402  0  0.854567  0  0  0.402353  0  0.920817  0  0  0.412807  0  0.90535  0  0  0.312208  0.394878  0  0.931889  0
H  H9  1  0.14072265  0.10579043  0.51788764  1  0  0.43342  0  0.854532  0  0  0.402365  0  0.920793  0  0  0.41282  0  0.905325  0  0  0.312219  0.394893  0  0.931863  0
H  H10  1  0.64072053  0.39421064  0.01788765  1  0  0.433395  0  0.854574  0  0  0.40234  0  0.920834  0  0  0.412794  0  0.905368  0  0  0.312203  0.394864  0  0.931909  0
H  H11  1  0.85927763  0.89421073  0.48211336  1  0  0.433393  0  0.854606  0  0  0.402334  0  0.920846  0  0  0.412789  0  0.905379  0  0  0.312191  0.394861  0  0.931918  0
H  H12  1  0.78803623  0.68514791  0.55513482  1  0  0.088857  0  0.980975  0  0  0.095573  0  1.049274  0  0  0.099096  0  1.045136  0  0  0.142169  0.093128  0  1.051872  0
H  H13  1  0.71195863  0.18514842  0.94486463  1  0  0.088844  0  0.980961  0  0  0.09556  0  1.049256  0  0  0.099074  0  1.045142  0  0  0.142153  0.093108  0  1.051853  0
H  H14  1  0.21195758  0.31485020  0.44486252  1  0  0.088864  0  0.980991  0  0  0.095589  0  1.049265  0  0  0.099114  0  1.045124  0  0  0.142174  0.093142  0  1.051863  0
H  H15  1  0.28804165  0.81485578  0.05513637  1  0  0.088769  0  0.981129  0  0  0.095571  0  1.049311  0  0  0.09908  0  1.045206  0  0  0.142148  0.093121  0  1.051909  0
H  H16  1  0.76161391  0.60043876  0.33119842  1  0  0.311318  0  0.941826  0  0  0.285884  0  1.009716  0  0  0.296286  0  1.000997  0  0  0.315636  0.278596  0  1.015871  0
H  H17  1  0.73838593  0.10043885  0.16880157  1  0  0.311296  0  0.941862  0  0  0.285848  0  1.009776  0  0  0.29625  0  1.001056  0  0  0.315622  0.278557  0  1.015931  0
H  H18  1  0.23838474  0.39956037  0.66880052  1  0  0.311273  0  0.941889  0  0  0.285815  0  1.009812  0  0  0.296216  0  1.0011  0  0  0.315626  0.278527  0  1.015965  0
H  H19  1  0.26161596  0.89956027  0.83119965  1  0  0.311232  0  0.94196  0  0  0.28582  0  1.009807  0  0  0.296223  0  1.001091  0  0  0.315639  0.278532  0  1.015963  0
C  C20  1  0.73451823  0.32441357  0.28645103  1  0  0.674374  0  3.907513  0  0  0.619152  0  4.214952  0  0  0.654518  0  4.203062  0  0  0.236103  0.595189  0  4.222284  0
C  C21  1  0.76548312  0.82441025  0.21354667  1  0  0.674159  0  3.907778  0  0  0.618904  0  4.215254  0  0  0.654272  0  4.203364  0  0  0.235988  0.594947  0  4.222581  0
C  C22  1  0.26548527  0.67558454  0.71355041  1  0  0.674398  0  3.907578  0  0  0.619141  0  4.215046  0  0  0.654507  0  4.203159  0  0  0.236095  0.595179  0  4.222377  0
C  C23  1  0.23451553  0.17558887  0.78645227  1  0  0.67422  0  3.907692  0  0  0.618971  0  4.215179  0  0  0.654341  0  4.203287  0  0  0.236006  0.595013  0  4.222508  0
C  C24  1  0.72768763  0.39799390  0.40356381  1  0  -0.003499  0  3.667727  0  0  -0.019845  0  3.9329  0  0  -0.021701  0  3.950399  0  0  0.094145  -0.018758  0  3.921399  0
C  C25  1  0.77231216  0.89799448  0.09643834  1  0  -0.003427  0  3.66783  0  0  -0.019743  0  3.932957  0  0  -0.021598  0  3.950452  0  0  0.094183  -0.018663  0  3.921451  0
C  C26  1  0.27231105  0.60200522  0.59643696  1  0  -0.003534  0  3.667805  0  0  -0.019807  0  3.932916  0  0  -0.021664  0  3.950409  0  0  0.094171  -0.018719  0  3.921412  0
C  C27  1  0.22768652  0.10200668  0.90356243  1  0  -0.003427  0  3.667762  0  0  -0.019771  0  3.932951  0  0  -0.021636  0  3.950449  0  0  0.094171  -0.018687  0  3.921442  0
C  C28  1  0.69164400  0.23237022  0.59201288  1  0  0.671521  0  3.919736  0  0  0.620405  0  4.218831  0  0  0.656349  0  4.206646  0  0  0.228952  0.59601  0  4.226341  0
C  C29  1  0.80836059  0.73236616  0.90799347  1  0  0.67159  0  3.91956  0  0  0.62043  0  4.218712  0  0  0.656374  0  4.206526  0  0  0.228912  0.596034  0  4.226222  0
C  C30  1  0.30835467  0.76762992  0.40798697  1  0  0.671511  0  3.919736  0  0  0.620412  0  4.218811  0  0  0.656353  0  4.206627  0  0  0.228964  0.596018  0  4.226324  0
C  C31  1  0.19163967  0.26763499  0.09200568  1  0  0.671487  0  3.919688  0  0  0.620353  0  4.218804  0  0  0.656292  0  4.20662  0  0  0.228898  0.595959  0  4.226311  0
C  C32  1  0.76651825  0.57949789  0.52631955  1  0  0.25938  0  3.678717  0  0  0.195456  0  3.966179  0  0  0.208721  0  3.977502  0  0  0.16377  0.187049  0  3.957762  0
C  C33  1  0.73347825  0.07950047  0.97368001  1  0  0.259378  0  3.678491  0  0  0.195446  0  3.965983  0  0  0.208705  0  3.977308  0  0  0.163712  0.187045  0  3.957556  0
C  C34  1  0.23347397  0.42050123  0.47367942  1  0  0.259288  0  3.678781  0  0  0.195369  0  3.966229  0  0  0.208631  0  3.977557  0  0  0.163692  0.186964  0  3.95781  0
C  C35  1  0.26652686  0.92050373  0.02632165  1  0  0.259274  0  3.678791  0  0  0.195309  0  3.966223  0  0  0.208567  0  3.97755  0  0  0.163672  0.186904  0  3.957797  0
C  C36  1  0.72450232  0.36094148  0.52745359  1  0  0.004916  0  3.727146  0  0  0.000469  0  3.98841  0  0  -0.000227  0  4.006209  0  0  0.090496  0.000738  0  3.976494  0
C  C37  1  0.77549735  0.86094159  0.97254857  1  0  0.004869  0  3.727191  0  0  0.00044  0  3.988442  0  0  -0.000256  0  4.006239  0  0  0.090488  0.000713  0  3.976521  0
C  C38  1  0.27549636  0.63905662  0.47254811  1  0  0.004968  0  3.72715  0  0  0.000483  0  3.988428  0  0  -0.000204  0  4.006215  0  0  0.090488  0.000749  0  3.976516  0
C  C39  1  0.22450455  0.13905855  0.02745265  1  0  0.004857  0  3.727241  0  0  0.000399  0  3.98853  0  0  -0.000278  0  4.006304  0  0  0.090487  0.000669  0  3.976605  0
N  N40  1  0.75300563  0.47564759  0.60214623  1  0  -0.484702  0  3.175045  0  0  -0.439191  0  3.463688  0  0  -0.456771  0  3.480683  0  0  -0.414203  -0.426709  0  3.45158  0
N  N41  1  0.74699234  0.97564659  0.89785122  1  0  -0.484722  0  3.174806  0  0  -0.439192  0  3.46344  0  0  -0.456771  0  3.480437  0  0  -0.414175  -0.426711  0  3.451307  0
N  N42  1  0.24698980  0.52435254  0.39785226  1  0  -0.484776  0  3.174952  0  0  -0.439251  0  3.463594  0  0  -0.456834  0  3.480587  0  0  -0.414219  -0.426773  0  3.451494  0
N  N43  1  0.25300792  0.02435558  0.10214793  1  0  -0.48462  0  3.174886  0  0  -0.439089  0  3.463523  0  0  -0.456671  0  3.480511  0  0  -0.414151  -0.426624  0  3.451434  0
N  N44  1  0.75317829  0.53684134  0.40757782  1  0  -0.295353  0  3.443991  0  0  -0.231639  0  3.68247  0  0  -0.247801  0  3.698074  0  0  -0.363549  -0.220899  0  3.671865  0
N  N45  1  0.74682321  0.03684132  0.09242508  1  0  -0.295324  0  3.44393  0  0  -0.231631  0  3.682459  0  0  -0.247784  0  3.698049  0  0  -0.363541  -0.2209  0  3.671863  0
N  N46  1  0.24682037  0.46315676  0.59242203  1  0  -0.295224  0  3.444036  0  0  -0.231511  0  3.682509  0  0  -0.247673  0  3.698118  0  0  -0.363502  -0.220769  0  3.671894  0
N  N47  1  0.25318030  0.96315881  0.90757637  1  0  -0.295169  0  3.443901  0  0  -0.231499  0  3.682441  0  0  -0.247648  0  3.698028  0  0  -0.363524  -0.22077  0  3.671849  0
O  O48  1  0.77381176  0.39194216  0.19552868  1  0  -0.652247  0  1.934127  0  0  -0.592356  0  2.165821  0  0  -0.615966  0  2.154291  0  0  -0.31187  -0.575835  0  2.173544  0
O  O49  1  0.72619127  0.89194407  0.30447575  1  0  -0.652254  0  1.934015  0  0  -0.592282  0  2.165624  0  0  -0.615904  0  2.154106  0  0  -0.311865  -0.575764  0  2.173352  0
O  O50  1  0.22619014  0.60805696  0.80447253  1  0  -0.652241  0  1.934125  0  0  -0.59236  0  2.165838  0  0  -0.615966  0  2.154305  0  0  -0.311878  -0.575839  0  2.173561  0
O  O51  1  0.27380899  0.10805506  0.69552341  1  0  -0.652278  0  1.93403  0  0  -0.592301  0  2.165624  0  0  -0.615926  0  2.154108  0  0  -0.311871  -0.575786  0  2.173354  0
O  O52  1  0.74924247  0.23098682  0.71181377  1  0  -0.658605  0  1.925985  0  0  -0.606805  0  2.163253  0  0  -0.632846  0  2.155122  0  0  -0.319746  -0.588307  0  2.168161  0
O  O53  1  0.75075720  0.73098666  0.78818548  1  0  -0.65872  0  1.92561  0  0  -0.606913  0  2.162908  0  0  -0.632958  0  2.154779  0  0  -0.319817  -0.588418  0  2.167809  0
O  O54  1  0.25075621  0.76901332  0.28818700  1  0  -0.658542  0  1.925978  0  0  -0.606786  0  2.163277  0  0  -0.632824  0  2.155147  0  0  -0.319734  -0.588287  0  2.168188  0
O  O55  1  0.24924305  0.26901347  0.21181276  1  0  -0.658673  0  1.925663  0  0  -0.606877  0  2.162949  0  0  -0.632921  0  2.154823  0  0  -0.319789  -0.588382  0  2.167852  0
O  O56  1  0.60070911  0.13087368  0.52693703  1  0  -0.755444  0  2.052933  0  0  -0.687929  0  2.311038  0  0  -0.717387  0  2.299612  0  0  -0.415518  -0.666953  0  2.318114  0
O  O57  1  0.89928738  0.63087476  0.97306258  1  0  -0.755382  0  2.05312  0  0  -0.687829  0  2.311202  0  0  -0.717284  0  2.299776  0  0  -0.415414  -0.666854  0  2.318269  0
O  O58  1  0.39929117  0.86912646  0.47306396  1  0  -0.755472  0  2.052932  0  0  -0.687938  0  2.311009  0  0  -0.717396  0  2.299586  0  0  -0.415516  -0.66696  0  2.318084  0
O  O59  1  0.10070966  0.36912640  0.02693613  1  0  -0.75533  0  2.053142  0  0  -0.687799  0  2.311247  0  0  -0.717255  0  2.299827  0  0  -0.415445  -0.666823  0  2.318311  0
O  O60  1  0.70828473  0.19471354  0.28654303  1  0  -0.706055  0  2.09321  0  0  -0.638706  0  2.329549  0  0  -0.665839  0  2.319225  0  0  -0.343854  -0.619827  0  2.336473  0
O  O61  1  0.79171187  0.69471733  0.21345753  1  0  -0.70589  0  2.093441  0  0  -0.638558  0  2.329783  0  0  -0.665693  0  2.31946  0  0  -0.343781  -0.619685  0  2.336707  0
O  O62  1  0.29171717  0.80528558  0.71345911  1  0  -0.706042  0  2.093242  0  0  -0.638694  0  2.329597  0  0  -0.665833  0  2.319275  0  0  -0.343854  -0.619818  0  2.336525  0
O  O63  1  0.20828679  0.30528281  0.78654232  1  0  -0.705936  0  2.093416  0  0  -0.638588  0  2.329773  0  0  -0.665719  0  2.319448  0  0  -0.34379  -0.619715  0  2.336697  0
O  O64  1  0.38247983  0.60728701  0.07494099  1  0  -0.864973  0  1.840578  0  0  -0.808685  0  2.0248  0  0  -0.828968  0  1.994499  0  0  -0.605474  -0.794086  0  2.046023  0
O  O65  1  0.11751947  0.10728753  0.42505859  1  0  -0.86502  0  1.840557  0  0  -0.808724  0  2.024836  0  0  -0.829008  0  1.994529  0  0  -0.605501  -0.794117  0  2.046045  0
O  O66  1  0.61751884  0.39271312  0.92505886  1  0  -0.864994  0  1.840593  0  0  -0.808687  0  2.024824  0  0  -0.82897  0  1.994523  0  0  -0.60549  -0.794089  0  2.04605  0
O  O67  1  0.88248081  0.89271261  0.57494241  1  0  -0.865007  0  1.840611  0  0  -0.808705  0  2.024848  0  0  -0.828988  0  1.994541  0  0  -0.605473  -0.794103  0  2.046075  0
