# generated using pymatgen
data_Zn4H2C24S4O13F6
_symmetry_space_group_name_H-M   'P 1'
_cell_length_a   19.68814001
_cell_length_b   19.75579008
_cell_length_c   33.40571778
_cell_angle_alpha   78.97990629
_cell_angle_beta   79.17188931
_cell_angle_gamma   63.91566456
_symmetry_Int_Tables_number   1
_chemical_formula_structural   Zn4H2C24S4O13F6
_chemical_formula_sum   'Zn16 H8 C96 S16 O52 F24'
_cell_volume   11375.02577891
_cell_formula_units_Z   4
loop_
 _symmetry_equiv_pos_site_id
 _symmetry_equiv_pos_as_xyz
  1  'x, y, z'
loop_
 _atom_site_type_symbol
 _atom_site_label
 _atom_site_symmetry_multiplicity
 _atom_site_fract_x
 _atom_site_fract_y
 _atom_site_fract_z
 _atom_site_occupancy
 _atom_site_pbe_bader_charge
 _atom_site_pbe_bader_spin_density
 _atom_site_pbe_cm5_charge
 _atom_site_pbe_ddec_charge
 _atom_site_pbe_ddec_spin_density
 _atom_site_pbe_ddec_sum_bond_order
 _atom_site_pbe_magmom
Zn  Zn0  1  0.05507847  0.40113669  0.47813954  1  1.314081  0  0.671824  0.969174  0  2.346904  0
Zn  Zn1  1  0.98442333  0.48359301  0.56050870  1  1.314741  0  0.675996  0.967463  0  2.361407  0
Zn  Zn2  1  0.05950563  0.56052179  0.48260535  1  1.321825  0  0.676633  0.968737  0  2.371994  0
Zn  Zn3  1  0.90076886  0.55530181  0.47900221  1  1.323229  0  0.676662  0.968988  0  2.370741  0
Zn  Zn4  1  0.69480128  0.34876920  0.27198109  1  1.312752  0  0.671594  0.969001  0  2.346501  0
Zn  Zn5  1  0.69008502  0.18907031  0.26639256  1  1.31511  0  0.67393  0.968673  0  2.353653  0
Zn  Zn6  1  0.76786953  0.26677136  0.18990042  1  1.321815  0  0.676698  0.969215  0  2.370553  0
Zn  Zn7  1  0.84848617  0.19453064  0.27174030  1  1.322414  0  0.678842  0.968713  0  2.378378  0
Zn  Zn8  1  0.26576427  0.76618773  0.68955994  1  1.315806  0  0.676132  0.966872  0  2.36442  0
Zn  Zn9  1  0.34916463  0.69612574  0.77170745  1  1.315598  0  0.674381  0.96934  0  2.352039  0
Zn  Zn10  1  0.19341120  0.84876898  0.77122945  1  1.318479  0  0.674356  0.969263  0  2.365858  0
Zn  Zn11  1  0.19054862  0.68929140  0.76743728  1  1.321369  0  0.676819  0.96895  0  2.371273  0
Zn  Zn12  1  0.55960790  0.06119349  0.98364126  1  1.315932  0  0.673868  0.96817  0  2.353655  0
Zn  Zn13  1  0.40151311  0.05407225  0.97750589  1  1.320542  0  0.676278  0.967876  0  2.359642  0
Zn  Zn14  1  0.55643827  0.90122453  0.97878329  1  1.318671  0  0.67439  0.969395  0  2.364947  0
Zn  Zn15  1  0.48211637  0.98327459  0.06011851  1  1.32235  0  0.676513  0.968966  0  2.370488  0
H  H16  1  0.74879799  0.45173746  0.35010755  1  0.173873  0  0.122201  0.153112  0  0.972573  0
H  H17  1  0.00106903  0.29858550  0.39989423  1  0.177086  0  0.122317  0.153318  0  0.972614  0
H  H18  1  0.20050700  0.70043044  0.59924194  1  0.129983  0  0.123687  0.15495  0  0.970748  0
H  H19  1  0.04957844  0.54966428  0.65070928  1  0.133724  0  0.12396  0.155183  0  0.970342  0
H  H20  1  0.65075203  0.15092378  0.04947120  1  0.121762  0  0.12303  0.154209  0  0.971621  0
H  H21  1  0.59936995  0.09897085  0.20053140  1  0.121823  0  0.123064  0.154399  0  0.971206  0
H  H22  1  0.29888438  0.00051534  0.89970079  1  0.103942  0  0.12375  0.155588  0  0.969865  0
H  H23  1  0.45125032  0.74927420  0.85011309  1  0.180194  0  0.123062  0.154356  0  0.971834  0
C  C24  1  0.06145653  0.31670889  0.56159285  1  1.60993  0  0.217239  0.630608  0  4.218081  0
C  C25  1  0.06968024  0.56981089  0.56863931  1  1.568781  0  0.230902  0.622738  0  4.165134  0
C  C26  1  0.18343191  0.43933974  0.43853463  1  1.575731  0  0.217784  0.631509  0  4.217739  0
C  C27  1  0.93747494  0.68368829  0.43870128  1  1.587682  0  0.217265  0.628106  0  4.222677  0
C  C28  1  0.93034830  0.43114877  0.43105128  1  1.58467  0  0.230647  0.622096  0  4.159916  0
C  C29  1  0.81692744  0.56112134  0.56204525  1  1.585295  0  0.217166  0.629873  0  4.21889  0
C  C30  1  0.56644423  0.31039621  0.31117962  1  1.614765  0  0.217956  0.633352  0  4.214546  0
C  C31  1  0.68170284  0.18068738  0.18051345  1  1.576675  0  0.230987  0.622547  0  4.160939  0
C  C32  1  0.68937037  0.43331368  0.18857009  1  1.603026  0  0.217431  0.630166  0  4.218481  0
C  C33  1  0.93439053  0.18843679  0.18912815  1  1.5641  0  0.217611  0.62928  0  4.221307  0
C  C34  1  0.81929935  0.31902675  0.31918001  1  1.584047  0  0.23116  0.622457  0  4.163839  0
C  C35  1  0.81175272  0.06603757  0.31119912  1  1.549787  0  0.217451  0.63037  0  4.218511  0
C  C36  1  0.43304158  0.68931856  0.68829607  1  1.584371  0  0.217034  0.630229  0  4.220301  0
C  C37  1  0.31816138  0.82027000  0.81895872  1  1.59043  0  0.230642  0.622513  0  4.161485  0
C  C38  1  0.18845651  0.93308679  0.68812245  1  1.585068  0  0.216752  0.628796  0  4.219228  0
C  C39  1  0.06601251  0.81039999  0.81130135  1  1.621246  0  0.217883  0.629897  0  4.220917  0
C  C40  1  0.18037503  0.68022763  0.68133990  1  1.559934  0  0.230394  0.621574  0  4.165597  0
C  C41  1  0.31283236  0.56675086  0.81155526  1  1.598247  0  0.217491  0.63058  0  4.220042  0
C  C42  1  0.43787120  0.18363010  0.93859796  1  1.584734  0  0.217724  0.630579  0  4.219633  0
C  C43  1  0.43211141  0.92954754  0.93078254  1  1.591584  0  0.23098  0.622083  0  4.16303  0
C  C44  1  0.68373053  0.94012094  0.93902706  1  1.623849  0  0.217151  0.630106  0  4.221752  0
C  C45  1  0.56110469  0.81658765  0.06176370  1  1.59587  0  0.216713  0.629376  0  4.219726  0
C  C46  1  0.56847158  0.06914832  0.06948453  1  1.577621  0  0.230699  0.621549  0  4.161306  0
C  C47  1  0.31564359  0.06118811  0.06051898  1  1.574  0  0.217704  0.631125  0  4.217886  0
C  C48  1  0.90051183  0.40390616  0.40230963  1  0.085681  0  -0.014411  -0.111302  0  3.953548  0
C  C49  1  0.84930061  0.34642645  0.34774739  1  0.097019  0  -0.014395  -0.111832  0  3.957157  0
C  C50  1  0.82923703  0.44577974  0.38750718  1  0.48684  0  0.106693  0.269501  0  4.039463  0
C  C51  1  0.92064952  0.30457917  0.36249312  1  0.490049  0  0.107806  0.271041  0  4.03929  0
C  C52  1  0.80425421  0.41787806  0.36095072  1  -0.070855  0  -0.085747  -0.199921  0  3.970037  0
C  C53  1  0.94562152  0.33248537  0.38904876  1  -0.067826  0  -0.085537  -0.200372  0  3.968316  0
C  C54  1  0.09878253  0.59893376  0.59676930  1  0.073395  0  -0.014252  -0.112409  0  3.959486  0
C  C55  1  0.15128412  0.65115328  0.65318840  1  0.070172  0  -0.014735  -0.112921  0  3.958984  0
C  C56  1  0.14174469  0.64189364  0.58325325  1  0.467954  0  0.106782  0.269137  0  4.041479  0
C  C57  1  0.10832879  0.60819882  0.66670191  1  0.473321  0  0.107331  0.270607  0  4.04008  0
C  C58  1  0.16736717  0.66734854  0.61069277  1  0.005439  0  -0.084541  -0.198063  0  3.966785  0
C  C59  1  0.08270346  0.58274562  0.63926282  1  0.002784  0  -0.085375  -0.199163  0  3.966556  0
C  C60  1  0.30455026  0.45259513  0.40065499  1  0.529032  0  0.10516  0.25726  0  4.067832  0
C  C61  1  0.44533003  0.29715589  0.34917781  1  0.543492  0  0.104461  0.2571  0  4.069592  0
C  C62  1  0.25815944  0.41434710  0.41378460  1  -0.054797  0  -0.033902  -0.244264  0  3.962169  0
C  C63  1  0.49178302  0.33532242  0.33603961  1  -0.07428  0  -0.034785  -0.247256  0  3.964185  0
C  C64  1  0.37698568  0.33931419  0.37276344  1  -0.141507  0  -0.029259  -0.119488  0  4.119353  0
C  C65  1  0.37296341  0.41039900  0.37710256  1  -0.09973  0  -0.029002  -0.119122  0  4.117322  0
C  C66  1  0.72496238  0.57673587  0.62913918  1  0.552941  0  0.104996  0.257668  0  4.072098  0
C  C67  1  0.52496706  0.67321780  0.62115433  1  0.64481  0  0.105402  0.25858  0  4.070437  0
C  C68  1  0.74222024  0.58582999  0.58678768  1  -0.087547  0  -0.034791  -0.247132  0  3.966469  0
C  C69  1  0.50773511  0.66426975  0.66352594  1  -0.092437  0  -0.034924  -0.2467  0  3.965779  0
C  C70  1  0.60397152  0.64154126  0.60825383  1  -0.184217  0  -0.029547  -0.121694  0  4.121764  0
C  C71  1  0.64595583  0.60836884  0.64200307  1  -0.075147  0  -0.029135  -0.11985  0  4.12238  0
C  C72  1  0.07720985  0.22455084  0.62876038  1  0.549553  0  0.105717  0.258743  0  4.066941  0
C  C73  1  0.17324692  0.02521073  0.62099261  1  0.591465  0  0.104485  0.256313  0  4.07109  0
C  C74  1  0.08622154  0.24204438  0.58639092  1  -0.096763  0  -0.035344  -0.246558  0  3.963837  0
C  C75  1  0.16410208  0.00775388  0.66334735  1  -0.088083  0  -0.034508  -0.245457  0  3.966482  0
C  C76  1  0.14178863  0.10406041  0.60803436  1  -0.118415  0  -0.028891  -0.119046  0  4.119118  0
C  C77  1  0.10868516  0.14569694  0.64173820  1  -0.086823  0  -0.028917  -0.120916  0  4.119887  0
C  C78  1  0.84459762  0.80120938  0.39728819  1  0.571265  0  0.104767  0.257646  0  4.069645  0
C  C79  1  0.90457023  0.94872191  0.35278468  1  0.532227  0  0.10547  0.258952  0  4.067822  0
C  C80  1  0.91273461  0.75825053  0.41388151  1  -0.087671  0  -0.034933  -0.247044  0  3.967315  0
C  C81  1  0.83642783  0.99158516  0.33614045  1  -0.046902  0  -0.034649  -0.246937  0  3.967993  0
C  C82  1  0.90820918  0.87915330  0.37511513  1  -0.075973  0  -0.029289  -0.121809  0  4.121924  0
C  C83  1  0.84102370  0.87070728  0.37493538  1  -0.123146  0  -0.029286  -0.119744  0  4.122167  0
C  C84  1  0.65343468  0.15280613  0.15131313  1  0.044608  0  -0.014811  -0.112497  0  3.956546  0
C  C85  1  0.59673404  0.09705005  0.09867843  1  0.022782  0  -0.014723  -0.112272  0  3.955726  0
C  C86  1  0.66687410  0.16645444  0.10827549  1  0.479213  0  0.107595  0.271676  0  4.038615  0
C  C87  1  0.58325018  0.08344605  0.14171514  1  0.486896  0  0.107581  0.271872  0  4.038828  0
C  C88  1  0.63930959  0.13934714  0.08262282  1  0.052904  0  -0.085711  -0.200157  0  3.966229  0
C  C89  1  0.61083803  0.11052291  0.16737640  1  0.027862  0  -0.085616  -0.200338  0  3.966481  0
C  C90  1  0.67326764  0.52523614  0.12133033  1  0.600346  0  0.105028  0.258082  0  4.067405  0
C  C91  1  0.57667848  0.72461261  0.12894053  1  0.592524  0  0.10523  0.258442  0  4.070165  0
C  C92  1  0.66421985  0.50790021  0.16371429  1  -0.09958  0  -0.034836  -0.245829  0  3.965126  0
C  C93  1  0.58588891  0.74198088  0.08657761  1  -0.094219  0  -0.034332  -0.245981  0  3.965574  0
C  C94  1  0.60833289  0.64579128  0.14194985  1  -0.112485  0  -0.029191  -0.120597  0  4.121608  0
C  C95  1  0.64161787  0.60406718  0.10829131  1  -0.140033  0  -0.028533  -0.119636  0  4.118305  0
C  C96  1  0.08095280  0.12463104  0.17684076  1  0.571661  0  0.105285  0.257223  0  4.069522  0
C  C97  1  0.16907100  0.12509634  0.07289675  1  0.592946  0  0.105049  0.257995  0  4.069368  0
C  C98  1  0.00884119  0.16350877  0.16419500  1  -0.083885  0  -0.034534  -0.24609  0  3.967474  0
C  C99  1  0.24120658  0.08628591  0.08548794  1  -0.121953  0  -0.035191  -0.247819  0  3.968556  0
C  C100  1  0.11023871  0.13938860  0.10593126  1  -0.160926  0  -0.029618  -0.120718  0  4.121455  0
C  C101  1  0.13983515  0.11033172  0.14381267  1  -0.160573  0  -0.029097  -0.120337  0  4.120338  0
C  C102  1  0.34583367  0.84977806  0.84764396  1  0.044129  0  -0.014007  -0.111426  0  3.954923  0
C  C103  1  0.40434963  0.90000201  0.90216020  1  0.046657  0  -0.014839  -0.112593  0  3.956306  0
C  C104  1  0.30418716  0.92076927  0.86236124  1  0.477291  0  0.106471  0.269442  0  4.0415  0
C  C105  1  0.44597734  0.82902169  0.88744766  1  0.471508  0  0.107082  0.270188  0  4.041048  0
C  C106  1  0.33259013  0.94528604  0.88889505  1  0.062008  0  -0.085182  -0.199576  0  3.967298  0
C  C107  1  0.41757893  0.80450871  0.86091114  1  -0.016268  0  -0.0861  -0.200373  0  3.96905  0
C  C108  1  0.40557069  0.44885791  0.85299662  1  0.579927  0  0.104559  0.258321  0  4.068002  0
C  C109  1  0.34520051  0.30141198  0.89704678  1  0.555434  0  0.104808  0.258485  0  4.067989  0
C  C110  1  0.33759880  0.49201895  0.83628602  1  -0.106934  0  -0.034772  -0.247758  0  3.9665  0
C  C111  1  0.41318474  0.25829847  0.91379305  1  -0.067658  0  -0.034776  -0.246559  0  3.965206  0
C  C112  1  0.34175517  0.37101542  0.87483910  1  -0.102825  0  -0.029369  -0.121721  0  4.121525  0
C  C113  1  0.40896585  0.37929946  0.87522067  1  -0.126638  0  -0.02903  -0.11937  0  4.120114  0
C  C114  1  0.94491568  0.79735388  0.84937346  1  0.594307  0  0.104928  0.257346  0  4.068919  0
C  C115  1  0.80470480  0.95318277  0.90072502  1  0.580857  0  0.103878  0.256257  0  4.071518  0
C  C116  1  0.99143685  0.83542037  0.83613376  1  -0.141084  0  -0.033922  -0.245112  0  3.9652  0
C  C117  1  0.75815436  0.91519135  0.91401416  1  -0.142918  0  -0.03457  -0.245992  0  3.966303  0
C  C118  1  0.87289472  0.91082494  0.87711543  1  -0.110699  0  -0.029523  -0.12079  0  4.120541  0
C  C119  1  0.87662970  0.83976531  0.87292383  1  -0.100177  0  -0.029014  -0.119379  0  4.116962  0
S  S120  1  0.29841043  0.32487369  0.39717343  1  0.317841  0  0.099573  0.179673  0  2.744427  0
S  S121  1  0.45158424  0.42477655  0.35270621  1  0.310368  0  0.100459  0.181496  0  2.744052  0
S  S122  1  0.66058377  0.63389593  0.56181335  1  0.313212  0  0.103921  0.186656  0  2.743203  0
S  S123  1  0.58940597  0.61615398  0.68844452  1  0.301893  0  0.100381  0.18175  0  2.747473  0
S  S124  1  0.13413252  0.16078841  0.56154502  1  0.299067  0  0.099652  0.180418  0  2.745848  0
S  S125  1  0.11622920  0.08895705  0.68822394  1  0.308802  0  0.102994  0.184967  0  2.743389  0
S  S126  1  0.97419877  0.80317536  0.40212721  1  0.307409  0  0.103991  0.18686  0  2.743224  0
S  S127  1  0.77508516  0.94656476  0.34784894  1  0.311246  0  0.100623  0.181609  0  2.747076  0
S  S128  1  0.61595453  0.58921535  0.18847446  1  0.299677  0  0.09941  0.180232  0  2.747406  0
S  S129  1  0.63413726  0.66069442  0.06177033  1  0.309652  0  0.102484  0.184219  0  2.742001  0
S  S130  1  0.01231245  0.18327084  0.11091910  1  0.343978  0  0.102919  0.184923  0  2.744919  0
S  S131  1  0.23778755  0.06655796  0.13878527  1  0.353822  0  0.103574  0.185697  0  2.74431  0
S  S132  1  0.27604950  0.44718572  0.84775033  1  0.313919  0  0.103707  0.186705  0  2.744258  0
S  S133  1  0.47465938  0.30320659  0.90233521  1  0.312288  0  0.10062  0.181627  0  2.745989  0
S  S134  1  0.95152933  0.92499668  0.85258865  1  0.317555  0  0.101915  0.183498  0  2.744827  0
S  S135  1  0.79795223  0.82566216  0.89747857  1  0.319562  0  0.102651  0.184149  0  2.742458  0
O  O136  1  0.00032343  0.49930262  0.50009743  1  -1.226819  0  -0.569818  -1.033983  0  2.522689  0
O  O137  1  0.07700543  0.31581588  0.52262434  1  -1.175564  0  -0.320003  -0.547779  0  2.319721  0
O  O138  1  0.03216026  0.53108581  0.58594385  1  -1.159545  0  -0.311251  -0.53984  0  2.324107  0
O  O139  1  0.15570264  0.50532933  0.44975572  1  -1.159455  0  -0.311761  -0.531403  0  2.328581  0
O  O140  1  0.02724539  0.37481662  0.58083420  1  -1.171425  0  -0.312357  -0.533061  0  2.325676  0
O  O141  1  0.15327962  0.39174682  0.44640664  1  -1.155764  0  -0.320619  -0.54943  0  2.318286  0
O  O142  1  0.08443117  0.58575592  0.53025053  1  -1.140321  0  -0.308769  -0.53652  0  2.369704  0
O  O143  1  0.00438884  0.65686334  0.44959334  1  -1.169221  0  -0.317792  -0.541928  0  2.324817  0
O  O144  1  0.88769036  0.49570251  0.44289422  1  -1.162957  0  -0.308497  -0.535625  0  2.367002  0
O  O145  1  0.89088797  0.65274911  0.44708165  1  -1.158516  0  -0.312096  -0.53208  0  2.328128  0
O  O146  1  0.99659676  0.38662885  0.44122676  1  -1.164081  0  -0.313146  -0.542455  0  2.31882  0
O  O147  1  0.87554065  0.52657886  0.58118861  1  -1.154859  0  -0.312423  -0.534314  0  2.324709  0
O  O148  1  0.81556256  0.57711844  0.52310703  1  -1.165585  0  -0.317582  -0.542314  0  2.324397  0
O  O149  1  0.74927545  0.25039499  0.25022076  1  -1.229514  0  -0.569879  -1.034525  0  2.5229  0
O  O150  1  0.59677186  0.35781532  0.30372256  1  -1.167358  0  -0.32008  -0.547991  0  2.317353  0
O  O151  1  0.66450971  0.16342570  0.21872298  1  -1.161963  0  -0.312224  -0.541432  0  2.319776  0
O  O152  1  0.72500899  0.37525437  0.16938363  1  -1.167022  0  -0.311985  -0.531377  0  2.327376  0
O  O153  1  0.59387352  0.24478686  0.29945636  1  -1.1611  0  -0.313679  -0.535982  0  2.325166  0
O  O154  1  0.67283146  0.43416432  0.22751944  1  -1.172835  0  -0.32027  -0.548203  0  2.319333  0
O  O155  1  0.72014063  0.21888156  0.16509514  1  -1.143938  0  -0.308453  -0.535877  0  2.367407  0
O  O156  1  0.87654932  0.22392734  0.16907609  1  -1.160838  0  -0.31783  -0.543019  0  2.323951  0
O  O157  1  0.86141785  0.25387373  0.30796652  1  -1.159616  0  -0.308124  -0.534597  0  2.37088  0
O  O158  1  0.93393545  0.17279929  0.22795992  1  -1.128289  0  -0.311278  -0.531122  0  2.329166  0
O  O159  1  0.75347002  0.36391044  0.30856151  1  -1.166454  0  -0.312998  -0.542807  0  2.318475  0
O  O160  1  0.74541855  0.09244826  0.29954921  1  -1.172984  0  -0.319633  -0.547566  0  2.320347  0
O  O161  1  0.85803224  0.09726422  0.30347048  1  -1.140966  0  -0.311445  -0.53041  0  2.327974  0
O  O162  1  0.25016669  0.75008330  0.74995734  1  -1.227349  0  -0.570469  -1.034349  0  2.524304  0
O  O163  1  0.37455909  0.72340689  0.66903982  1  -1.151976  0  -0.312675  -0.533179  0  2.326894  0
O  O164  1  0.36351314  0.75505345  0.80814141  1  -1.171774  0  -0.312506  -0.541146  0  2.321069  0
O  O165  1  0.17206764  0.93412385  0.72704588  1  -1.168459  0  -0.31757  -0.54277  0  2.322735  0
O  O166  1  0.43427487  0.67413361  0.72728201  1  -1.172876  0  -0.318944  -0.546473  0  2.322847  0
O  O167  1  0.22308572  0.87487973  0.66898137  1  -1.152389  0  -0.312455  -0.533745  0  2.326115  0
O  O168  1  0.25250187  0.86200662  0.80784426  1  -1.155883  0  -0.308965  -0.53706  0  2.36665  0
O  O169  1  0.09563788  0.85841711  0.80305622  1  -1.177117  0  -0.318586  -0.544503  0  2.324585  0
O  O170  1  0.16550510  0.66433641  0.71972761  1  -1.140837  0  -0.308811  -0.536738  0  2.369153  0
O  O171  1  0.09424433  0.74411630  0.80036276  1  -1.161121  0  -0.312602  -0.532396  0  2.326244  0
O  O172  1  0.21802029  0.71883059  0.66406240  1  -1.150631  0  -0.310869  -0.538738  0  2.324806  0
O  O173  1  0.35884551  0.59836121  0.80367606  1  -1.1705  0  -0.313847  -0.536982  0  2.323446  0
O  O174  1  0.24629249  0.59296456  0.80026116  1  -1.167497  0  -0.317333  -0.541295  0  2.325542  0
O  O175  1  0.50006313  0.00020244  0.99978708  1  -1.229567  0  -0.569866  -1.034127  0  2.523235  0
O  O176  1  0.50387135  0.15771606  0.95057243  1  -1.170122  0  -0.319436  -0.546281  0  2.322154  0
O  O177  1  0.38733616  0.99539203  0.94093690  1  -1.172697  0  -0.311211  -0.53867  0  2.322245  0
O  O178  1  0.65390065  0.89229455  0.94689688  1  -1.178343  0  -0.318342  -0.542884  0  2.325704  0
O  O179  1  0.39212553  0.15177602  0.94584861  1  -1.154393  0  -0.312504  -0.53332  0  2.32513  0
O  O180  1  0.65594756  0.00597232  0.95049852  1  -1.163427  0  -0.313613  -0.536301  0  2.324565  0
O  O181  1  0.49715571  0.88724212  0.94253790  1  -1.155457  0  -0.30919  -0.537463  0  2.36595  0
O  O182  1  0.57856479  0.81565106  0.02287778  1  -1.173399  0  -0.318096  -0.543737  0  2.3234  0
O  O183  1  0.53013405  0.03086176  0.08490779  1  -1.143485  0  -0.308326  -0.535452  0  2.368705  0
O  O184  1  0.52496037  0.87476493  0.08084147  1  -1.154452  0  -0.311785  -0.532568  0  2.325705  0
O  O185  1  0.58559174  0.08650332  0.03127358  1  -1.161886  0  -0.311985  -0.540741  0  2.319602  0
O  O186  1  0.31620764  0.07591060  0.02164003  1  -1.137409  0  -0.313638  -0.535905  0  2.325465  0
O  O187  1  0.37339358  0.02642279  0.08066881  1  -1.160478  0  -0.317684  -0.542591  0  2.323729  0
F  F188  1  0.78188105  0.51531727  0.39860658  1  -0.619657  0  -0.097369  -0.131013  0  1.34882  0
F  F189  1  0.96804140  0.23511993  0.35133994  1  -0.619199  0  -0.096507  -0.129702  0  1.348949  0
F  F190  1  0.15992115  0.66014512  0.54277630  1  -0.62009  0  -0.097684  -0.130963  0  1.347556  0
F  F191  1  0.09016205  0.58992375  0.70717501  1  -0.618624  0  -0.097634  -0.131296  0  1.347666  0
F  F192  1  0.70738500  0.20677899  0.09006588  1  -0.62531  0  -0.097668  -0.131923  0  1.349123  0
F  F193  1  0.54262929  0.04324160  0.15992412  1  -0.626715  0  -0.097517  -0.131794  0  1.349323  0
F  F194  1  0.23445250  0.96829517  0.85112222  1  -0.622864  0  -0.097559  -0.131518  0  1.348815  0
F  F195  1  0.51579183  0.78156480  0.89860310  1  -0.622768  0  -0.098418  -0.13241  0  1.348115  0
F  F196  1  0.28776733  0.52240018  0.40899862  1  -0.614638  0  -0.082624  -0.099069  0  1.349154  0
F  F197  1  0.46206692  0.22733200  0.34082776  1  -0.617365  0  -0.084285  -0.101012  0  1.348533  0
F  F198  1  0.77677230  0.54178159  0.65586679  1  -0.625883  0  -0.083943  -0.100576  0  1.349516  0
F  F199  1  0.47316675  0.70820456  0.59443440  1  -0.620456  0  -0.083406  -0.100097  0  1.34937  0
F  F200  1  0.04234447  0.27599470  0.65544484  1  -0.612874  0  -0.084008  -0.100658  0  1.347752  0
F  F201  1  0.20808514  0.97370608  0.59435059  1  -0.619952  0  -0.083781  -0.100005  0  1.34886  0
F  F202  1  0.78705275  0.78037640  0.40152286  1  -0.612597  0  -0.082817  -0.099767  0  1.348171  0
F  F203  1  0.96202030  0.96964994  0.34861453  1  -0.617103  0  -0.081712  -0.097982  0  1.349156  0
F  F204  1  0.70822112  0.47370686  0.09471723  1  -0.612777  0  -0.08268  -0.099444  0  1.348811  0
F  F205  1  0.54167547  0.77612997  0.15556839  1  -0.616184  0  -0.083079  -0.099872  0  1.348545  0
F  F206  1  0.09498598  0.10230512  0.21611004  1  -0.617688  0  -0.082083  -0.098184  0  1.348679  0
F  F207  1  0.15493475  0.14747405  0.03362639  1  -0.612449  0  -0.083768  -0.100635  0  1.347483  0
F  F208  1  0.46312348  0.46966225  0.84897018  1  -0.61342  0  -0.085032  -0.102413  0  1.346682  0
F  F209  1  0.28760085  0.28069231  0.90110375  1  -0.616578  0  -0.083148  -0.100164  0  1.347588  0
F  F210  1  0.96155960  0.72754240  0.84108661  1  -0.615036  0  -0.082607  -0.09933  0  1.348966  0
F  F211  1  0.78818360  0.02299256  0.90901383  1  -0.618424  0  -0.084108  -0.100966  0  1.348  0
