# generated using pymatgen
data_YH5(C3O4)2
_symmetry_space_group_name_H-M   'P 1'
_cell_length_a   6.24188920
_cell_length_b   8.64275316
_cell_length_c   8.76709745
_cell_angle_alpha   111.34789559
_cell_angle_beta   109.78299719
_cell_angle_gamma   91.49438954
_symmetry_Int_Tables_number   1
_chemical_formula_structural   YH5(C3O4)2
_chemical_formula_sum   'Y2 H10 C12 O16'
_cell_volume   408.45238060
_cell_formula_units_Z   2
loop_
 _symmetry_equiv_pos_site_id
 _symmetry_equiv_pos_as_xyz
  1  'x, y, z'
loop_
 _atom_site_type_symbol
 _atom_site_label
 _atom_site_symmetry_multiplicity
 _atom_site_fract_x
 _atom_site_fract_y
 _atom_site_fract_z
 _atom_site_occupancy
 _atom_site_hle17_bader_spin_density
 _atom_site_hle17_ddec_charge
 _atom_site_hle17_ddec_spin_density
 _atom_site_hle17_ddec_sum_bond_order
 _atom_site_hle17_magmom
 _atom_site_hse06_10hf_bader_spin_density
 _atom_site_hse06_10hf_ddec_charge
 _atom_site_hse06_10hf_ddec_spin_density
 _atom_site_hse06_10hf_ddec_sum_bond_order
 _atom_site_hse06_10hf_magmom
 _atom_site_hse06_bader_spin_density
 _atom_site_hse06_ddec_charge
 _atom_site_hse06_ddec_spin_density
 _atom_site_hse06_ddec_sum_bond_order
 _atom_site_hse06_magmom
 _atom_site_pbe_bader_spin_density
 _atom_site_pbe_cm5_charge
 _atom_site_pbe_ddec_charge
 _atom_site_pbe_ddec_spin_density
 _atom_site_pbe_ddec_sum_bond_order
 _atom_site_pbe_magmom
Y  Y0  1  0.82019057  0.35023939  0.18065248  1  0  2.110424  0  1.814645  0  0  1.909216  0  2.319054  0  0  1.983032  0  2.245304  0  0  1.300835  1.856877  0  2.368093  0
Y  Y1  1  0.17981063  0.64976121  0.81934738  1  0  2.110468  0  1.814501  0  0  1.909211  0  2.318978  0  0  1.983081  0  2.245133  0  0  1.300852  1.856871  0  2.368029  0
H  H2  1  0.75826461  0.96749990  0.33259561  1  0  0.111668  0  0.934809  0  0  0.122994  0  0.992736  0  0  0.12637  0  0.991404  0  0  0.114504  0.120609  0  0.993672  0
H  H3  1  0.24172942  0.03249194  0.66740515  1  0  0.111619  0  0.934875  0  0  0.122972  0  0.992776  0  0  0.126315  0  0.991485  0  0  0.114482  0.120585  0  0.993721  0
H  H4  1  0.98796102  0.33058815  0.89072688  1  0  0.438655  0  0.864322  0  0  0.405291  0  0.931058  0  0  0.416479  0  0.914886  0  0  0.304341  0.397352  0  0.94252  0
H  H5  1  0.01204500  0.66941122  0.10927826  1  0  0.438606  0  0.864361  0  0  0.405251  0  0.931089  0  0  0.41644  0  0.914918  0  0  0.304289  0.39731  0  0.942556  0
H  H6  1  0.18212387  0.27281927  0.02644424  1  0  0.438817  0  0.860114  0  0  0.408628  0  0.920541  0  0  0.419941  0  0.9041  0  0  0.308291  0.400593  0  0.932214  0
H  H7  1  0.81788774  0.72717500  0.97355474  1  0  0.438894  0  0.860015  0  0  0.408697  0  0.920456  0  0  0.420009  0  0.904015  0  0  0.308336  0.400663  0  0.932125  0
H  H8  1  0.27165761  0.35593943  0.46709927  1  0  0.431638  0  0.871095  0  0  0.395025  0  0.944105  0  0  0.406551  0  0.927406  0  0  0.29963  0.386824  0  0.955967  0
H  H9  1  0.72834760  0.64406371  0.53290473  1  0  0.431442  0  0.871324  0  0  0.394876  0  0.944249  0  0  0.406401  0  0.927553  0  0  0.299576  0.386677  0  0.956114  0
H  H10  1  0.30992232  0.28318929  0.28203191  1  0  0.442575  0  0.838645  0  0  0.413482  0  0.902404  0  0  0.423303  0  0.888226  0  0  0.316098  0.406497  0  0.912494  0
H  H11  1  0.69009210  0.71682393  0.71797900  1  0  0.442561  0  0.838669  0  0  0.41346  0  0.902438  0  0  0.423279  0  0.888264  0  0  0.316136  0.406478  0  0.912528  0
C  C12  1  0.64249547  0.98110463  0.40440605  1  0  -0.078233  0  3.686512  0  0  -0.112072  0  3.939732  0  0  -0.112468  0  3.957119  0  0  -0.073129  -0.111776  0  3.928075  0
C  C13  1  0.35750497  0.01889983  0.59560412  1  0  -0.078142  0  3.686339  0  0  -0.111975  0  3.939569  0  0  -0.112343  0  3.956967  0  0  -0.073097  -0.111683  0  3.927927  0
C  C14  1  0.49480046  0.83995061  0.37478025  1  0  -0.055921  0  3.701028  0  0  -0.044559  0  3.941631  0  0  -0.04676  0  3.958113  0  0  0.001437  -0.043342  0  3.930906  0
C  C15  1  0.50519986  0.16004625  0.62522264  1  0  -0.05581  0  3.701297  0  0  -0.044496  0  3.941884  0  0  -0.046702  0  3.958366  0  0  0.001497  -0.04329  0  3.931167  0
C  C16  1  0.35041593  0.85934868  0.47148009  1  0  -0.065481  0  3.712511  0  0  -0.054375  0  3.952826  0  0  -0.057544  0  3.969495  0  0  -0.003657  -0.052433  0  3.941803  0
C  C17  1  0.64957141  0.14065077  0.52852632  1  0  -0.065584  0  3.713018  0  0  -0.054417  0  3.953279  0  0  -0.057583  0  3.969963  0  0  -0.003797  -0.052477  0  3.942262  0
C  C18  1  0.18528162  0.71189076  0.44184190  1  0  0.717307  0  3.841429  0  0  0.662038  0  4.137434  0  0  0.698376  0  4.125681  0  0  0.245517  0.637228  0  4.144831  0
C  C19  1  0.81470850  0.28810613  0.55815971  1  0  0.717073  0  3.8419  0  0  0.661699  0  4.137991  0  0  0.698028  0  4.126256  0  0  0.245419  0.636883  0  4.145398  0
C  C20  1  0.50202387  0.67036080  0.24304752  1  0  0.726228  0  3.826477  0  0  0.668378  0  4.128736  0  0  0.704777  0  4.117002  0  0  0.248715  0.643494  0  4.136167  0
C  C21  1  0.49797590  0.32964103  0.75694672  1  0  0.726164  0  3.826327  0  0  0.66838  0  4.128499  0  0  0.704782  0  4.116765  0  0  0.248669  0.643515  0  4.135908  0
C  C22  1  0.60601084  0.96038384  0.99003841  1  0  0.546636  0  3.92841  0  0  0.494782  0  4.23481  0  0  0.523924  0  4.2289  0  0  0.225278  0.474925  0  4.238397  0
C  C23  1  0.39401170  0.03960651  0.00994697  1  0  0.546357  0  3.92713  0  0  0.494613  0  4.23346  0  0  0.523762  0  4.227545  0  0  0.225265  0.474736  0  4.23706  0
O  O24  1  0.18301415  0.68463144  0.57317549  1  0  -0.692356  0  2.063825  0  0  -0.630518  0  2.327257  0  0  -0.660124  0  2.315396  0  0  -0.359528  -0.609814  0  2.334786  0
O  O25  1  0.81697267  0.31535157  0.42681814  1  0  -0.692303  0  2.063963  0  0  -0.630385  0  2.327346  0  0  -0.65998  0  2.315499  0  0  -0.359478  -0.609677  0  2.334875  0
O  O26  1  0.05381169  0.62034890  0.28291184  1  0  -0.691603  0  2.0768  0  0  -0.620584  0  2.313411  0  0  -0.650367  0  2.302109  0  0  -0.33442  -0.599844  0  2.320572  0
O  O27  1  0.94617808  0.37964666  0.71708008  1  0  -0.69148  0  2.077058  0  0  -0.620364  0  2.313598  0  0  -0.65015  0  2.302305  0  0  -0.334353  -0.599623  0  2.320761  0
O  O28  1  0.40842145  0.64095123  0.08163286  1  0  -0.671797  0  2.072964  0  0  -0.611851  0  2.337115  0  0  -0.641507  0  2.325735  0  0  -0.355433  -0.591044  0  2.344265  0
O  O29  1  0.59159548  0.35905821  0.91837845  1  0  -0.671876  0  2.072701  0  0  -0.611942  0  2.336807  0  0  -0.641594  0  2.325434  0  0  -0.355482  -0.591128  0  2.343918  0
O  O30  1  0.61200452  0.57006720  0.30501406  1  0  -0.682192  0  2.004639  0  0  -0.613111  0  2.241669  0  0  -0.642401  0  2.229521  0  0  -0.32471  -0.592602  0  2.249397  0
O  O31  1  0.38798731  0.42992969  0.69498910  1  0  -0.682155  0  2.004736  0  0  -0.613087  0  2.241766  0  0  -0.642383  0  2.229617  0  0  -0.324608  -0.592581  0  2.249489  0
O  O32  1  0.79653658  0.05646366  0.05846629  1  0  -0.582547  0  2.062461  0  0  -0.532268  0  2.310666  0  0  -0.556998  0  2.301252  0  0  -0.327853  -0.515119  0  2.316481  0
O  O33  1  0.20343698  0.94352814  0.94151929  1  0  -0.582572  0  2.061964  0  0  -0.532261  0  2.310079  0  0  -0.557011  0  2.300676  0  0  -0.327919  -0.5151  0  2.315895  0
O  O34  1  0.56817240  0.80018676  0.90543927  1  0  -0.665753  0  2.142497  0  0  -0.598495  0  2.375557  0  0  -0.626436  0  2.367568  0  0  -0.323361  -0.579085  0  2.380617  0
O  O35  1  0.43183325  0.19983271  0.09456262  1  0  -0.665645  0  2.141667  0  0  -0.59849  0  2.374766  0  0  -0.626427  0  2.366771  0  0  -0.323351  -0.579074  0  2.37983  0
O  O36  1  0.19481320  0.31318594  0.33619917  1  0  -0.879431  0  1.881956  0  0  -0.821347  0  2.086178  0  0  -0.84398  0  2.053801  0  0  -0.619432  -0.805371  0  2.108683  0
O  O37  1  0.80519261  0.68681972  0.66380701  1  0  -0.879229  0  1.882182  0  0  -0.821168  0  2.086419  0  0  -0.843805  0  2.054045  0  0  -0.619404  -0.805209  0  2.108901  0
O  O38  1  0.03037593  0.31083925  0.00120822  1  0  -0.898487  0  1.894507  0  0  -0.840578  0  2.104062  0  0  -0.864106  0  2.07026  0  0  -0.643083  -0.823885  0  2.127497  0
O  O39  1  0.96961852  0.68916889  0.99878698  1  0  -0.898535  0  1.894483  0  0  -0.840649  0  2.104073  0  0  -0.864179  0  2.070253  0  0  -0.643073  -0.823958  0  2.12751  0
