# generated using pymatgen
data_ZnPH6C3NO3
_symmetry_space_group_name_H-M   'P 1'
_cell_length_a   6.22288826
_cell_length_b   8.48552507
_cell_length_c   10.66335894
_cell_angle_alpha   90.00000681
_cell_angle_beta   90.00002681
_cell_angle_gamma   101.23613719
_symmetry_Int_Tables_number   1
_chemical_formula_structural   ZnPH6C3NO3
_chemical_formula_sum   'Zn4 P4 H24 C12 N4 O12'
_cell_volume   552.28033483
_cell_formula_units_Z   4
loop_
 _symmetry_equiv_pos_site_id
 _symmetry_equiv_pos_as_xyz
  1  'x, y, z'
loop_
 _atom_site_type_symbol
 _atom_site_label
 _atom_site_symmetry_multiplicity
 _atom_site_fract_x
 _atom_site_fract_y
 _atom_site_fract_z
 _atom_site_occupancy
 _atom_site_hle17_bader_spin_density
 _atom_site_hle17_ddec_charge
 _atom_site_hle17_ddec_spin_density
 _atom_site_hle17_ddec_sum_bond_order
 _atom_site_hle17_magmom
 _atom_site_hse06_10hf_bader_spin_density
 _atom_site_hse06_10hf_ddec_charge
 _atom_site_hse06_10hf_ddec_spin_density
 _atom_site_hse06_10hf_ddec_sum_bond_order
 _atom_site_hse06_10hf_magmom
 _atom_site_hse06_bader_spin_density
 _atom_site_hse06_ddec_charge
 _atom_site_hse06_ddec_spin_density
 _atom_site_hse06_ddec_sum_bond_order
 _atom_site_hse06_magmom
 _atom_site_pbe_bader_spin_density
 _atom_site_pbe_cm5_charge
 _atom_site_pbe_ddec_charge
 _atom_site_pbe_ddec_spin_density
 _atom_site_pbe_ddec_sum_bond_order
 _atom_site_pbe_magmom
Zn  Zn0  1  0.84039044  0.27494288  0.10495111  1  0  1.141922  0  1.805603  0  0  0.963689  0  2.28099  0  0  1.008242  0  2.22171  0  0  0.720961  0.933578  0  2.320541  0
Zn  Zn1  1  0.65960958  0.22505746  0.60495113  1  0  1.141924  0  1.80558  0  0  0.963696  0  2.280969  0  0  1.008245  0  2.221691  0  0  0.72096  0.933582  0  2.320509  0
Zn  Zn2  1  0.15960992  0.72505849  0.89504917  1  0  1.141938  0  1.805579  0  0  0.963718  0  2.280967  0  0  1.008267  0  2.221685  0  0  0.720977  0.933608  0  2.320512  0
Zn  Zn3  1  0.34039046  0.77494271  0.39504915  1  0  1.1419  0  1.805576  0  0  0.963688  0  2.280969  0  0  1.00824  0  2.221688  0  0  0.720959  0.933577  0  2.320513  0
P  P4  1  0.75308524  0.09519210  0.34302992  1  0  1.48592  0  4.901406  0  0  1.331272  0  5.395026  0  0  1.3811  0  5.357185  0  0  0.331001  1.296659  0  5.420457  0
P  P5  1  0.74691467  0.40480710  0.84302998  1  0  1.4859  0  4.901447  0  0  1.331249  0  5.395076  0  0  1.381075  0  5.357238  0  0  0.330971  1.296635  0  5.420511  0
P  P6  1  0.24691448  0.90480687  0.65697036  1  0  1.485879  0  4.901441  0  0  1.33123  0  5.395059  0  0  1.381057  0  5.357222  0  0  0.330976  1.296616  0  5.420491  0
P  P7  1  0.25308537  0.59519307  0.15696936  1  0  1.485947  0  4.901355  0  0  1.331322  0  5.394953  0  0  1.381151  0  5.357111  0  0  0.331021  1.296709  0  5.420388  0
H  H8  1  0.13795897  0.15427427  0.28991430  1  0  0.131348  0  0.947104  0  0  0.144323  0  1.005485  0  0  0.146001  0  1.005967  0  0  0.119772  0.142969  0  1.005565  0
H  H9  1  0.36204098  0.34572469  0.78991346  1  0  0.131339  0  0.947113  0  0  0.144314  0  1.005498  0  0  0.145991  0  1.00598  0  0  0.11977  0.142959  0  1.005579  0
H  H10  1  0.86203946  0.84572590  0.71008598  1  0  0.131322  0  0.947116  0  0  0.144279  0  1.005525  0  0  0.145958  0  1.006006  0  0  0.119763  0.142925  0  1.005604  0
H  H11  1  0.63795906  0.65427547  0.21008589  1  0  0.131341  0  0.947129  0  0  0.144299  0  1.005526  0  0  0.145979  0  1.006006  0  0  0.119772  0.142944  0  1.005608  0
H  H12  1  0.03654287  0.94315368  0.29239197  1  0  0.136192  0  0.950321  0  0  0.148841  0  1.009876  0  0  0.151459  0  1.008545  0  0  0.114068  0.147291  0  1.01047  0
H  H13  1  0.46345678  0.55684508  0.79239112  1  0  0.136193  0  0.95033  0  0  0.148866  0  1.009858  0  0  0.151485  0  1.008526  0  0  0.114083  0.147317  0  1.010452  0
H  H14  1  0.96345717  0.05684649  0.70760831  1  0  0.13618  0  0.950317  0  0  0.148808  0  1.009903  0  0  0.151426  0  1.008574  0  0  0.114066  0.14726  0  1.010493  0
H  H15  1  0.53654326  0.44315508  0.20760822  1  0  0.136131  0  0.950318  0  0  0.148753  0  1.009921  0  0  0.151374  0  1.008584  0  0  0.114038  0.147208  0  1.010502  0
H  H16  1  0.30091795  0.18805463  0.09588260  1  0  0.103414  0  0.923525  0  0  0.119153  0  0.982389  0  0  0.119963  0  0.982812  0  0  0.114317  0.118102  0  0.982885  0
H  H17  1  0.19908215  0.31194548  0.59588264  1  0  0.103418  0  0.923542  0  0  0.11917  0  0.98238  0  0  0.119984  0  0.982809  0  0  0.11432  0.118104  0  0.982891  0
H  H18  1  0.69908209  0.81194554  0.90411769  1  0  0.103415  0  0.923563  0  0  0.119159  0  0.982412  0  0  0.11997  0  0.982844  0  0  0.11432  0.118111  0  0.982904  0
H  H19  1  0.80091789  0.68805469  0.40411765  1  0  0.103427  0  0.923532  0  0  0.119168  0  0.982382  0  0  0.11998  0  0.982814  0  0  0.11432  0.118119  0  0.982875  0
H  H20  1  0.26545241  0.97434885  0.09516615  1  0  0.076802  0  0.929448  0  0  0.092037  0  0.995079  0  0  0.092886  0  0.994543  0  0  0.106034  0.091547  0  0.995194  0
H  H21  1  0.23454899  0.52565107  0.59516618  1  0  0.07682  0  0.929439  0  0  0.092052  0  0.99507  0  0  0.092906  0  0.994538  0  0  0.106045  0.091559  0  0.995182  0
H  H22  1  0.73454763  0.02565132  0.90483413  1  0  0.076819  0  0.929434  0  0  0.09205  0  0.995065  0  0  0.092903  0  0.994532  0  0  0.10604  0.091559  0  0.995181  0
H  H23  1  0.76545105  0.47434910  0.40483317  1  0  0.076821  0  0.929426  0  0  0.092055  0  0.995053  0  0  0.092908  0  0.994521  0  0  0.106039  0.091563  0  0.99517  0
H  H24  1  0.66383993  0.91279435  0.11884261  1  0  0.088457  0  0.937863  0  0  0.105595  0  0.997656  0  0  0.106406  0  0.99739  0  0  0.11461  0.104937  0  0.997745  0
H  H25  1  0.83615980  0.58720580  0.61884267  1  0  0.088457  0  0.937866  0  0  0.105585  0  0.997663  0  0  0.106396  0  0.997397  0  0  0.114606  0.104927  0  0.997753  0
H  H26  1  0.33615851  0.08720582  0.88115767  1  0  0.088472  0  0.937856  0  0  0.105602  0  0.997648  0  0  0.106412  0  0.997384  0  0  0.114619  0.104945  0  0.997738  0
H  H27  1  0.16384024  0.41279437  0.38115761  1  0  0.08844  0  0.937872  0  0  0.105574  0  0.99767  0  0  0.106383  0  0.997404  0  0  0.114609  0.104917  0  0.99776  0
H  H28  1  0.88985452  0.81313750  0.10731438  1  0  0.076533  0  0.935556  0  0  0.092964  0  0.999632  0  0  0.094029  0  0.998489  0  0  0.106093  0.091498  0  1.001346  0
H  H29  1  0.61014681  0.68686264  0.60731438  1  0  0.076537  0  0.935564  0  0  0.092982  0  0.99961  0  0  0.094045  0  0.998468  0  0  0.106086  0.091515  0  1.001325  0
H  H30  1  0.11014552  0.18686267  0.89268591  1  0  0.076536  0  0.935533  0  0  0.092982  0  0.999584  0  0  0.094045  0  0.998442  0  0  0.10609  0.091515  0  1.0013  0
H  H31  1  0.38985484  0.31313753  0.39268496  1  0  0.076532  0  0.935532  0  0  0.092984  0  0.999585  0  0  0.094047  0  0.998441  0  0  0.106086  0.091513  0  1.0013  0
C  C32  1  0.99992521  0.05923356  0.26312361  1  0  -0.357713  0  3.607676  0  0  -0.388273  0  3.841598  0  0  -0.394292  0  3.851308  0  0  -0.084579  -0.383578  0  3.834364  0
C  C33  1  0.50007463  0.44076562  0.76312361  1  0  -0.357697  0  3.607667  0  0  -0.388283  0  3.841599  0  0  -0.3943  0  3.851303  0  0  -0.084588  -0.383589  0  3.834366  0
C  C34  1  0.00007483  0.94076660  0.73687667  1  0  -0.35765  0  3.607653  0  0  -0.388202  0  3.841628  0  0  -0.394212  0  3.851314  0  0  -0.084565  -0.383509  0  3.834392  0
C  C35  1  0.49992541  0.55923455  0.23687668  1  0  -0.357691  0  3.607747  0  0  -0.388231  0  3.841688  0  0  -0.394242  0  3.851379  0  0  -0.084564  -0.383536  0  3.834455  0
C  C36  1  0.19371744  0.07706188  0.06435311  1  0  -0.034364  0  3.618405  0  0  -0.092725  0  3.875609  0  0  -0.089806  0  3.887937  0  0  -0.07317  -0.094349  0  3.867196  0
C  C37  1  0.30628232  0.42293702  0.56435225  1  0  -0.034405  0  3.618434  0  0  -0.092758  0  3.875627  0  0  -0.089865  0  3.887984  0  0  -0.073184  -0.094368  0  3.86721  0
C  C38  1  0.80628228  0.92293708  0.93564717  1  0  -0.034381  0  3.618435  0  0  -0.092721  0  3.875623  0  0  -0.089824  0  3.887981  0  0  -0.073168  -0.094348  0  3.867213  0
C  C39  1  0.69371772  0.57706315  0.43564709  1  0  -0.034396  0  3.618406  0  0  -0.092742  0  3.875592  0  0  -0.089847  0  3.88795  0  0  -0.073171  -0.094368  0  3.86718  0
C  C40  1  0.82626702  0.91971704  0.07694683  1  0  -0.039352  0  3.631094  0  0  -0.097538  0  3.885661  0  0  -0.094746  0  3.898324  0  0  -0.072448  -0.09947  0  3.877717  0
C  C41  1  0.67373428  0.58028309  0.57694684  1  0  -0.039373  0  3.631098  0  0  -0.097544  0  3.885639  0  0  -0.094748  0  3.898295  0  0  -0.072444  -0.099477  0  3.877694  0
C  C42  1  0.17373302  0.08028313  0.92305345  1  0  -0.039382  0  3.631083  0  0  -0.097544  0  3.885607  0  0  -0.094755  0  3.898261  0  0  -0.072452  -0.099477  0  3.877664  0
C  C43  1  0.32626576  0.41971708  0.42305250  1  0  -0.039305  0  3.631071  0  0  -0.097495  0  3.88563  0  0  -0.094693  0  3.898281  0  0  -0.072431  -0.099423  0  3.877671  0
N  N44  1  0.97612287  0.06569209  0.12446842  1  0  -0.206373  0  3.308351  0  0  -0.101906  0  3.549987  0  0  -0.120482  0  3.571608  0  0  -0.337844  -0.090083  0  3.535237  0
N  N45  1  0.52387717  0.43430825  0.62446843  1  0  -0.206361  0  3.308336  0  0  -0.101917  0  3.549992  0  0  -0.120487  0  3.571618  0  0  -0.337845  -0.090095  0  3.535233  0
N  N46  1  0.02387718  0.93430808  0.87553186  1  0  -0.20637  0  3.308385  0  0  -0.101917  0  3.550021  0  0  -0.120489  0  3.571646  0  0  -0.33784  -0.090093  0  3.53527  0
N  N47  1  0.47612287  0.56569192  0.37553186  1  0  -0.206351  0  3.308403  0  0  -0.101898  0  3.550042  0  0  -0.12047  0  3.571666  0  0  -0.337836  -0.090074  0  3.53529  0
O  O48  1  0.65626639  0.20925899  0.25573284  1  0  -0.86867  0  1.979742  0  0  -0.778197  0  2.271268  0  0  -0.80564  0  2.247082  0  0  -0.385687  -0.75857  0  2.286675  0
O  O49  1  0.84373504  0.29074019  0.75573292  1  0  -0.868666  0  1.979756  0  0  -0.778204  0  2.27129  0  0  -0.805644  0  2.247101  0  0  -0.385671  -0.758577  0  2.286695  0
O  O50  1  0.34373365  0.79074118  0.74426651  1  0  -0.868675  0  1.979781  0  0  -0.778214  0  2.271318  0  0  -0.805653  0  2.247125  0  0  -0.385686  -0.758587  0  2.286726  0
O  O51  1  0.15626500  0.70925998  0.24426643  1  0  -0.868628  0  1.979723  0  0  -0.778205  0  2.271274  0  0  -0.80565  0  2.247093  0  0  -0.385683  -0.75858  0  2.286682  0
O  O52  1  0.83530797  0.17631808  0.46839100  1  0  -0.853096  0  2.003266  0  0  -0.753543  0  2.300044  0  0  -0.781654  0  2.273657  0  0  -0.38327  -0.733632  0  2.317233  0
O  O53  1  0.66469236  0.32368236  0.96839103  1  0  -0.853095  0  2.003288  0  0  -0.753537  0  2.300065  0  0  -0.781646  0  2.273678  0  0  -0.383266  -0.733627  0  2.31726  0
O  O54  1  0.16469207  0.82368209  0.53160835  1  0  -0.853085  0  2.003256  0  0  -0.753543  0  2.300057  0  0  -0.781654  0  2.273669  0  0  -0.383276  -0.733631  0  2.317248  0
O  O55  1  0.33530768  0.67631781  0.03160832  1  0  -0.853099  0  2.003263  0  0  -0.753572  0  2.300079  0  0  -0.781683  0  2.273693  0  0  -0.383283  -0.733663  0  2.317272  0
O  O56  1  0.60163095  0.93226404  0.35938407  1  0  -0.881012  0  2.078998  0  0  -0.785687  0  2.391634  0  0  -0.813456  0  2.363665  0  0  -0.389861  -0.766897  0  2.410724  0
O  O57  1  0.89836867  0.56773497  0.85938508  1  0  -0.881019  0  2.079017  0  0  -0.785681  0  2.39165  0  0  -0.81345  0  2.363682  0  0  -0.389857  -0.766882  0  2.410725  0
O  O58  1  0.39836877  0.06773493  0.64061528  1  0  -0.881014  0  2.079028  0  0  -0.785671  0  2.391658  0  0  -0.813441  0  2.363692  0  0  -0.389855  -0.766875  0  2.410739  0
O  O59  1  0.10163105  0.43226399  0.14061520  1  0  -0.88105  0  2.078999  0  0  -0.785709  0  2.391641  0  0  -0.813481  0  2.363674  0  0  -0.389872  -0.766911  0  2.410716  0
