# generated using pymatgen
data_CdH17C21N3O4
_symmetry_space_group_name_H-M   'P 1'
_cell_length_a   8.84021483
_cell_length_b   10.52858225
_cell_length_c   10.83995852
_cell_angle_alpha   72.87301786
_cell_angle_beta   84.93322025
_cell_angle_gamma   79.21999798
_symmetry_Int_Tables_number   1
_chemical_formula_structural   CdH17C21N3O4
_chemical_formula_sum   'Cd2 H34 C42 N6 O8'
_cell_volume   946.57771687
_cell_formula_units_Z   2
loop_
 _symmetry_equiv_pos_site_id
 _symmetry_equiv_pos_as_xyz
  1  'x, y, z'
loop_
 _atom_site_type_symbol
 _atom_site_label
 _atom_site_symmetry_multiplicity
 _atom_site_fract_x
 _atom_site_fract_y
 _atom_site_fract_z
 _atom_site_occupancy
 _atom_site_hle17_bader_spin_density
 _atom_site_hle17_ddec_charge
 _atom_site_hle17_ddec_spin_density
 _atom_site_hle17_ddec_sum_bond_order
 _atom_site_hle17_magmom
 _atom_site_hse06_10hf_bader_spin_density
 _atom_site_hse06_10hf_ddec_charge
 _atom_site_hse06_10hf_ddec_spin_density
 _atom_site_hse06_10hf_ddec_sum_bond_order
 _atom_site_hse06_10hf_magmom
 _atom_site_hse06_bader_spin_density
 _atom_site_hse06_ddec_charge
 _atom_site_hse06_ddec_spin_density
 _atom_site_hse06_ddec_sum_bond_order
 _atom_site_hse06_magmom
 _atom_site_pbe_bader_spin_density
 _atom_site_pbe_cm5_charge
 _atom_site_pbe_ddec_charge
 _atom_site_pbe_ddec_spin_density
 _atom_site_pbe_ddec_sum_bond_order
 _atom_site_pbe_magmom
Cd  Cd0  1  0.56826382  0.60621789  0.12628690  1  0  1.144801  0  1.657791  0  0  0.947195  0  2.110143  0  0  1.006607  0  2.056119  0  0  0.780868  0.901773  0  2.149023  0
Cd  Cd1  1  0.43173635  0.39378423  0.87371264  1  0  1.14483  0  1.657822  0  0  0.947229  0  2.110124  0  0  1.006637  0  2.056099  0  0  0.780879  0.901808  0  2.149007  0
H  H2  1  0.45046679  0.43295389  0.36936321  1  0  0.338069  0  0.92288  0  0  0.32035  0  0.98582  0  0  0.328308  0  0.979174  0  0  0.299373  0.314579  0  0.990874  0
H  H3  1  0.54953491  0.56704621  0.63063677  1  0  0.338134  0  0.922816  0  0  0.320369  0  0.985827  0  0  0.328327  0  0.979181  0  0  0.299376  0.314599  0  0.99088  0
H  H4  1  0.34851875  0.43074026  0.51664584  1  0  0.342078  0  0.919032  0  0  0.322328  0  0.986002  0  0  0.330329  0  0.979162  0  0  0.29657  0.316482  0  0.991158  0
H  H5  1  0.65148068  0.56925984  0.48335434  1  0  0.342061  0  0.919054  0  0  0.322317  0  0.986015  0  0  0.330317  0  0.979175  0  0  0.296562  0.316471  0  0.991172  0
H  H6  1  0.28159485  0.81363374  0.06876831  1  0  0.079775  0  0.957097  0  0  0.088423  0  1.022005  0  0  0.090926  0  1.018931  0  0  0.113292  0.086456  0  1.024042  0
H  H7  1  0.71840476  0.18636536  0.93123121  1  0  0.07972  0  0.957188  0  0  0.08839  0  1.022074  0  0  0.090892  0  1.019003  0  0  0.113281  0.086434  0  1.024099  0
H  H8  1  0.04433424  0.93131373  0.16094343  1  0  0.099922  0  0.952939  0  0  0.113197  0  1.007387  0  0  0.116295  0  1.007494  0  0  0.10117  0.110912  0  1.007464  0
H  H9  1  0.95566652  0.06868537  0.83905691  1  0  0.099862  0  0.952967  0  0  0.113168  0  1.007385  0  0  0.116264  0  1.007494  0  0  0.101162  0.110886  0  1.007457  0
H  H10  1  0.96938577  0.83089253  0.39352099  1  0  0.084631  0  0.982967  0  0  0.09612  0  1.046545  0  0  0.097696  0  1.046307  0  0  0.099446  0.094919  0  1.04641  0
H  H11  1  0.03061368  0.16910757  0.60648011  1  0  0.084648  0  0.983007  0  0  0.096134  0  1.046579  0  0  0.097708  0  1.046344  0  0  0.099452  0.094934  0  1.046443  0
H  H12  1  0.12390015  0.49727864  0.59728727  1  0  0.10195  0  0.955353  0  0  0.11386  0  1.016614  0  0  0.116621  0  1.014956  0  0  0.106689  0.111852  0  1.017762  0
H  H13  1  0.87610061  0.50272045  0.40271308  1  0  0.10194  0  0.955338  0  0  0.11385  0  1.016604  0  0  0.116613  0  1.014938  0  0  0.106682  0.11184  0  1.017753  0
H  H14  1  0.05792291  0.79463046  0.59707556  1  0  0.079763  0  0.973043  0  0  0.092734  0  1.036642  0  0  0.094767  0  1.03694  0  0  0.097585  0.091211  0  1.036686  0
H  H15  1  0.94207560  0.20536863  0.40292590  1  0  0.079769  0  0.973094  0  0  0.092781  0  1.036641  0  0  0.094814  0  1.036938  0  0  0.097618  0.091255  0  1.036686  0
H  H16  1  0.95107758  0.44641074  0.76832395  1  0  0.10497  0  0.961333  0  0  0.11526  0  1.02319  0  0  0.11742  0  1.024382  0  0  0.106386  0.113712  0  1.022173  0
H  H17  1  0.04892585  0.55358634  0.23167674  1  0  0.104993  0  0.961373  0  0  0.115275  0  1.023242  0  0  0.117446  0  1.024401  0  0  0.106402  0.113727  0  1.022224  0
H  H18  1  0.77898789  0.41825245  0.96469134  1  0  0.077848  0  0.989849  0  0  0.084109  0  1.060642  0  0  0.086265  0  1.058884  0  0  0.109742  0.082925  0  1.060939  0
H  H19  1  0.22101516  0.58174664  0.03530974  1  0  0.077856  0  0.989821  0  0  0.084152  0  1.06059  0  0  0.086312  0  1.058834  0  0  0.10974  0.082961  0  1.06089  0
H  H20  1  0.80547362  0.79678252  0.99292958  1  0  0.085963  0  0.949672  0  0  0.095695  0  1.009414  0  0  0.098401  0  1.007194  0  0  0.115374  0.0937  0  1.010848  0
H  H21  1  0.19452847  0.20321556  0.00707094  1  0  0.086055  0  0.949571  0  0  0.095723  0  1.009399  0  0  0.098429  0  1.007179  0  0  0.115387  0.093729  0  1.010832  0
H  H22  1  0.98431868  0.84019274  0.79911622  1  0  0.097719  0  0.956899  0  0  0.110515  0  1.014531  0  0  0.11311  0  1.014755  0  0  0.105345  0.108904  0  1.013935  0
H  H23  1  0.01568324  0.15980634  0.20088495  1  0  0.097736  0  0.956884  0  0  0.110539  0  1.014503  0  0  0.113126  0  1.014735  0  0  0.10534  0.108926  0  1.013907  0
H  H24  1  0.66181782  0.20872164  0.42846766  1  0  0.102838  0  0.955936  0  0  0.112434  0  1.019437  0  0  0.115807  0  1.017622  0  0  0.102242  0.11018  0  1.02056  0
H  H25  1  0.33818404  0.79127747  0.57153075  1  0  0.102771  0  0.955989  0  0  0.112379  0  1.019479  0  0  0.115749  0  1.017663  0  0  0.102225  0.110126  0  1.020599  0
H  H26  1  0.70480693  0.78317519  0.47657513  1  0  0.098781  0  0.956138  0  0  0.107376  0  1.022803  0  0  0.111142  0  1.020364  0  0  0.10113  0.104741  0  1.024514  0
H  H27  1  0.29519340  0.21682593  0.52342283  1  0  0.098787  0  0.956139  0  0  0.107379  0  1.022804  0  0  0.111144  0  1.020364  0  0  0.10113  0.104744  0  1.024515  0
H  H28  1  0.57946617  0.06695119  0.10988073  1  0  0.120479  0  0.947713  0  0  0.127084  0  1.015228  0  0  0.131561  0  1.010924  0  0  0.108343  0.123812  0  1.018708  0
H  H29  1  0.42053058  0.93305094  0.89011818  1  0  0.12038  0  0.947832  0  0  0.127073  0  1.015246  0  0  0.131552  0  1.010942  0  0  0.108333  0.1238  0  1.018729  0
H  H30  1  0.85820060  0.97036740  0.60879183  1  0  0.092463  0  0.965458  0  0  0.113912  0  1.032127  0  0  0.114466  0  1.032325  0  0  0.084128  0.1139  0  1.031479  0
H  H31  1  0.14180110  0.02963270  0.39120815  1  0  0.092489  0  0.965435  0  0  0.113934  0  1.032112  0  0  0.114488  0  1.03231  0  0  0.084142  0.113922  0  1.031463  0
H  H32  1  0.71806431  0.86388369  0.66389883  1  0  0.108566  0  0.960748  0  0  0.130716  0  1.017964  0  0  0.1315  0  1.019504  0  0  0.088689  0.129801  0  1.017662  0
H  H33  1  0.28193733  0.13611644  0.33609838  1  0  0.108551  0  0.960751  0  0  0.130685  0  1.017988  0  0  0.131469  0  1.019532  0  0  0.088678  0.129769  0  1.017685  0
H  H34  1  0.67039526  0.03882520  0.65129420  1  0  0.114925  0  0.9541  0  0  0.13663  0  1.01257  0  0  0.137077  0  1.01464  0  0  0.091618  0.136204  0  1.011398  0
H  H35  1  0.32960546  0.96117391  0.34870430  1  0  0.114905  0  0.954096  0  0  0.136613  0  1.012562  0  0  0.13706  0  1.014631  0  0  0.091606  0.136187  0  1.011389  0
C  C36  1  0.24134657  0.77390298  0.16832707  1  0  0.148326  0  3.76026  0  0  0.115636  0  4.014506  0  0  0.126557  0  4.032518  0  0  0.038089  0.108429  0  4.002287  0
C  C37  1  0.75865286  0.22609712  0.83167311  1  0  0.148379  0  3.760316  0  0  0.115666  0  4.014586  0  0  0.126587  0  4.032595  0  0  0.038087  0.10845  0  4.002365  0
C  C38  1  0.11173993  0.83963731  0.22001942  1  0  -0.181998  0  3.822241  0  0  -0.196929  0  4.083549  0  0  -0.208293  0  4.106558  0  0  -0.116994  -0.189775  0  4.068039  0
C  C39  1  0.88825933  0.16036380  0.77998141  1  0  -0.181935  0  3.822213  0  0  -0.196891  0  4.083536  0  0  -0.208252  0  4.106542  0  0  -0.116972  -0.189741  0  4.068028  0
C  C40  1  0.07147514  0.78358946  0.34940024  1  0  -0.039861  0  3.763327  0  0  -0.066193  0  4.012999  0  0  -0.05907  0  4.030963  0  0  -0.075729  -0.07041  0  4.000421  0
C  C41  1  0.92852562  0.21640964  0.65060011  1  0  -0.039863  0  3.763311  0  0  -0.066199  0  4.013012  0  0  -0.059073  0  4.030966  0  0  -0.075722  -0.070414  0  4.000429  0
C  C42  1  0.15575051  0.66354630  0.42343816  1  0  -0.086744  0  3.774233  0  0  -0.060994  0  4.006865  0  0  -0.071713  0  4.032345  0  0  -0.022017  -0.054351  0  3.990196  0
C  C43  1  0.84424816  0.33645180  0.57656172  1  0  -0.086744  0  3.774205  0  0  -0.060995  0  4.006834  0  0  -0.071714  0  4.032309  0  0  -0.022038  -0.05435  0  3.990164  0
C  C44  1  0.28308334  0.59786768  0.36001915  1  0  0.451833  0  3.803124  0  0  0.417552  0  4.065044  0  0  0.438168  0  4.079664  0  0  0.233093  0.403578  0  4.054894  0
C  C45  1  0.71691721  0.40213243  0.63998000  1  0  0.451826  0  3.803145  0  0  0.417558  0  4.065039  0  0  0.438174  0  4.079657  0  0  0.233101  0.403581  0  4.054893  0
C  C46  1  0.11048930  0.60703808  0.55833693  1  0  -0.050216  0  3.695609  0  0  -0.073189  0  3.945213  0  0  -0.070129  0  3.964138  0  0  -0.076883  -0.075709  0  3.933572  0
C  C47  1  0.88951035  0.39296101  0.44166444  1  0  -0.050212  0  3.695591  0  0  -0.073187  0  3.945206  0  0  -0.070126  0  3.964133  0  0  -0.076886  -0.075708  0  3.933563  0
C  C48  1  0.05346424  0.68701326  0.63516086  1  0  -0.128794  0  3.736745  0  0  -0.147894  0  3.990172  0  0  -0.153984  0  4.011565  0  0  -0.091897  -0.144305  0  3.977113  0
C  C49  1  0.94653541  0.31298583  0.36484051  1  0  -0.128766  0  3.73671  0  0  -0.147899  0  3.990113  0  0  -0.153991  0  4.01151  0  0  -0.091883  -0.144308  0  3.97705  0
C  C50  1  0.97882910  0.64925949  0.76224926  1  0  0.145932  0  3.795904  0  0  0.158654  0  4.02763  0  0  0.165904  0  4.048345  0  0  0.008009  0.153804  0  4.014342  0
C  C51  1  0.02117395  0.35073960  0.23775182  1  0  0.145929  0  3.795842  0  0  0.158672  0  4.027546  0  0  0.165921  0  4.048264  0  0  0.007994  0.153823  0  4.014256  0
C  C52  1  0.92467911  0.52644599  0.81554514  1  0  -0.150635  0  3.674207  0  0  -0.168221  0  3.921263  0  0  -0.175969  0  3.942057  0  0  -0.082468  -0.162013  0  3.906504  0
C  C53  1  0.07532375  0.47355411  0.18445566  1  0  -0.150686  0  3.67425  0  0  -0.168273  0  3.9213  0  0  -0.17602  0  3.942102  0  0  -0.082481  -0.162066  0  3.906538  0
C  C54  1  0.82855346  0.50971855  0.92528648  1  0  0.124821  0  3.725898  0  0  0.090459  0  3.983768  0  0  0.098484  0  4.002536  0  0  0.036068  0.085088  0  3.969789  0
C  C55  1  0.17144957  0.49028054  0.07471367  1  0  0.124854  0  3.725767  0  0  0.090455  0  3.983645  0  0  0.098474  0  4.002421  0  0  0.036073  0.085094  0  3.969658  0
C  C56  1  0.84398085  0.72111628  0.94140198  1  0  0.12454  0  3.737815  0  0  0.094452  0  3.984111  0  0  0.102259  0  4.002893  0  0  0.040477  0.089974  0  3.970045  0
C  C57  1  0.15602030  0.27888080  0.05859891  1  0  0.124468  0  3.737836  0  0  0.094413  0  3.984141  0  0  0.102221  0  4.002919  0  0  0.040438  0.089934  0  3.970074  0
C  C58  1  0.94212823  0.74449575  0.83313480  1  0  -0.171918  0  3.720498  0  0  -0.18501  0  3.962965  0  0  -0.193494  0  3.983847  0  0  -0.08477  -0.18005  0  3.948078  0
C  C59  1  0.05787392  0.25550231  0.16686849  1  0  -0.171955  0  3.720532  0  0  -0.185049  0  3.962948  0  0  -0.193526  0  3.983832  0  0  -0.084764  -0.180088  0  3.948059  0
C  C60  1  0.62044891  0.15297921  0.26053357  1  0  -0.077129  0  3.782278  0  0  -0.049621  0  4.019121  0  0  -0.059212  0  4.042756  0  0  -0.024759  -0.043382  0  4.003786  0
C  C61  1  0.37954712  0.84702090  0.73946690  1  0  -0.077217  0  3.782223  0  0  -0.049706  0  4.019096  0  0  -0.059299  0  4.042731  0  0  -0.024794  -0.043427  0  4.003713  0
C  C62  1  0.65824658  0.12485854  0.38974513  1  0  -0.11471  0  3.690097  0  0  -0.148794  0  3.935072  0  0  -0.147391  0  3.953927  0  0  -0.083837  -0.148801  0  3.921521  0
C  C63  1  0.34174944  0.87514156  0.61025533  1  0  -0.114585  0  3.690098  0  0  -0.148675  0  3.935072  0  0  -0.147266  0  3.953921  0  0  -0.083797  -0.148696  0  3.921512  0
C  C64  1  0.69098348  0.99238584  0.46873792  1  0  0.129873  0  3.781608  0  0  0.161231  0  4.018269  0  0  0.159407  0  4.043309  0  0  -0.011852  0.162479  0  4.000259  0
C  C65  1  0.30901861  0.00761224  0.53126260  1  0  0.12985  0  3.781618  0  0  0.161205  0  4.018283  0  0  0.159381  0  4.043321  0  0  -0.011867  0.162452  0  4.000278  0
C  C66  1  0.68239356  0.88750167  0.41639294  1  0  -0.118223  0  3.691315  0  0  -0.149635  0  3.933847  0  0  -0.148634  0  3.952015  0  0  -0.082243  -0.149487  0  3.920506  0
C  C67  1  0.31760790  0.11249945  0.58360493  1  0  -0.11823  0  3.691283  0  0  -0.14964  0  3.933788  0  0  -0.148633  0  3.951962  0  0  -0.08223  -0.149493  0  3.920452  0
C  C68  1  0.64370774  0.91364235  0.28758037  1  0  -0.061687  0  3.775061  0  0  -0.03541  0  4.009764  0  0  -0.044013  0  4.032729  0  0  -0.020894  -0.029773  0  3.994301  0
C  C69  1  0.35629148  0.08635877  0.71241861  1  0  -0.061654  0  3.775074  0  0  -0.035357  0  4.009772  0  0  -0.043977  0  4.032763  0  0  -0.020881  -0.02972  0  3.994315  0
C  C70  1  0.61306428  0.04694386  0.20911451  1  0  -0.076211  0  3.681601  0  0  -0.114875  0  3.929813  0  0  -0.11229  0  3.947995  0  0  -0.078425  -0.11689  0  3.918721  0
C  C71  1  0.38693341  0.95305928  0.79088403  1  0  -0.076108  0  3.681647  0  0  -0.114871  0  3.929862  0  0  -0.112281  0  3.948051  0  0  -0.078438  -0.116899  0  3.918762  0
C  C72  1  0.59065524  0.29675111  0.17880731  1  0  0.672882  0  3.891171  0  0  0.617689  0  4.184025  0  0  0.653889  0  4.175291  0  0  0.213299  0.593063  0  4.188483  0
C  C73  1  0.40934287  0.70325000  0.82119270  1  0  0.672869  0  3.891199  0  0  0.617673  0  4.184043  0  0  0.653872  0  4.175311  0  0  0.213268  0.593035  0  4.188506  0
C  C74  1  0.63170160  0.79932458  0.23485840  1  0  0.623673  0  3.942759  0  0  0.576319  0  4.230257  0  0  0.610134  0  4.225739  0  0  0.19039  0.553388  0  4.231708  0
C  C75  1  0.36829626  0.20067755  0.76513949  1  0  0.623516  0  3.942767  0  0  0.576115  0  4.230295  0  0  0.609935  0  4.22578  0  0  0.190361  0.553185  0  4.231746  0
C  C76  1  0.73574937  0.96454842  0.60547314  1  0  -0.338373  0  3.74635  0  0  -0.422027  0  3.983007  0  0  -0.42451  0  3.995553  0  0  -0.245404  -0.42043  0  3.974445  0
C  C77  1  0.26425118  0.03545169  0.39452601  1  0  -0.338356  0  3.746291  0  0  -0.422  0  3.982967  0  0  -0.424485  0  3.995512  0  0  -0.245395  -0.420403  0  3.974405  0
N  N78  1  0.32502375  0.65727629  0.23514662  1  0  -0.457911  0  3.176096  0  0  -0.381209  0  3.441714  0  0  -0.406206  0  3.457923  0  0  -0.34305  -0.364595  0  3.430636  0
N  N79  1  0.67497472  0.34272281  0.76485300  1  0  -0.457921  0  3.176073  0  0  -0.381228  0  3.441711  0  0  -0.406225  0  3.457917  0  0  -0.343049  -0.364612  0  3.430637  0
N  N80  1  0.78384355  0.60667524  0.98561170  1  0  -0.358868  0  3.269192  0  0  -0.275571  0  3.533524  0  0  -0.297674  0  3.553465  0  0  -0.336273  -0.260356  0  3.519741  0
N  N81  1  0.21615891  0.39332083  0.01438843  1  0  -0.358894  0  3.269198  0  0  -0.275593  0  3.533529  0  0  -0.297696  0  3.553473  0  0  -0.336262  -0.260376  0  3.519741  0
N  N82  1  0.36443612  0.47736135  0.42035979  1  0  -0.668128  0  3.120796  0  0  -0.628738  0  3.355062  0  0  -0.651892  0  3.353347  0  0  -0.574404  -0.61358  0  3.356759  0
N  N83  1  0.63556331  0.52263875  0.57964039  1  0  -0.66817  0  3.12083  0  0  -0.628755  0  3.355126  0  0  -0.651909  0  3.35341  0  0  -0.574402  -0.613594  0  3.356824  0
O  O84  1  0.58115585  0.38744098  0.23799214  1  0  -0.658056  0  2.067176  0  0  -0.582725  0  2.322458  0  0  -0.612273  0  2.310101  0  0  -0.325121  -0.560795  0  2.33069  0
O  O85  1  0.41884472  0.61255913  0.76200794  1  0  -0.658064  0  2.067156  0  0  -0.582733  0  2.322449  0  0  -0.612275  0  2.310084  0  0  -0.325107  -0.560807  0  2.330697  0
O  O86  1  0.58245319  0.32165202  0.05793933  1  0  -0.66551  0  2.08124  0  0  -0.601713  0  2.351672  0  0  -0.629285  0  2.337191  0  0  -0.328212  -0.58099  0  2.359226  0
O  O87  1  0.41754602  0.67834910  0.94205965  1  0  -0.665493  0  2.081244  0  0  -0.601695  0  2.351691  0  0  -0.629271  0  2.337216  0  0  -0.32819  -0.580955  0  2.359217  0
O  O88  1  0.58825928  0.82849999  0.11910265  1  0  -0.631596  0  1.969298  0  0  -0.569393  0  2.206347  0  0  -0.598598  0  2.197358  0  0  -0.327998  -0.54874  0  2.212046  0
O  O89  1  0.41173880  0.17150113  0.88089643  1  0  -0.631682  0  1.969384  0  0  -0.569367  0  2.206345  0  0  -0.598573  0  2.197357  0  0  -0.328025  -0.548718  0  2.212054  0
O  O90  1  0.66338330  0.67782162  0.30633154  1  0  -0.660824  0  1.95909  0  0  -0.601781  0  2.195017  0  0  -0.628467  0  2.185545  0  0  -0.334183  -0.581433  0  2.200042  0
O  O91  1  0.33661666  0.32218151  0.69366681  1  0  -0.660669  0  1.95904  0  0  -0.601643  0  2.195009  0  0  -0.628319  0  2.185519  0  0  -0.334132  -0.581295  0  2.200036  0
