# generated using pymatgen
data_CdH14C12(N3O4)2
_symmetry_space_group_name_H-M   'P 1'
_cell_length_a   7.21411110
_cell_length_b   8.82093691
_cell_length_c   13.07614013
_cell_angle_alpha   90.00012634
_cell_angle_beta   89.99965969
_cell_angle_gamma   93.36480491
_symmetry_Int_Tables_number   1
_chemical_formula_structural   CdH14C12(N3O4)2
_chemical_formula_sum   'Cd2 H28 C24 N12 O16'
_cell_volume   830.66855205
_cell_formula_units_Z   2
loop_
 _symmetry_equiv_pos_site_id
 _symmetry_equiv_pos_as_xyz
  1  'x, y, z'
loop_
 _atom_site_type_symbol
 _atom_site_label
 _atom_site_symmetry_multiplicity
 _atom_site_fract_x
 _atom_site_fract_y
 _atom_site_fract_z
 _atom_site_occupancy
 _atom_site_hle17_bader_spin_density
 _atom_site_hle17_ddec_charge
 _atom_site_hle17_ddec_spin_density
 _atom_site_hle17_ddec_sum_bond_order
 _atom_site_hle17_magmom
 _atom_site_hse06_10hf_bader_spin_density
 _atom_site_hse06_10hf_ddec_charge
 _atom_site_hse06_10hf_ddec_spin_density
 _atom_site_hse06_10hf_ddec_sum_bond_order
 _atom_site_hse06_10hf_magmom
 _atom_site_hse06_bader_spin_density
 _atom_site_hse06_ddec_charge
 _atom_site_hse06_ddec_spin_density
 _atom_site_hse06_ddec_sum_bond_order
 _atom_site_hse06_magmom
 _atom_site_pbe_bader_spin_density
 _atom_site_pbe_cm5_charge
 _atom_site_pbe_ddec_charge
 _atom_site_pbe_ddec_spin_density
 _atom_site_pbe_ddec_sum_bond_order
 _atom_site_pbe_magmom
Cd  Cd0  1  0.99999332  0.50000115  0.49999416  1  0  1.158629  0  1.625716  0  0  0.958982  0  2.072652  0  0  1.013159  0  2.021401  0  0  0.79484  0.918025  0  2.109876  0
Cd  Cd1  1  0.49999904  0.49999539  0.00000186  1  0  1.158656  0  1.625663  0  0  0.959013  0  2.072625  0  0  1.01319  0  2.021367  0  0  0.794868  0.918051  0  2.109856  0
H  H2  1  0.36382392  0.39151568  0.58873919  1  0  0.421454  0  0.882477  0  0  0.385637  0  0.955515  0  0  0.397119  0  0.938525  0  0  0.288813  0.377365  0  0.967729  0
H  H3  1  0.13616297  0.60848201  0.08875120  1  0  0.421315  0  0.882657  0  0  0.385493  0  0.955717  0  0  0.396983  0  0.938715  0  0  0.288774  0.377222  0  0.96793  0
H  H4  1  0.63616240  0.60848876  0.41124464  1  0  0.421273  0  0.882712  0  0  0.385545  0  0.955672  0  0  0.397028  0  0.938665  0  0  0.288804  0.377275  0  0.967883  0
H  H5  1  0.86382430  0.39151111  0.91125021  1  0  0.421427  0  0.882511  0  0  0.385624  0  0.955547  0  0  0.39711  0  0.938549  0  0  0.288842  0.377355  0  0.967757  0
H  H6  1  0.19935502  0.32727050  0.66091438  1  0  0.421337  0  0.875933  0  0  0.390061  0  0.941559  0  0  0.399958  0  0.926814  0  0  0.292838  0.382864  0  0.952309  0
H  H7  1  0.30063666  0.67272750  0.16092442  1  0  0.421236  0  0.87607  0  0  0.389987  0  0.941649  0  0  0.399884  0  0.926905  0  0  0.292778  0.38279  0  0.952398  0
H  H8  1  0.80063524  0.67272836  0.33907021  1  0  0.421323  0  0.875954  0  0  0.390071  0  0.941571  0  0  0.399955  0  0.926833  0  0  0.292796  0.382881  0  0.952318  0
H  H9  1  0.69935352  0.32726909  0.83907623  1  0  0.421264  0  0.876016  0  0  0.389969  0  0.941662  0  0  0.399873  0  0.926914  0  0  0.292769  0.382771  0  0.952411  0
H  H10  1  0.98557861  0.49928702  0.26132512  1  0  0.073631  0  0.988275  0  0  0.077337  0  1.062432  0  0  0.079475  0  1.060674  0  0  0.111501  0.075646  0  1.063861  0
H  H11  1  0.51443318  0.50071070  0.76133201  1  0  0.073585  0  0.988224  0  0  0.077288  0  1.0624  0  0  0.079426  0  1.060639  0  0  0.111501  0.075595  0  1.063835  0
H  H12  1  0.01443386  0.50071233  0.73866253  1  0  0.073594  0  0.988316  0  0  0.077309  0  1.062459  0  0  0.079446  0  1.060699  0  0  0.11154  0.075621  0  1.06389  0
H  H13  1  0.48556532  0.49928607  0.23867017  1  0  0.073625  0  0.988254  0  0  0.077338  0  1.0624  0  0  0.079474  0  1.060645  0  0  0.11147  0.075647  0  1.06383  0
H  H14  1  0.00584500  0.32438292  0.11199353  1  0  0.125582  0  0.957571  0  0  0.129469  0  1.027355  0  0  0.133332  0  1.024872  0  0  0.111653  0.126503  0  1.029486  0
H  H15  1  0.49417057  0.67560980  0.61200065  1  0  0.125624  0  0.957455  0  0  0.129458  0  1.027282  0  0  0.133327  0  1.024794  0  0  0.111641  0.126483  0  1.029428  0
H  H16  1  0.99418368  0.67560544  0.88799488  1  0  0.125615  0  0.957511  0  0  0.12946  0  1.027338  0  0  0.133321  0  1.024861  0  0  0.111657  0.126497  0  1.029468  0
H  H17  1  0.50582968  0.32439609  0.38800383  1  0  0.125579  0  0.957708  0  0  0.12949  0  1.027449  0  0  0.133377  0  1.024944  0  0  0.11168  0.126515  0  1.029588  0
H  H18  1  0.11406477  0.96586428  0.32605931  1  0  0.125484  0  0.952556  0  0  0.131215  0  1.018247  0  0  0.134897  0  1.016687  0  0  0.109157  0.127671  0  1.020724  0
H  H19  1  0.38593053  0.03412975  0.82606121  1  0  0.125497  0  0.952661  0  0  0.131257  0  1.01831  0  0  0.134943  0  1.016746  0  0  0.109172  0.127712  0  1.02079  0
H  H20  1  0.88593356  0.03412795  0.67394440  1  0  0.125573  0  0.952599  0  0  0.131293  0  1.01828  0  0  0.134978  0  1.016717  0  0  0.109162  0.127744  0  1.020774  0
H  H21  1  0.61408185  0.96586733  0.17395397  1  0  0.125506  0  0.952632  0  0  0.131276  0  1.018269  0  0  0.134961  0  1.016704  0  0  0.109139  0.127728  0  1.020764  0
H  H22  1  0.09318989  0.15783349  0.46701317  1  0  0.090921  0  0.933039  0  0  0.099927  0  0.995296  0  0  0.102478  0  0.992371  0  0  0.119623  0.097954  0  0.997626  0
H  H23  1  0.40678600  0.84216392  0.96701700  1  0  0.090983  0  0.933028  0  0  0.100052  0  0.995218  0  0  0.102587  0  0.992309  0  0  0.119697  0.09808  0  0.997549  0
H  H24  1  0.90679075  0.84216743  0.53298366  1  0  0.090952  0  0.933018  0  0  0.1  0  0.995247  0  0  0.102544  0  0.992326  0  0  0.119654  0.098028  0  0.997576  0
H  H25  1  0.59322356  0.15783196  0.03299589  1  0  0.091045  0  0.933086  0  0  0.099998  0  0.995377  0  0  0.102588  0  0.992407  0  0  0.119677  0.098025  0  0.997705  0
H  H26  1  0.12441937  0.91280957  0.13585175  1  0  0.086697  0  0.936465  0  0  0.092775  0  1.007251  0  0  0.096586  0  1.002538  0  0  0.119007  0.089628  0  1.01124  0
H  H27  1  0.37558528  0.08719432  0.63586294  1  0  0.086647  0  0.936498  0  0  0.092755  0  1.007244  0  0  0.096567  0  1.002533  0  0  0.118973  0.089607  0  1.011239  0
H  H28  1  0.87559166  0.08718861  0.86414508  1  0  0.086527  0  0.936182  0  0  0.092608  0  1.007003  0  0  0.09642  0  1.002292  0  0  0.118923  0.089459  0  1.010998  0
H  H29  1  0.62441935  0.91281733  0.36415378  1  0  0.086483  0  0.936397  0  0  0.092625  0  1.007126  0  0  0.096437  0  1.002418  0  0  0.118947  0.08948  0  1.011118  0
C  C30  1  0.01278941  0.38017338  0.27217768  1  0  0.116568  0  3.721606  0  0  0.08585  0  3.97313  0  0  0.09147  0  3.99509  0  0  0.035222  0.081673  0  3.95925  0
C  C31  1  0.48721774  0.61982529  0.77218779  1  0  0.116665  0  3.721421  0  0  0.085948  0  3.972906  0  0  0.09157  0  3.99486  0  0  0.035195  0.0818  0  3.958978  0
C  C32  1  0.98721868  0.61982020  0.72780844  1  0  0.116622  0  3.721298  0  0  0.085918  0  3.972768  0  0  0.091538  0  3.994722  0  0  0.035101  0.081738  0  3.9589  0
C  C33  1  0.51278922  0.38017507  0.22781974  1  0  0.116495  0  3.721652  0  0  0.085822  0  3.973151  0  0  0.091442  0  3.995118  0  0  0.035241  0.081653  0  3.959252  0
C  C34  1  0.02422043  0.28315181  0.18953700  1  0  -0.133401  0  3.673024  0  0  -0.153817  0  3.920814  0  0  -0.16053  0  3.94205  0  0  -0.07589  -0.149432  0  3.906886  0
C  C35  1  0.47578867  0.71683872  0.68954500  1  0  -0.133489  0  3.67272  0  0  -0.153834  0  3.92055  0  0  -0.160552  0  3.941779  0  0  -0.075861  -0.149448  0  3.906639  0
C  C36  1  0.97579580  0.71683741  0.81045524  1  0  -0.133454  0  3.672569  0  0  -0.153835  0  3.920444  0  0  -0.160545  0  3.941669  0  0  -0.075811  -0.149453  0  3.906523  0
C  C37  1  0.52421444  0.28316950  0.31046483  1  0  -0.133409  0  3.672921  0  0  -0.153846  0  3.920746  0  0  -0.160563  0  3.941925  0  0  -0.075895  -0.149464  0  3.906848  0
C  C38  1  0.05935262  0.13055757  0.20745648  1  0  0.096071  0  3.778855  0  0  0.111036  0  4.009281  0  0  0.113963  0  4.032009  0  0  0.011774  0.109407  0  3.993395  0
C  C39  1  0.44065378  0.86943976  0.70746330  1  0  0.096137  0  3.778603  0  0  0.111001  0  4.00919  0  0  0.113931  0  4.031913  0  0  0.011798  0.109368  0  3.993309  0
C  C40  1  0.94065976  0.86943951  0.79253958  1  0  0.096234  0  3.778527  0  0  0.11109  0  4.009071  0  0  0.114021  0  4.031794  0  0  0.011848  0.10946  0  3.99319  0
C  C41  1  0.55935313  0.13055947  0.29254653  1  0  0.09609  0  3.778622  0  0  0.110953  0  4.009245  0  0  0.113882  0  4.03198  0  0  0.011773  0.109322  0  3.993356  0
C  C42  1  0.08543470  0.08321608  0.30865446  1  0  -0.14366  0  3.657274  0  0  -0.160581  0  3.901745  0  0  -0.168923  0  3.923743  0  0  -0.073362  -0.154553  0  3.887241  0
C  C43  1  0.41456910  0.91677808  0.80865915  1  0  -0.143757  0  3.657386  0  0  -0.160671  0  3.901902  0  0  -0.169016  0  3.923891  0  0  -0.073413  -0.15464  0  3.887399  0
C  C44  1  0.91457347  0.91677977  0.69134466  1  0  -0.14385  0  3.657289  0  0  -0.160721  0  3.901791  0  0  -0.169065  0  3.923782  0  0  -0.073409  -0.154695  0  3.887288  0
C  C45  1  0.58542819  0.08322320  0.19135527  1  0  -0.143677  0  3.65756  0  0  -0.160585  0  3.901971  0  0  -0.168932  0  3.92398  0  0  -0.073374  -0.15456  0  3.887467  0
C  C46  1  0.07179338  0.18822083  0.38734904  1  0  0.13958  0  3.693466  0  0  0.105976  0  3.946034  0  0  0.113921  0  3.964589  0  0  0.048986  0.100609  0  3.933235  0
C  C47  1  0.42819575  0.81177437  0.88735581  1  0  0.13961  0  3.693513  0  0  0.10594  0  3.94606  0  0  0.113901  0  3.964618  0  0  0.048929  0.100568  0  3.933269  0
C  C48  1  0.92819683  0.81177689  0.61264473  1  0  0.139638  0  3.693301  0  0  0.105976  0  3.945849  0  0  0.11393  0  3.964405  0  0  0.048968  0.10061  0  3.933053  0
C  C49  1  0.57181081  0.18821577  0.11265325  1  0  0.139446  0  3.693348  0  0  0.105914  0  3.94587  0  0  0.11383  0  3.964411  0  0  0.048933  0.100546  0  3.933075  0
C  C50  1  0.06524417  0.02297055  0.12303545  1  0  0.09808  0  3.62637  0  0  0.065412  0  3.887146  0  0  0.071371  0  3.899349  0  0  0.08044  0.061215  0  3.879275  0
C  C51  1  0.43476751  0.97703231  0.62304399  1  0  0.098157  0  3.626224  0  0  0.065489  0  3.887064  0  0  0.071447  0  3.899261  0  0  0.080561  0.061292  0  3.879193  0
C  C52  1  0.93477918  0.97702336  0.87696520  1  0  0.098228  0  3.626235  0  0  0.065612  0  3.887006  0  0  0.071564  0  3.899212  0  0  0.080518  0.061414  0  3.879133  0
C  C53  1  0.56523152  0.02297808  0.37697196  1  0  0.098207  0  3.62654  0  0  0.065503  0  3.887406  0  0  0.071451  0  3.899622  0  0  0.080514  0.061305  0  3.879536  0
N  N54  1  0.03487788  0.33378907  0.36959397  1  0  -0.345722  0  3.283553  0  0  -0.258109  0  3.542912  0  0  -0.280895  0  3.565326  0  0  -0.33371  -0.241685  0  3.527333  0
N  N55  1  0.46511830  0.66620397  0.86959887  1  0  -0.345847  0  3.283545  0  0  -0.258209  0  3.542918  0  0  -0.28099  0  3.565315  0  0  -0.33376  -0.24179  0  3.527352  0
N  N56  1  0.96512058  0.66620657  0.63039903  1  0  -0.345864  0  3.283373  0  0  -0.258221  0  3.542741  0  0  -0.281008  0  3.565151  0  0  -0.333761  -0.241798  0  3.527173  0
N  N57  1  0.53488432  0.33379176  0.13040637  1  0  -0.34567  0  3.28321  0  0  -0.258105  0  3.542549  0  0  -0.280894  0  3.564976  0  0  -0.333712  -0.24168  0  3.52697  0
N  N58  1  0.99437703  0.05760787  0.03568097  1  0  -0.194421  0  3.026176  0  0  -0.165058  0  3.315745  0  0  -0.17444  0  3.334118  0  0  -0.206492  -0.158477  0  3.303125  0
N  N59  1  0.50563182  0.94239480  0.53569085  1  0  -0.194522  0  3.026054  0  0  -0.165157  0  3.315622  0  0  -0.174539  0  3.333992  0  0  -0.206562  -0.158577  0  3.303004  0
N  N60  1  0.00563794  0.94238472  0.96431357  1  0  -0.194552  0  3.026394  0  0  -0.165189  0  3.315935  0  0  -0.17457  0  3.334308  0  0  -0.206581  -0.158609  0  3.303315  0
N  N61  1  0.49437007  0.05761792  0.46432433  1  0  -0.194371  0  3.026456  0  0  -0.16498  0  3.316023  0  0  -0.17436  0  3.3344  0  0  -0.206579  -0.158399  0  3.303403  0
N  N62  1  0.30901739  0.67803472  0.37105217  1  0  0.6912  0  4.145074  0  0  0.712969  0  4.453546  0  0  0.740462  0  4.459548  0  0  0.09839  0.693631  0  4.448673  0
N  N63  1  0.19097116  0.32197630  0.87105285  1  0  0.691382  0  4.144556  0  0  0.713075  0  4.453094  0  0  0.740574  0  4.459094  0  0  0.098406  0.693738  0  4.448222  0
N  N64  1  0.69097211  0.32198000  0.62894389  1  0  0.691276  0  4.144656  0  0  0.713046  0  4.45314  0  0  0.740513  0  4.459135  0  0  0.098462  0.693704  0  4.448279  0
N  N65  1  0.80901803  0.67803048  0.12894551  1  0  0.691354  0  4.144905  0  0  0.713119  0  4.453368  0  0  0.740603  0  4.459373  0  0  0.098458  0.693783  0  4.448495  0
O  O66  1  0.14757979  0.71326115  0.39773541  1  0  -0.471525  0  1.811644  0  0  -0.446277  0  2.046292  0  0  -0.463638  0  2.03826  0  0  -0.18738  -0.433133  0  2.052114  0
O  O67  1  0.35240117  0.28674071  0.89774392  1  0  -0.471552  0  1.811302  0  0  -0.446369  0  2.04608  0  0  -0.463739  0  2.038058  0  0  -0.187393  -0.433223  0  2.051899  0
O  O68  1  0.85240236  0.28674320  0.60225606  1  0  -0.471546  0  1.811462  0  0  -0.446372  0  2.046181  0  0  -0.463729  0  2.038157  0  0  -0.18738  -0.433221  0  2.051999  0
O  O69  1  0.64758358  0.71325917  0.10225979  1  0  -0.471541  0  1.811526  0  0  -0.446331  0  2.046238  0  0  -0.463698  0  2.038213  0  0  -0.187364  -0.433182  0  2.052058  0
O  O70  1  0.38336771  0.73435840  0.29108201  1  0  -0.46448  0  1.791393  0  0  -0.450902  0  2.013861  0  0  -0.464076  0  2.005283  0  0  -0.181014  -0.440606  0  2.019668  0
O  O71  1  0.11663426  0.26565495  0.79107826  1  0  -0.464536  0  1.791224  0  0  -0.450897  0  2.01371  0  0  -0.464051  0  2.005095  0  0  -0.181005  -0.440606  0  2.019522  0
O  O72  1  0.61663029  0.26566104  0.70891711  1  0  -0.464567  0  1.791373  0  0  -0.45093  0  2.013799  0  0  -0.464101  0  2.005249  0  0  -0.181102  -0.440639  0  2.019614  0
O  O73  1  0.88336746  0.73435323  0.20891627  1  0  -0.464555  0  1.791419  0  0  -0.450963  0  2.013906  0  0  -0.464131  0  2.005317  0  0  -0.181032  -0.440668  0  2.019716  0
O  O74  1  0.39376524  0.58495660  0.42545104  1  0  -0.466313  0  1.812785  0  0  -0.441288  0  2.032944  0  0  -0.457744  0  2.026319  0  0  -0.172548  -0.429094  0  2.037276  0
O  O75  1  0.10621731  0.41505785  0.92544602  1  0  -0.466463  0  1.812847  0  0  -0.441348  0  2.033  0  0  -0.457796  0  2.026367  0  0  -0.172579  -0.42916  0  2.037336  0
O  O76  1  0.60622578  0.41506156  0.57454808  1  0  -0.466383  0  1.812769  0  0  -0.441302  0  2.032892  0  0  -0.457734  0  2.026266  0  0  -0.172552  -0.429098  0  2.037218  0
O  O77  1  0.89376628  0.58494767  0.07455004  1  0  -0.466423  0  1.812811  0  0  -0.441353  0  2.032953  0  0  -0.457802  0  2.026331  0  0  -0.1726  -0.429166  0  2.037293  0
O  O78  1  0.22768326  0.36922948  0.59270234  1  0  -0.846262  0  1.891221  0  0  -0.79102  0  2.098218  0  0  -0.811288  0  2.063633  0  0  -0.594355  -0.776093  0  2.122929  0
O  O79  1  0.27230583  0.63075466  0.09271624  1  0  -0.846054  0  1.89144  0  0  -0.790832  0  2.09845  0  0  -0.811085  0  2.063798  0  0  -0.594283  -0.775902  0  2.123157  0
O  O80  1  0.77230392  0.63076137  0.40727919  1  0  -0.846093  0  1.891454  0  0  -0.790978  0  2.098167  0  0  -0.811212  0  2.063643  0  0  -0.594337  -0.776063  0  2.122843  0
O  O81  1  0.72768099  0.36922711  0.90728900  1  0  -0.846144  0  1.891251  0  0  -0.790877  0  2.098223  0  0  -0.811162  0  2.063603  0  0  -0.594316  -0.775946  0  2.122929  0
