# generated using pymatgen
data_ZnH4C13NO8
_symmetry_space_group_name_H-M   'P 1'
_cell_length_a   8.16071652
_cell_length_b   9.20103328
_cell_length_c   15.21560278
_cell_angle_alpha   92.55140574
_cell_angle_beta   87.44177707
_cell_angle_gamma   95.00231508
_symmetry_Int_Tables_number   1
_chemical_formula_structural   ZnH4C13NO8
_chemical_formula_sum   'Zn2 H8 C26 N2 O16'
_cell_volume   1136.06081398
_cell_formula_units_Z   2
loop_
 _symmetry_equiv_pos_site_id
 _symmetry_equiv_pos_as_xyz
  1  'x, y, z'
loop_
 _atom_site_type_symbol
 _atom_site_label
 _atom_site_symmetry_multiplicity
 _atom_site_fract_x
 _atom_site_fract_y
 _atom_site_fract_z
 _atom_site_occupancy
 _atom_site_pbe_bader_charge
 _atom_site_pbe_bader_spin_density
 _atom_site_pbe_cm5_charge
 _atom_site_pbe_ddec_charge
 _atom_site_pbe_ddec_spin_density
 _atom_site_pbe_ddec_sum_bond_order
 _atom_site_pbe_magmom
Zn  Zn0  1  0.33780340  0.48208295  0.50210003  1  1.294969  0  0.690526  0.843409  0  2.442899  0
Zn  Zn1  1  0.66275642  0.51758745  0.49787465  1  1.304011  0  0.690641  0.84358  0  2.442122  0
H  H2  1  0.66959045  0.84293747  0.09765317  1  0.08023  0  0.108325  0.113378  0  0.996919  0
H  H3  1  0.33015470  0.15713916  0.90234776  1  0.080748  0  0.108184  0.113232  0  0.996782  0
H  H4  1  0.33174231  0.13990974  0.06166408  1  0.125109  0  0.110693  0.123323  0  1.00554  0
H  H5  1  0.66810370  0.86013338  0.93832207  1  0.12584  0  0.110507  0.122876  0  1.005332  0
H  H6  1  0.45206765  0.07344421  0.29780984  1  0.64084  0  0.334932  0.385419  0  0.869264  0
H  H7  1  0.54757986  0.92663820  0.70218568  1  0.640566  0  0.334714  0.384891  0  0.869614  0
H  H8  1  0.80589857  0.85693666  0.28318091  1  0.62706  0  0.356141  0.396236  0  0.826638  0
H  H9  1  0.19374153  0.14303478  0.71689198  1  0.625587  0  0.356241  0.396077  0  0.826977  0
C  C10  1  0.50880268  0.77848818  0.49193447  1  1.672336  0  0.227807  0.672144  0  4.221391  0
C  C11  1  0.49294382  0.22124976  0.50807985  1  1.677762  0  0.228869  0.67343  0  4.221633  0
C  C12  1  0.49883290  0.52641590  0.67037121  1  1.546632  0  0.220432  0.60852  0  4.167154  0
C  C13  1  0.50066015  0.47354298  0.32962622  1  1.549281  0  0.22056  0.60851  0  4.168162  0
C  C14  1  0.44233862  0.35406294  0.17975571  1  -0.051438  0  0.000574  -0.087004  0  3.882782  0
C  C15  1  0.55731244  0.64599020  0.82023869  1  -0.013615  0  0.001085  -0.08641  0  3.882856  0
C  C16  1  0.56378409  0.60555379  0.19167851  1  -0.000844  0  0.00055  -0.086056  0  3.896006  0
C  C17  1  0.43582209  0.39454340  0.80835320  1  -0.002286  0  0.000463  -0.086353  0  3.896386  0
C  C18  1  0.50345107  0.47576213  0.23096553  1  0.057633  0  0.00299  -0.041253  0  3.926879  0
C  C19  1  0.49608573  0.52431937  0.76903583  1  0.021977  0  0.002494  -0.041729  0  3.926744  0
C  C20  1  0.56376499  0.61718770  0.09959814  1  0.010069  0  0.005573  0.065126  0  4.008227  0
C  C21  1  0.43595892  0.38286110  0.90040919  1  0.010282  0  0.005323  0.065409  0  4.009027  0
C  C22  1  0.43913789  0.36202675  0.08703936  1  0.097025  0  0.009074  0.069102  0  3.983005  0
C  C23  1  0.56059307  0.63801260  0.91293619  1  0.094312  0  0.008861  0.068433  0  3.983359  0
C  C24  1  0.50053148  0.49464652  0.04669552  1  -0.04825  0  0.009395  0.007084  0  3.902878  0
C  C25  1  0.49919938  0.50540062  0.95331960  1  0.012336  0  0.009578  0.006963  0  3.902567  0
C  C26  1  0.62170659  0.74901860  0.05755877  1  0.026926  0  -0.083265  -0.118052  0  3.988872  0
C  C27  1  0.37801216  0.25104728  0.94244492  1  0.026955  0  -0.082857  -0.11732  0  3.988939  0
C  C28  1  0.37946156  0.24077882  0.03153237  1  -0.106941  0  -0.081254  -0.11711  0  3.977451  0
C  C29  1  0.62034474  0.75923238  0.96845705  1  -0.105305  0  -0.080611  -0.115631  0  3.976298  0
C  C30  1  0.50167967  0.93417544  0.49631659  1  0.272371  0  -0.020896  -0.108251  0  3.937063  0
C  C31  1  0.49990309  0.06555159  0.50372768  1  -0.447934  0  -0.021118  -0.108367  0  3.937489  0
C  C32  1  0.38249495  0.21380655  0.22202154  1  1.553405  0  0.232763  0.587236  0  4.109079  0
C  C33  1  0.61715427  0.78624942  0.77796174  1  1.551167  0  0.2321  0.586891  0  4.107733  0
C  C34  1  0.61677399  0.73768188  0.24849029  1  1.535519  0  0.239236  0.595884  0  4.121593  0
C  C35  1  0.38284656  0.26239811  0.75153049  1  1.540845  0  0.239408  0.595925  0  4.1222  0
N  N36  1  0.93455745  0.50910415  0.49748159  1  -0.021106  0  0.097071  0.140446  0  2.928573  0
N  N37  1  0.06610719  0.49098567  0.50254933  1  0.092865  0  0.097746  0.141381  0  2.928888  0
O  O38  1  0.37125125  0.70142366  0.49341424  1  -1.134548  0  -0.306946  -0.538235  0  2.278403  0
O  O39  1  0.63053085  0.29824826  0.50666907  1  -1.139417  0  -0.307685  -0.538587  0  2.276545  0
O  O40  1  0.34924809  0.26576484  0.51129087  1  -1.11667  0  -0.307741  -0.52626  0  2.261904  0
O  O41  1  0.65251527  0.73405009  0.48855935  1  -1.119475  0  -0.307158  -0.525263  0  2.260351  0
O  O42  1  0.36047581  0.50228224  0.63471733  1  -1.140863  0  -0.310145  -0.537533  0  2.313226  0
O  O43  1  0.63898502  0.49739243  0.36531313  1  -1.142629  0  -0.31031  -0.537819  0  2.313201  0
O  O44  1  0.36008796  0.45328225  0.36881078  1  -1.145073  0  -0.311104  -0.53527  0  2.293498  0
O  O45  1  0.63935468  0.54675905  0.63113844  1  -1.144427  0  -0.31101  -0.53538  0  2.292308  0
O  O46  1  0.25093550  0.14454081  0.20845139  1  -1.127001  0  -0.290629  -0.477883  0  2.053808  0
O  O47  1  0.49569320  0.16864810  0.27553811  1  -1.136536  0  -0.333778  -0.482913  0  2.223663  0
O  O48  1  0.74874818  0.85545196  0.79148719  1  -1.12872  0  -0.290701  -0.478212  0  2.05293  0
O  O49  1  0.50393229  0.83144578  0.72446901  1  -1.132618  0  -0.33319  -0.482039  0  2.223258  0
O  O50  1  0.52089830  0.81013347  0.29190597  1  -1.142745  0  -0.282045  -0.489948  0  2.101273  0
O  O51  1  0.78155441  0.76998091  0.24461288  1  -1.099856  0  -0.319123  -0.46313  0  2.206098  0
O  O52  1  0.47873117  0.18993290  0.70812043  1  -1.145679  0  -0.281927  -0.489817  0  2.102127  0
O  O53  1  0.21809058  0.23001124  0.75545500  1  -1.10068  0  -0.319362  -0.463078  0  2.206597  0
