# generated using pymatgen
data_AgH11C13SeN4O3
_symmetry_space_group_name_H-M   'P 1'
_cell_length_a   9.11601803
_cell_length_b   10.66011015
_cell_length_c   14.79500000
_cell_angle_alpha   91.26324623
_cell_angle_beta   90.00000000
_cell_angle_gamma   90.00000000
_symmetry_Int_Tables_number   1
_chemical_formula_structural   AgH11C13SeN4O3
_chemical_formula_sum   'Ag4 H44 C52 Se4 N16 O12'
_cell_volume   1437.39547180
_cell_formula_units_Z   4
loop_
 _symmetry_equiv_pos_site_id
 _symmetry_equiv_pos_as_xyz
  1  'x, y, z'
loop_
 _atom_site_type_symbol
 _atom_site_label
 _atom_site_symmetry_multiplicity
 _atom_site_fract_x
 _atom_site_fract_y
 _atom_site_fract_z
 _atom_site_occupancy
 _atom_site_hle17_bader_spin_density
 _atom_site_hle17_ddec_charge
 _atom_site_hle17_ddec_spin_density
 _atom_site_hle17_ddec_sum_bond_order
 _atom_site_hle17_magmom
 _atom_site_hse06_10hf_bader_spin_density
 _atom_site_hse06_10hf_ddec_charge
 _atom_site_hse06_10hf_ddec_spin_density
 _atom_site_hse06_10hf_ddec_sum_bond_order
 _atom_site_hse06_10hf_magmom
 _atom_site_hse06_bader_spin_density
 _atom_site_hse06_ddec_charge
 _atom_site_hse06_ddec_spin_density
 _atom_site_hse06_ddec_sum_bond_order
 _atom_site_hse06_magmom
 _atom_site_pbe_bader_charge
 _atom_site_pbe_bader_spin_density
 _atom_site_pbe_cm5_charge
 _atom_site_pbe_ddec_charge
 _atom_site_pbe_ddec_spin_density
 _atom_site_pbe_ddec_sum_bond_order
 _atom_site_pbe_magmom
Ag  Ag0  1  0.12752169  0.86296724  0.77369845  1  0  0.444476  0  1.441594  0  0  0.300513  0  1.896782  0  0  0.331563  0  1.849799  0  0.510173  0  0.399599  0.278096  0  1.929027  0
Ag  Ag1  1  0.62752289  0.63703474  0.72630290  1  0  0.444487  0  1.441566  0  0  0.300525  0  1.896744  0  0  0.331572  0  1.849766  0  0.510158  0  0.399613  0.278106  0  1.928992  0
Ag  Ag2  1  0.87247853  0.13703377  0.22630312  1  0  0.444484  0  1.441571  0  0  0.30054  0  1.896715  0  0  0.331586  0  1.849732  0  0.510163  0  0.399608  0.278119  0  1.928966  0
Ag  Ag3  1  0.37247732  0.36296064  0.27369723  1  0  0.444512  0  1.441563  0  0  0.300533  0  1.896737  0  0  0.331581  0  1.849755  0  0.510181  0  0.399621  0.278124  0  1.928967  0
H  H4  1  0.29491714  0.97802497  0.91844397  1  0  0.093813  0  0.971926  0  0  0.099497  0  1.045794  0  0  0.103328  0  1.042469  0  0.085436  0  0.09348  0.096703  0  1.048191  0
H  H5  1  0.79491506  0.52197607  0.58155601  1  0  0.093794  0  0.971913  0  0  0.099469  0  1.045805  0  0  0.103297  0  1.042483  0  0.08545  0  0.093484  0.096676  0  1.048196  0
H  H6  1  0.70508307  0.02197603  0.08155692  1  0  0.093793  0  0.971888  0  0  0.099481  0  1.045755  0  0  0.103308  0  1.042434  0  0.08542  0  0.093476  0.096688  0  1.048148  0
H  H7  1  0.20508516  0.47802306  0.41844350  1  0  0.093798  0  0.971949  0  0  0.099469  0  1.045835  0  0  0.103298  0  1.042512  0  0.085442  0  0.093466  0.096675  0  1.048231  0
H  H8  1  0.15268509  0.95462741  0.24236971  1  0  0.084236  0  0.997823  0  0  0.090189  0  1.068033  0  0  0.092267  0  1.067686  0  0.079408  0  0.097392  0.088534  0  1.068571  0
H  H9  1  0.65267971  0.54537551  0.25763098  1  0  0.084235  0  0.997751  0  0  0.090155  0  1.068023  0  0  0.092239  0  1.067668  0  0.079444  0  0.097381  0.088498  0  1.068567  0
H  H10  1  0.84731513  0.04537829  0.75763194  1  0  0.084235  0  0.997751  0  0  0.090157  0  1.068006  0  0  0.092236  0  1.067662  0  0.079457  0  0.097386  0.088504  0  1.068544  0
H  H11  1  0.34731612  0.45462550  0.74236856  1  0  0.084203  0  0.997795  0  0  0.090161  0  1.068007  0  0  0.092239  0  1.067665  0  0.07945  0  0.097382  0.088507  0  1.068543  0
H  H12  1  0.36612477  0.08296208  0.19856824  1  0  0.08729  0  0.963326  0  0  0.092376  0  1.038433  0  0  0.095613  0  1.035745  0  0.101267  0  0.094536  0.089887  0  1.040698  0
H  H13  1  0.86612049  0.41703983  0.30143155  1  0  0.087278  0  0.963291  0  0  0.092357  0  1.038403  0  0  0.095595  0  1.035713  0  0.101308  0  0.094523  0.08987  0  1.040669  0
H  H14  1  0.63387764  0.91703986  0.80143267  1  0  0.087342  0  0.963237  0  0  0.092409  0  1.038361  0  0  0.095648  0  1.035672  0  0.101295  0  0.094548  0.08992  0  1.040628  0
H  H15  1  0.13387534  0.58295836  0.69856660  1  0  0.087347  0  0.963205  0  0  0.09242  0  1.038315  0  0  0.095658  0  1.035627  0  0.101294  0  0.094547  0.089932  0  1.040581  0
H  H16  1  0.12227268  0.61640236  0.02057266  1  0  0.124438  0  0.94119  0  0  0.136483  0  1.003394  0  0  0.138195  0  1.001788  0  0.151293  0  0.117383  0.13494  0  1.004837  0
H  H17  1  0.62227389  0.88359399  0.47942657  1  0  0.124497  0  0.94109  0  0  0.136477  0  1.003385  0  0  0.138218  0  1.001742  0  0.151701  0  0.117381  0.134933  0  1.004829  0
H  H18  1  0.87772534  0.38359208  0.97942745  1  0  0.124423  0  0.941121  0  0  0.136442  0  1.00337  0  0  0.138165  0  1.001751  0  0.151737  0  0.11738  0.134898  0  1.004814  0
H  H19  1  0.37772852  0.11640420  0.52057428  1  0  0.124416  0  0.941137  0  0  0.136461  0  1.003347  0  0  0.138198  0  1.001704  0  0.151275  0  0.117377  0.134916  0  1.004792  0
H  H20  1  0.09336313  0.57002383  0.90321075  1  0  0.129138  0  0.961817  0  0  0.135121  0  1.034139  0  0  0.138211  0  1.030026  0  0.193223  0  0.117929  0.132459  0  1.037707  0
H  H21  1  0.59336653  0.92997533  0.59678785  1  0  0.129102  0  0.961809  0  0  0.135112  0  1.034081  0  0  0.138199  0  1.029973  0  0.193253  0  0.117942  0.13245  0  1.037648  0
H  H22  1  0.90663379  0.42997248  0.09678872  1  0  0.129065  0  0.961677  0  0  0.135071  0  1.033987  0  0  0.138157  0  1.029881  0  0.193468  0  0.117903  0.132408  0  1.037555  0
H  H23  1  0.40663698  0.07002474  0.40321235  1  0  0.129144  0  0.961816  0  0  0.135131  0  1.034129  0  0  0.138217  0  1.030018  0  0.193234  0  0.117954  0.132469  0  1.037697  0
H  H24  1  0.00988370  0.83519248  0.12561751  1  0  0.103877  0  0.947143  0  0  0.11464  0  1.009341  0  0  0.117935  0  1.007111  0  0.072017  0  0.102102  0.112211  0  1.010922  0
H  H25  1  0.50988162  0.66480949  0.37438519  1  0  0.103836  0  0.947221  0  0  0.114571  0  1.009453  0  0  0.117878  0  1.007202  0  0.072154  0  0.102078  0.112142  0  1.011035  0
H  H26  1  0.99011322  0.16481134  0.87438545  1  0  0.103858  0  0.947167  0  0  0.11461  0  1.009382  0  0  0.117905  0  1.007153  0  0.072244  0  0.102088  0.112183  0  1.01096  0
H  H27  1  0.49011750  0.33519245  0.62561640  1  0  0.103831  0  0.947189  0  0  0.114594  0  1.009382  0  0  0.117892  0  1.007149  0  0.072001  0  0.10209  0.112167  0  1.010962  0
H  H28  1  0.43758909  0.09433903  0.03596964  1  0  0.08542  0  0.979275  0  0  0.098323  0  1.035357  0  0  0.099816  0  1.036953  0  0.110271  0  0.09763  0.097452  0  1.033929  0
H  H29  1  0.93758590  0.40566288  0.46403015  1  0  0.08543  0  0.979298  0  0  0.098333  0  1.035386  0  0  0.099825  0  1.036983  0  0.110308  0  0.09765  0.097463  0  1.033956  0
H  H30  1  0.56241223  0.90566104  0.96403123  1  0  0.085444  0  0.979248  0  0  0.098306  0  1.03538  0  0  0.099799  0  1.036975  0  0.110265  0  0.097631  0.097436  0  1.033951  0
H  H31  1  0.06241102  0.59433625  0.53596801  1  0  0.085419  0  0.979287  0  0  0.098319  0  1.035383  0  0  0.099812  0  1.036979  0  0.110211  0  0.097635  0.097449  0  1.033954  0
H  H32  1  0.31390570  0.69646320  0.13098668  1  0  0.118212  0  0.968997  0  0  0.123925  0  1.035329  0  0  0.126794  0  1.034837  0  0.135649  0  0.105857  0.122118  0  1.035648  0
H  H33  1  0.81390910  0.80353315  0.36901323  1  0  0.118134  0  0.969037  0  0  0.123877  0  1.035354  0  0  0.126751  0  1.034859  0  0.135571  0  0.105809  0.12207  0  1.035672  0
H  H34  1  0.68609342  0.30353030  0.86901342  1  0  0.118195  0  0.969014  0  0  0.123911  0  1.035351  0  0  0.126782  0  1.034861  0  0.135542  0  0.105838  0.122105  0  1.035665  0
H  H35  1  0.18609551  0.19647067  0.63098636  1  0  0.118184  0  0.969041  0  0  0.123947  0  1.035314  0  0  0.126818  0  1.034824  0  0.13551  0  0.105852  0.122141  0  1.035628  0
H  H36  1  0.77620075  0.65477151  0.94326596  1  0  0.102956  0  0.991675  0  0  0.107685  0  1.063494  0  0  0.110731  0  1.062202  0  0.11629  0  0.095859  0.105783  0  1.0641  0
H  H37  1  0.27620503  0.84522859  0.55673469  1  0  0.102926  0  0.991657  0  0  0.107658  0  1.063482  0  0  0.110703  0  1.062191  0  0.116249  0  0.095833  0.105755  0  1.064088  0
H  H38  1  0.22379398  0.34523231  0.05673228  1  0  0.102957  0  0.99168  0  0  0.107681  0  1.063506  0  0  0.110727  0  1.062213  0  0.116228  0  0.095852  0.105783  0  1.064105  0
H  H39  1  0.72379738  0.15476866  0.44326750  1  0  0.102924  0  0.991621  0  0  0.107653  0  1.063442  0  0  0.110699  0  1.062151  0  0.116299  0  0.095836  0.10575  0  1.064049  0
H  H40  1  0.56010530  0.72377913  0.20023302  1  0  0.100137  0  0.952839  0  0  0.110007  0  1.014262  0  0  0.112937  0  1.012342  0  0.11439  0  0.104565  0.108006  0  1.015454  0
H  H41  1  0.06010958  0.77621628  0.29976755  1  0  0.100145  0  0.952803  0  0  0.110013  0  1.014222  0  0  0.112942  0  1.012302  0  0.114363  0  0.104577  0.108007  0  1.015429  0
H  H42  1  0.43989382  0.27621250  0.79976638  1  0  0.100131  0  0.952811  0  0  0.110005  0  1.014222  0  0  0.112935  0  1.0123  0  0.114322  0  0.104586  0.10799  0  1.015451  0
H  H43  1  0.93989612  0.22378754  0.70023406  1  0  0.100187  0  0.952704  0  0  0.110054  0  1.014123  0  0  0.112984  0  1.012199  0  0.114329  0  0.104587  0.108037  0  1.015357  0
H  H44  1  0.78674921  0.69487090  0.11118646  1  0  0.100897  0  0.941453  0  0  0.114276  0  0.99794  0  0  0.116919  0  0.996959  0  0.108144  0  0.103877  0.112721  0  0.998184  0
H  H45  1  0.28675239  0.80512639  0.38881414  1  0  0.100907  0  0.941414  0  0  0.11428  0  0.997912  0  0  0.116925  0  0.996929  0  0.107995  0  0.103885  0.112723  0  0.998156  0
H  H46  1  0.21324881  0.30512260  0.88881161  1  0  0.100892  0  0.941391  0  0  0.114259  0  0.997891  0  0  0.116902  0  0.996908  0  0.108371  0  0.103867  0.112704  0  0.998135  0
H  H47  1  0.71325221  0.19487368  0.61118809  1  0  0.100913  0  0.9414  0  0  0.114282  0  0.997897  0  0  0.116925  0  0.996913  0  0.108494  0  0.103898  0.112726  0  0.998141  0
C  C48  1  0.40934869  0.66282592  0.99684033  1  0  0.092663  0  3.784901  0  0  0.068795  0  4.029918  0  0  0.082499  0  4.054891  0  0.330982  0  0.103691  0.066774  0  4.015081  0
C  C49  1  0.90934989  0.83717137  0.50315824  1  0  0.092808  0  3.784582  0  0  0.068837  0  4.029797  0  0  0.082543  0  4.054772  0  0.331  0  0.10372  0.06681  0  4.014961  0
C  C50  1  0.59064824  0.33717509  0.00315854  1  0  0.09261  0  3.784976  0  0  0.06878  0  4.030027  0  0  0.082467  0  4.054995  0  0.330734  0  0.103714  0.06676  0  4.015189  0
C  C51  1  0.09065252  0.16282870  0.49684264  1  0  0.092805  0  3.7847  0  0  0.068837  0  4.02982  0  0  0.082557  0  4.05479  0  0.331167  0  0.103697  0.066816  0  4.014983  0
C  C52  1  0.26506091  0.97172613  0.98964841  1  0  -0.107673  0  3.780266  0  0  -0.129576  0  4.033217  0  0  -0.131953  0  4.054361  0  -0.044444  0  -0.09939  -0.12765  0  4.018282  0
C  C53  1  0.76505772  0.52827866  0.51035163  1  0  -0.10764  0  3.78027  0  0  -0.129547  0  4.033304  0  0  -0.13192  0  4.054445  0  -0.0445  0  -0.099385  -0.127622  0  4.018373  0
C  C54  1  0.73493931  0.02827956  0.01035256  1  0  -0.107781  0  3.780234  0  0  -0.129675  0  4.033232  0  0  -0.13205  0  4.054376  0  -0.044533  0  -0.099426  -0.127749  0  4.018302  0
C  C55  1  0.23494359  0.47172141  0.48964722  1  0  -0.107643  0  3.780197  0  0  -0.129527  0  4.033205  0  0  -0.131901  0  4.054346  0  -0.044481  0  -0.09936  -0.127601  0  4.018276  0
C  C56  1  0.14585535  0.89861813  0.01537458  1  0  -0.023858  0  3.733925  0  0  -0.002106  0  3.989062  0  0  -0.001154  0  4.015062  0  -0.205263  0  -0.050824  -0.002951  0  3.971169  0
C  C57  1  0.64585985  0.60138104  0.48462875  1  0  -0.02381  0  3.7338  0  0  -0.002104  0  3.989023  0  0  -0.001155  0  4.015024  0  -0.205257  0  -0.05085  -0.002951  0  3.971133  0
C  C58  1  0.85413609  0.10138288  0.98462902  1  0  -0.023765  0  3.733915  0  0  -0.002067  0  3.989127  0  0  -0.001114  0  4.015127  0  -0.205226  0  -0.050852  -0.002914  0  3.971235  0
C  C59  1  0.35414256  0.39861997  0.51537214  1  0  -0.023808  0  3.733893  0  0  -0.002133  0  3.98914  0  0  -0.001179  0  4.015137  0  -0.205315  0  -0.050852  -0.002979  0  3.971249  0
C  C60  1  0.18410122  0.95846601  0.17159527  1  0  -0.074971  0  3.7834  0  0  -0.083087  0  4.028246  0  0  -0.085559  0  4.050344  0  -0.034823  0  -0.093893  -0.081587  0  4.013775  0
C  C61  1  0.68410023  0.54153784  0.32840611  1  0  -0.074885  0  3.783449  0  0  -0.082975  0  4.028253  0  0  -0.085452  0  4.050355  0  -0.035786  0  -0.093887  -0.081476  0  4.013784  0
C  C62  1  0.81589571  0.04154156  0.82840641  1  0  -0.074892  0  3.783427  0  0  -0.082954  0  4.028219  0  0  -0.085426  0  4.050316  0  -0.035788  0  -0.093876  -0.081454  0  4.013743  0
C  C63  1  0.31589889  0.45846410  0.67159345  1  0  -0.074921  0  3.783414  0  0  -0.083041  0  4.028234  0  0  -0.085515  0  4.050332  0  -0.035751  0  -0.093891  -0.08154  0  4.013759  0
C  C64  1  0.30464617  0.03095561  0.14678236  1  0  -0.055376  0  3.737548  0  0  -0.070612  0  3.982581  0  0  -0.07271  0  4.004809  0  -0.064  0  -0.088776  -0.069175  0  3.967835  0
C  C65  1  0.80464299  0.46904818  0.35321679  1  0  -0.055423  0  3.73751  0  0  -0.07064  0  3.982533  0  0  -0.072736  0  4.004758  0  -0.062859  0  -0.088752  -0.069203  0  3.967785  0
C  C66  1  0.69535185  0.96905009  0.85321794  1  0  -0.055467  0  3.737581  0  0  -0.070682  0  3.982569  0  0  -0.072782  0  4.004796  0  -0.063136  0  -0.08879  -0.069243  0  3.96782  0
C  C67  1  0.19535284  0.53095189  0.64678274  1  0  -0.055441  0  3.737538  0  0  -0.070634  0  3.982525  0  0  -0.072733  0  4.004751  0  -0.063145  0  -0.088784  -0.069195  0  3.967776  0
C  C68  1  0.14343105  0.63921160  0.94988598  1  0  -0.116669  0  3.522776  0  0  -0.185006  0  3.785285  0  0  -0.168788  0  3.796176  0  0.140433  0  -0.063426  -0.189482  0  3.781983  0
C  C69  1  0.64343444  0.86078756  0.55011398  1  0  -0.116666  0  3.522732  0  0  -0.184958  0  3.785219  0  0  -0.168754  0  3.796099  0  0.140027  0  -0.063419  -0.189435  0  3.78192  0
C  C70  1  0.85656588  0.36078471  0.05011484  1  0  -0.116569  0  3.522552  0  0  -0.184894  0  3.785093  0  0  -0.168703  0  3.79598  0  0.139823  0  -0.063393  -0.189371  0  3.781791  0
C  C71  1  0.35656797  0.13921063  0.44988620  1  0  -0.116508  0  3.522758  0  0  -0.184846  0  3.785186  0  0  -0.168612  0  3.796074  0  0.140431  0  -0.063389  -0.189321  0  3.781883  0
C  C72  1  0.10354850  0.89212224  0.10610681  1  0  -0.108609  0  3.774524  0  0  -0.129928  0  4.025405  0  0  -0.13185  0  4.045735  0  -0.068156  0  -0.098011  -0.128693  0  4.011746  0
C  C73  1  0.60354532  0.60787973  0.39389116  1  0  -0.108598  0  3.77439  0  0  -0.129842  0  4.025228  0  0  -0.131794  0  4.045601  0  -0.068328  0  -0.097961  -0.128607  0  4.01157  0
C  C74  1  0.89644842  0.10788064  0.89389276  1  0  -0.108651  0  3.774465  0  0  -0.129954  0  4.025349  0  0  -0.131876  0  4.045678  0  -0.06832  0  -0.097996  -0.128717  0  4.011687  0
C  C75  1  0.39645380  0.39212127  0.60610704  1  0  -0.10856  0  3.774346  0  0  -0.129858  0  4.025258  0  0  -0.131779  0  4.045583  0  -0.068157  0  -0.097968  -0.128621  0  4.011596  0
C  C76  1  0.34443438  0.03767106  0.05602320  1  0  -0.058851  0  3.764715  0  0  -0.066344  0  4.001596  0  0  -0.068637  0  4.025353  0  -0.077251  0  -0.090962  -0.064861  0  3.984435  0
C  C77  1  0.84443449  0.46232992  0.44397591  1  0  -0.058864  0  3.764403  0  0  -0.066366  0  4.001293  0  0  -0.068656  0  4.025042  0  -0.077403  0  -0.09099  -0.064882  0  3.984134  0
C  C78  1  0.65556255  0.96232995  0.94397567  1  0  -0.058798  0  3.76439  0  0  -0.066265  0  4.001261  0  0  -0.068556  0  4.025013  0  -0.077132  0  -0.090927  -0.064782  0  3.984099  0
C  C79  1  0.15556573  0.53767015  0.55602362  1  0  -0.058883  0  3.764426  0  0  -0.066386  0  4.001312  0  0  -0.068678  0  4.025066  0  -0.077061  0  -0.090977  -0.064902  0  3.98415  0
C  C80  1  0.41279537  0.68675175  0.09025249  1  0  -0.133067  0  3.724325  0  0  -0.151625  0  3.982019  0  0  -0.156453  0  4.002416  0  -0.004741  0  -0.090421  -0.149486  0  3.967902  0
C  C81  1  0.91279876  0.81324648  0.40974812  1  0  -0.133094  0  3.724424  0  0  -0.151666  0  3.982191  0  0  -0.156499  0  4.00259  0  -0.004616  0  -0.090407  -0.149516  0  3.96805  0
C  C82  1  0.58720375  0.31324738  0.90974635  1  0  -0.133072  0  3.724359  0  0  -0.151635  0  3.982046  0  0  -0.156469  0  4.002449  0  -0.0045  0  -0.090426  -0.149491  0  3.967926  0
C  C83  1  0.08720694  0.18675641  0.59025212  1  0  -0.133124  0  3.724453  0  0  -0.151681  0  3.98215  0  0  -0.156518  0  4.002552  0  -0.004538  0  -0.090423  -0.149537  0  3.968031  0
C  C84  1  0.67740651  0.66236802  0.98434641  1  0  -0.130881  0  3.745753  0  0  -0.152143  0  4.0038  0  0  -0.153874  0  4.024221  0  0.056568  0  -0.091747  -0.150073  0  3.988662  0
C  C85  1  0.17740970  0.83763114  0.51565219  1  0  -0.130852  0  3.745747  0  0  -0.15208  0  4.003803  0  0  -0.153812  0  4.024225  0  0.056555  0  -0.091704  -0.150016  0  3.988659  0
C  C86  1  0.32259041  0.33763767  0.01565051  1  0  -0.130957  0  3.745818  0  0  -0.15218  0  4.003881  0  0  -0.153915  0  4.024297  0  0.05677  0  -0.091777  -0.150111  0  3.988743  0
C  C87  1  0.82259381  0.16236705  0.48434866  1  0  -0.13085  0  3.745759  0  0  -0.152095  0  4.003801  0  0  -0.153843  0  4.024211  0  0.056496  0  -0.091696  -0.150024  0  3.988663  0
C  C88  1  0.53831399  0.65362021  0.94419123  1  0  0.106462  0  3.831542  0  0  0.10396  0  4.082491  0  0  0.104778  0  4.102711  0  0.349267  0  0.089521  0.104085  0  4.066675  0
C  C89  1  0.03831827  0.84637989  0.55580941  1  0  0.106444  0  3.831328  0  0  0.103885  0  4.082426  0  0  0.104704  0  4.102644  0  0.349302  0  0.089479  0.104027  0  4.066589  0
C  C90  1  0.46168513  0.34638642  0.05580840  1  0  0.106529  0  3.831424  0  0  0.103916  0  4.082497  0  0  0.10474  0  4.102712  0  0.349277  0  0.089491  0.104038  0  4.066688  0
C  C91  1  0.96168524  0.15361924  0.44419280  1  0  0.106441  0  3.83139  0  0  0.10392  0  4.082398  0  0  0.104784  0  4.102548  0  0.349077  0  0.089444  0.104041  0  4.066587  0
C  C92  1  0.55111782  0.69978292  0.12848923  1  0  -0.037388  0  3.710619  0  0  -0.055695  0  3.966274  0  0  -0.056175  0  3.987625  0  -0.069607  0  -0.081684  -0.054916  0  3.952325  0
C  C93  1  0.05111991  0.80021342  0.37151068  1  0  -0.037309  0  3.710578  0  0  -0.055591  0  3.966204  0  0  -0.056068  0  3.987558  0  -0.069573  0  -0.081644  -0.054812  0  3.952257  0
C  C94  1  0.44888020  0.30021245  0.87150955  1  0  -0.037371  0  3.710603  0  0  -0.055661  0  3.966243  0  0  -0.056139  0  3.987593  0  -0.069699  0  -0.081689  -0.054886  0  3.952287  0
C  C95  1  0.94888470  0.19978852  0.62849023  1  0  -0.037375  0  3.710523  0  0  -0.05568  0  3.966192  0  0  -0.056158  0  3.987546  0  -0.069695  0  -0.081672  -0.054905  0  3.952236  0
C  C96  1  0.68133257  0.68570835  0.07687329  1  0  -0.058936  0  3.72455  0  0  -0.079563  0  3.985198  0  0  -0.08251  0  4.00724  0  -0.076185  0  -0.088959  -0.078195  0  3.969767  0
C  C97  1  0.18133685  0.81428799  0.42312729  1  0  -0.059  0  3.724579  0  0  -0.079622  0  3.985221  0  0  -0.082566  0  4.007248  0  -0.076118  0  -0.088988  -0.078254  0  3.969792  0
C  C98  1  0.31866545  0.31428984  0.92312620  1  0  -0.058928  0  3.724617  0  0  -0.079541  0  3.985229  0  0  -0.08249  0  4.007275  0  -0.076392  0  -0.088953  -0.07817  0  3.969795  0
C  C99  1  0.81866775  0.18571207  0.57687427  1  0  -0.058988  0  3.724582  0  0  -0.079598  0  3.985209  0  0  -0.082546  0  4.007257  0  -0.076447  0  -0.089018  -0.078226  0  3.969773  0
Se  Se100  1  0.03733538  0.79953128  0.92687869  1  0  0.118881  0  2.532767  0  0  0.146901  0  2.970669  0  0  0.134055  0  2.962456  0  0.322382  0  0.136335  0.156641  0  2.97171  0
Se  Se101  1  0.53733549  0.70046976  0.57312332  1  0  0.118842  0  2.532731  0  0  0.146882  0  2.970624  0  0  0.134036  0  2.962423  0  0.322389  0  0.136328  0.156621  0  2.971665  0
Se  Se102  1  0.96266593  0.20046879  0.07312354  1  0  0.118863  0  2.532703  0  0  0.146911  0  2.970609  0  0  0.134067  0  2.962404  0  0.322326  0  0.136355  0.156651  0  2.971653  0
Se  Se103  1  0.46266692  0.29953030  0.42687756  1  0  0.118814  0  2.532689  0  0  0.146858  0  2.970611  0  0  0.134012  0  2.962396  0  0.322349  0  0.136328  0.156598  0  2.971651  0
N  N104  1  0.29820257  0.64598053  0.93503169  1  0  0.019307  0  3.599244  0  0  0.128205  0  3.791557  0  0  0.086614  0  3.854455  0  -0.829115  0  -0.131571  0.135666  0  3.774069  0
N  N105  1  0.79820377  0.85401769  0.56496893  1  0  0.019278  0  3.599223  0  0  0.128231  0  3.791532  0  0  0.086627  0  3.854449  0  -0.829087  0  -0.131563  0.13569  0  3.774045  0
N  N106  1  0.70179436  0.35401672  0.06496780  1  0  0.01937  0  3.599242  0  0  0.128228  0  3.791618  0  0  0.086686  0  3.854458  0  -0.829118  0  -0.131571  0.135688  0  3.774129  0
N  N107  1  0.20179864  0.14598144  0.43503194  1  0  0.019044  0  3.599414  0  0  0.128044  0  3.791664  0  0  0.086361  0  3.854673  0  -0.829104  0  -0.131626  0.135504  0  3.774177  0
N  N108  1  0.37086807  0.01678158  0.70896410  1  0  0.689316  0  4.131941  0  0  0.718619  0  4.421781  0  0  0.747152  0  4.42952  0  0.801568  0  0.089974  0.711285  0  4.39971  0
N  N109  1  0.87086818  0.48321752  0.79103497  1  0  0.689324  0  4.131901  0  0  0.718632  0  4.421723  0  0  0.74716  0  4.429469  0  0.80106  0  0.089967  0.71129  0  4.399637  0
N  N110  1  0.62913324  0.98321567  0.29103538  1  0  0.68938  0  4.131782  0  0  0.718762  0  4.421522  0  0  0.747295  0  4.42926  0  0.801063  0  0.090034  0.711382  0  4.399507  0
N  N111  1  0.12913423  0.51678067  0.20896588  1  0  0.689219  0  4.13229  0  0  0.718853  0  4.42166  0  0  0.747393  0  4.429383  0  0.800948  0  0.090061  0.711339  0  4.399819  0
N  N112  1  0.35265068  0.63248677  0.85041924  1  0  -0.070277  0  2.881959  0  0  -0.077998  0  3.158525  0  0  -0.062878  0  3.17407  0  -0.060369  0  -0.070271  -0.080405  0  3.151091  0
N  N113  1  0.85265079  0.86751239  0.64958139  1  0  -0.070307  0  2.881965  0  0  -0.078027  0  3.158509  0  0  -0.062902  0  3.174055  0  -0.060421  0  -0.070265  -0.080432  0  3.151074  0
N  N114  1  0.64734514  0.36751329  0.14957961  1  0  -0.070227  0  2.881923  0  0  -0.077931  0  3.158469  0  0  -0.062829  0  3.174008  0  -0.060317  0  -0.070234  -0.080338  0  3.151035  0
N  N115  1  0.14735162  0.13248486  0.35041944  1  0  -0.070187  0  2.881865  0  0  -0.077946  0  3.158397  0  0  -0.062798  0  3.173961  0  -0.060361  0  -0.07028  -0.080352  0  3.150964  0
N  N116  1  0.49614316  0.63686772  0.85523097  1  0  -0.213479  0  3.193119  0  0  -0.158623  0  3.506973  0  0  -0.16914  0  3.513922  0  -0.607866  0  -0.216701  -0.15123  0  3.499484  0
N  N117  1  0.99614437  0.86313050  0.64476829  1  0  -0.213503  0  3.193143  0  0  -0.158617  0  3.507014  0  0  -0.169136  0  3.513961  0  -0.607824  0  -0.216716  -0.151231  0  3.499518  0
N  N118  1  0.50385376  0.36313516  0.14476658  1  0  -0.213565  0  3.193144  0  0  -0.15865  0  3.506979  0  0  -0.169172  0  3.513933  0  -0.607888  0  -0.216687  -0.151257  0  3.499493  0
N  N119  1  0.00385695  0.13686581  0.35523253  1  0  -0.213499  0  3.193012  0  0  -0.158614  0  3.506842  0  0  -0.169146  0  3.513771  0  -0.607804  0  -0.216623  -0.15122  0  3.499355  0
O  O120  1  0.27217037  0.07044885  0.75635461  1  0  -0.458341  0  1.755448  0  0  -0.431949  0  1.97501  0  0  -0.449084  0  1.967701  0  -0.537713  0  -0.191783  -0.424175  0  1.975267  0
O  O121  1  0.77217048  0.42954930  0.74364242  1  0  -0.458413  0  1.755402  0  0  -0.431999  0  1.974932  0  0  -0.449135  0  1.96763  0  -0.537257  0  -0.191824  -0.424219  0  1.975187  0
O  O122  1  0.72782985  0.92954840  0.24364285  1  0  -0.458416  0  1.755338  0  0  -0.432047  0  1.974861  0  0  -0.449182  0  1.967548  0  -0.537273  0  -0.191848  -0.424261  0  1.975135  0
O  O123  1  0.22782864  0.57044795  0.25635976  1  0  -0.458374  0  1.755579  0  0  -0.432058  0  1.974973  0  0  -0.449195  0  1.967657  0  -0.537138  0  -0.191855  -0.424226  0  1.975297  0
O  O124  1  0.46357631  0.07955698  0.66575579  1  0  -0.462145  0  1.729121  0  0  -0.451494  0  1.935361  0  0  -0.465969  0  1.92979  0  -0.543504  0  -0.190422  -0.445478  0  1.934427  0
O  O125  1  0.96357642  0.42044024  0.83424325  1  0  -0.462185  0  1.729122  0  0  -0.45153  0  1.935355  0  0  -0.466001  0  1.929786  0  -0.543504  0  -0.190441  -0.44551  0  1.934419  0
O  O126  1  0.53642500  0.92043934  0.33424368  1  0  -0.46223  0  1.729173  0  0  -0.451581  0  1.935367  0  0  -0.466056  0  1.929795  0  -0.543512  0  -0.190452  -0.445554  0  1.934449  0
O  O127  1  0.03642928  0.57955889  0.16575558  1  0  -0.462188  0  1.729251  0  0  -0.451637  0  1.935334  0  0  -0.466112  0  1.929758  0  -0.543417  0  -0.190481  -0.445562  0  1.934466  0
O  O128  1  0.37404270  0.89625078  0.70463133  1  0  -0.490978  0  1.785942  0  0  -0.463793  0  2.030318  0  0  -0.482697  0  2.020661  0  -0.555744  0  -0.210904  -0.455022  0  2.033213  0
O  O129  1  0.87404391  0.60374650  0.79536927  1  0  -0.490912  0  1.785928  0  0  -0.463722  0  2.030285  0  0  -0.482628  0  2.020646  0  -0.555711  0  -0.210845  -0.454961  0  2.033203  0
O  O130  1  0.62595861  0.10374647  0.29536883  1  0  -0.490907  0  1.785861  0  0  -0.463763  0  2.030233  0  0  -0.482658  0  2.020557  0  -0.555689  0  -0.210875  -0.454974  0  2.033136  0
O  O131  1  0.12595741  0.39625075  0.20463089  1  0  -0.490851  0  1.786003  0  0  -0.463771  0  2.030247  0  0  -0.482679  0  2.020595  0  -0.55578  0  -0.210865  -0.454952  0  2.033229  0
