# generated using pymatgen
data_ZnH20C32Br4(NO)8
_symmetry_space_group_name_H-M   'P 1'
_cell_length_a   8.50920092
_cell_length_b   8.78562886
_cell_length_c   11.51561562
_cell_angle_alpha   89.85302851
_cell_angle_beta   85.02107943
_cell_angle_gamma   81.90316114
_symmetry_Int_Tables_number   1
_chemical_formula_structural   ZnH20C32Br4(NO)8
_chemical_formula_sum   'Zn1 H20 C32 Br4 N8 O8'
_cell_volume   849.05362859
_cell_formula_units_Z   1
loop_
 _symmetry_equiv_pos_site_id
 _symmetry_equiv_pos_as_xyz
  1  'x, y, z'
loop_
 _atom_site_type_symbol
 _atom_site_label
 _atom_site_symmetry_multiplicity
 _atom_site_fract_x
 _atom_site_fract_y
 _atom_site_fract_z
 _atom_site_occupancy
 _atom_site_hle17_bader_spin_density
 _atom_site_hle17_ddec_charge
 _atom_site_hle17_ddec_spin_density
 _atom_site_hle17_ddec_sum_bond_order
 _atom_site_hle17_magmom
 _atom_site_hse06_10hf_bader_spin_density
 _atom_site_hse06_10hf_ddec_charge
 _atom_site_hse06_10hf_ddec_spin_density
 _atom_site_hse06_10hf_ddec_sum_bond_order
 _atom_site_hse06_10hf_magmom
 _atom_site_hse06_bader_spin_density
 _atom_site_hse06_ddec_charge
 _atom_site_hse06_ddec_spin_density
 _atom_site_hse06_ddec_sum_bond_order
 _atom_site_hse06_magmom
 _atom_site_pbe_bader_spin_density
 _atom_site_pbe_cm5_charge
 _atom_site_pbe_ddec_charge
 _atom_site_pbe_ddec_spin_density
 _atom_site_pbe_ddec_sum_bond_order
 _atom_site_pbe_magmom
Zn  Zn0  1  0.49999885  0.50000065  0.49999999  1  0  1.055752  0  1.759846  0  0  0.881462  0  2.193913  0  0  0.928566  0  2.143137  0  0  0.671094  0.848538  0  2.228499  0
H  H1  1  0.24757876  0.63463961  0.41710725  1  0  0.414243  0  0.899344  0  0  0.380873  0  0.966427  0  0  0.393742  0  0.947994  0  0  0.27988  0.371891  0  0.97925  0
H  H2  1  0.75242130  0.36536166  0.58289256  1  0  0.414281  0  0.899287  0  0  0.380914  0  0.966364  0  0  0.393783  0  0.947929  0  0  0.279902  0.371931  0  0.979189  0
H  H3  1  0.17223072  0.61078991  0.54818688  1  0  0.413693  0  0.826306  0  0  0.400284  0  0.875579  0  0  0.408397  0  0.866573  0  0  0.319133  0.394526  0  0.882003  0
H  H4  1  0.82776713  0.38921023  0.45181222  1  0  0.413672  0  0.826369  0  0  0.400266  0  0.875633  0  0  0.408377  0  0.86663  0  0  0.31913  0.394504  0  0.882063  0
H  H5  1  0.25522196  0.34841139  0.65914681  1  0  0.085686  0  0.951204  0  0  0.089643  0  1.025206  0  0  0.093154  0  1.021082  0  0  0.113384  0.087091  0  1.028141  0
H  H6  1  0.74477943  0.65158872  0.34085292  1  0  0.085682  0  0.951252  0  0  0.089643  0  1.025256  0  0  0.093149  0  1.021138  0  0  0.113381  0.087091  0  1.028189  0
H  H7  1  0.51684282  0.22256215  0.34567513  1  0  0.083903  0  0.961618  0  0  0.088964  0  1.031891  0  0  0.09145  0  1.029223  0  0  0.114651  0.087069  0  1.033942  0
H  H8  1  0.48315518  0.77743683  0.65432310  1  0  0.083922  0  0.961614  0  0  0.088991  0  1.031876  0  0  0.091478  0  1.029208  0  0  0.114646  0.087097  0  1.033934  0
H  H9  1  0.39640204  0.98026435  0.33295108  1  0  0.107962  0  0.955698  0  0  0.113158  0  1.024346  0  0  0.116601  0  1.023174  0  0  0.100534  0.11066  0  1.025441  0
H  H10  1  0.60359833  0.01973461  0.66704787  1  0  0.107927  0  0.955763  0  0  0.113123  0  1.024413  0  0  0.116568  0  1.023238  0  0  0.100501  0.110625  0  1.025506  0
H  H11  1  0.19521801  0.92207391  0.49347840  1  0  0.114077  0  0.949637  0  0  0.119819  0  1.016913  0  0  0.123499  0  1.013219  0  0  0.111362  0.117083  0  1.019637  0
H  H12  1  0.80478102  0.07792622  0.50652149  1  0  0.114074  0  0.949635  0  0  0.1198  0  1.016923  0  0  0.123475  0  1.013245  0  0  0.111362  0.117066  0  1.019641  0
H  H13  1  0.76602990  0.97568865  0.99593596  1  0  0.056401  0  1.017715  0  0  0.056013  0  1.103105  0  0  0.059541  0  1.099087  0  0  0.089737  0.053389  0  1.106062  0
H  H14  1  0.23397402  0.02431030  0.00406623  1  0  0.0564  0  1.017746  0  0  0.056012  0  1.103173  0  0  0.059539  0  1.099156  0  0  0.089738  0.053393  0  1.106126  0
H  H15  1  0.72528037  0.29006554  0.26782118  1  0  0.073734  0  0.958461  0  0  0.082931  0  1.023518  0  0  0.085626  0  1.020404  0  0  0.107564  0.080918  0  1.025825  0
H  H16  1  0.27472000  0.70993345  0.73218037  1  0  0.073761  0  0.958411  0  0  0.082957  0  1.023465  0  0  0.085653  0  1.02035  0  0  0.107595  0.080944  0  1.025777  0
H  H17  1  0.85987176  0.47428780  0.14558399  1  0  0.098849  0  0.949213  0  0  0.110159  0  1.007803  0  0  0.113402  0  1.006432  0  0  0.102098  0.107811  0  1.009002  0
H  H18  1  0.14012578  0.52571465  0.85441685  1  0  0.09887  0  0.949211  0  0  0.110177  0  1.00781  0  0  0.11342  0  1.006436  0  0  0.102097  0.107835  0  1.009002  0
H  H19  1  0.95991936  0.39950869  0.93786352  1  0  0.098657  0  0.949306  0  0  0.108673  0  1.014266  0  0  0.111623  0  1.011506  0  0  0.10624  0.106495  0  1.016342  0
H  H20  1  0.04007700  0.60049377  0.06213653  1  0  0.09867  0  0.949294  0  0  0.10868  0  1.014256  0  0  0.111635  0  1.011492  0  0  0.106246  0.106509  0  1.016325  0
C  C21  1  0.20555572  0.13324278  0.58673727  1  0  -0.064994  0  3.801104  0  0  -0.043282  0  4.038854  0  0  -0.052315  0  4.062985  0  0  -0.003322  -0.037735  0  4.022782  0
C  C22  1  0.79444449  0.86675734  0.41326254  1  0  -0.064928  0  3.801109  0  0  -0.043202  0  4.03884  0  0  -0.052239  0  4.062978  0  0  -0.003292  -0.03766  0  4.022765  0
C  C23  1  0.28060050  0.26524517  0.58757990  1  0  0.094765  0  3.688218  0  0  0.050119  0  3.944581  0  0  0.058801  0  3.960561  0  0  0.04347  0.044354  0  3.934196  0
C  C24  1  0.71940105  0.73475379  0.41241984  1  0  0.094634  0  3.68817  0  0  0.049964  0  3.944592  0  0  0.058672  0  3.960528  0  0  0.043434  0.044209  0  3.934198  0
C  C25  1  0.42908472  0.19330714  0.41321660  1  0  0.134957  0  3.690774  0  0  0.101226  0  3.943623  0  0  0.109583  0  3.961341  0  0  0.047267  0.095936  0  3.931545  0
C  C26  1  0.57091447  0.80669183  0.58678242  1  0  0.134901  0  3.690805  0  0  0.101185  0  3.943636  0  0  0.109538  0  3.96136  0  0  0.047306  0.095886  0  3.931576  0
C  C27  1  0.36120427  0.05884342  0.40652820  1  0  -0.101723  0  3.720631  0  0  -0.113532  0  3.97401  0  0  -0.121556  0  3.995168  0  0  -0.081042  -0.108566  0  3.959934  0
C  C28  1  0.63879374  0.94115556  0.59347090  1  0  -0.101719  0  3.720658  0  0  -0.113536  0  3.974016  0  0  -0.121559  0  3.995174  0  0  -0.081046  -0.108568  0  3.959938  0
C  C29  1  0.24839104  0.02751163  0.49405477  1  0  0.00609  0  3.646371  0  0  -0.024745  0  3.895937  0  0  -0.018922  0  3.911228  0  0  -0.051185  -0.028165  0  3.885497  0
C  C30  1  0.75160799  0.97248848  0.50594338  1  0  0.006106  0  3.646394  0  0  -0.024707  0  3.895952  0  0  -0.018888  0  3.911242  0  0  -0.051183  -0.028125  0  3.885501  0
C  C31  1  0.08582931  0.10086785  0.67727824  1  0  0.354957  0  3.724571  0  0  0.31841  0  4.009301  0  0  0.335818  0  4.018175  0  0  0.219256  0.306878  0  4.003217  0
C  C32  1  0.91417255  0.89912882  0.32272236  1  0  0.354977  0  3.724515  0  0  0.318408  0  4.009265  0  0  0.335816  0  4.018147  0  0  0.219213  0.306881  0  4.003178  0
C  C33  1  0.93564276  0.12235066  0.83759867  1  0  0.371187  0  3.706105  0  0  0.335122  0  3.988411  0  0  0.3531  0  3.99712  0  0  0.224296  0.323089  0  3.982509  0
C  C34  1  0.06435982  0.87764945  0.16240272  1  0  0.371204  0  3.706185  0  0  0.335101  0  3.988506  0  0  0.353082  0  3.997219  0  0  0.224287  0.323077  0  3.982597  0
C  C35  1  0.87406408  0.17963957  0.95275992  1  0  -0.070916  0  3.801626  0  0  -0.049121  0  4.036468  0  0  -0.058002  0  4.06123  0  0  -0.009694  -0.043589  0  4.019905  0
C  C36  1  0.12593629  0.82035941  0.04724076  1  0  -0.070929  0  3.80162  0  0  -0.049063  0  4.036387  0  0  -0.05794  0  4.061151  0  0  -0.009684  -0.043523  0  4.019825  0
C  C37  1  0.78979926  0.08645361  0.02736234  1  0  0.100825  0  3.712048  0  0  0.067271  0  3.969841  0  0  0.073496  0  3.987233  0  0  0.039905  0.063458  0  3.957984  0
C  C38  1  0.21020435  0.91354764  0.97263898  1  0  0.100742  0  3.712138  0  0  0.067161  0  3.969861  0  0  0.073384  0  3.987257  0  0  0.039867  0.063341  0  3.958006  0
C  C39  1  0.76693729  0.26084203  0.17747911  1  0  0.137284  0  3.710067  0  0  0.10647  0  3.976742  0  0  0.113996  0  3.992439  0  0  0.042524  0.101756  0  3.965873  0
C  C40  1  0.23306497  0.73916038  0.82252228  1  0  0.137276  0  3.710075  0  0  0.106462  0  3.976749  0  0  0.113989  0  3.992445  0  0  0.042496  0.10175  0  3.965882  0
C  C41  1  0.84473603  0.36354381  0.10911130  1  0  -0.124016  0  3.75358  0  0  -0.1369  0  4.012332  0  0  -0.144994  0  4.035085  0  0  -0.090217  -0.131701  0  3.996886  0
C  C42  1  0.15526490  0.63645976  0.89089017  1  0  -0.12408  0  3.753634  0  0  -0.136969  0  4.012397  0  0  -0.14507  0  4.035164  0  0  -0.090228  -0.131772  0  3.996955  0
C  C43  1  0.89965725  0.32274119  0.99472066  1  0  -0.021718  0  3.693509  0  0  -0.055877  0  3.952174  0  0  -0.05192  0  3.970593  0  0  -0.068156  -0.058004  0  3.939437  0
C  C44  1  0.10034163  0.67726009  0.00527836  1  0  -0.021723  0  3.693579  0  0  -0.055894  0  3.952225  0  0  -0.051945  0  3.970641  0  0  -0.068159  -0.058025  0  3.939474  0
C  C45  1  0.44726970  0.52628395  0.11927805  1  0  -0.10714  0  3.738698  0  0  -0.103088  0  3.988608  0  0  -0.106468  0  4.006597  0  0  -0.024718  -0.101162  0  3.976924  0
C  C46  1  0.55273169  0.47371614  0.88071995  1  0  -0.107033  0  3.73859  0  0  -0.102996  0  3.988533  0  0  -0.106379  0  4.006526  0  0  -0.024699  -0.101075  0  3.976861  0
C  C47  1  0.53058977  0.63090265  0.05663108  1  0  0.027565  0  3.694998  0  0  0.028151  0  3.969234  0  0  0.031167  0  3.989978  0  0  -0.025253  0.025954  0  3.955488  0
C  C48  1  0.46941280  0.36909743  0.94336771  1  0  0.027527  0  3.694966  0  0  0.028116  0  3.969209  0  0  0.031123  0  3.989981  0  0  -0.025284  0.025921  0  3.955461  0
C  C49  1  0.58508173  0.60427296  0.93887599  1  0  0.025329  0  3.696104  0  0  0.026802  0  3.96961  0  0  0.029648  0  3.990497  0  0  -0.028122  0.024703  0  3.955757  0
C  C50  1  0.41491967  0.39572713  0.06112201  1  0  0.025373  0  3.696088  0  0  0.026854  0  3.969565  0  0  0.029699  0  3.990449  0  0  -0.028105  0.024756  0  3.955704  0
C  C51  1  0.40072240  0.55073414  0.24940234  1  0  0.667211  0  3.919962  0  0  0.6144  0  4.225018  0  0  0.649012  0  4.215653  0  0  0.204928  0.590948  0  4.230557  0
C  C52  1  0.59927781  0.44926597  0.75059660  1  0  0.666999  0  3.920107  0  0  0.614172  0  4.225222  0  0  0.648782  0  4.215858  0  0  0.204803  0.590706  0  4.230778  0
Br  Br53  1  0.56691440  0.81224412  0.13348325  1  0  0.003383  0  1.448561  0  0  -0.002143  0  1.756651  0  0  -0.003197  0  1.747967  0  0  0.086984  -0.001345  0  1.762785  0
Br  Br54  1  0.43308432  0.18775829  0.86651491  1  0  0.003372  0  1.44859  0  0  -0.00215  0  1.756668  0  0  -0.003199  0  1.747987  0  0  0.086976  -0.001351  0  1.762799  0
Br  Br55  1  0.70817774  0.74174232  0.85819203  1  0  -0.005447  0  1.471075  0  0  -0.006433  0  1.766374  0  0  -0.007877  0  1.758832  0  0  0.081287  -0.00536  0  1.771783  0
Br  Br56  1  0.29182247  0.25825778  0.14180605  1  0  -0.005445  0  1.470997  0  0  -0.006432  0  1.76629  0  0  -0.007877  0  1.758746  0  0  0.081282  -0.005365  0  1.771695  0
N  N57  1  0.39006318  0.29452219  0.50210271  1  0  -0.327009  0  3.28724  0  0  -0.245308  0  3.551128  0  0  -0.265179  0  3.568788  0  0  -0.323705  -0.231992  0  3.538938  0
N  N58  1  0.60993467  0.70547795  0.49789726  1  0  -0.326869  0  3.287062  0  0  -0.245189  0  3.550956  0  0  -0.265066  0  3.568625  0  0  -0.323686  -0.231878  0  3.538775  0
N  N59  1  0.00082390  0.98725118  0.67912167  1  0  -0.267606  0  2.92008  0  0  -0.248897  0  3.204953  0  0  -0.259011  0  3.218254  0  0  -0.218597  -0.24207  0  3.195939  0
N  N60  1  0.99917765  0.01274780  0.32087980  1  0  -0.267596  0  2.920088  0  0  -0.248883  0  3.204973  0  0  -0.258996  0  3.218275  0  0  -0.218577  -0.242054  0  3.195956  0
N  N61  1  0.90406077  0.00104517  0.78247249  1  0  -0.263139  0  2.933298  0  0  -0.237757  0  3.22115  0  0  -0.249326  0  3.23534  0  0  -0.218027  -0.22987  0  3.2116  0
N  N62  1  0.09594197  0.99895380  0.21752977  1  0  -0.263154  0  2.933359  0  0  -0.237755  0  3.221199  0  0  -0.249324  0  3.235389  0  0  -0.218013  -0.229871  0  3.211649  0
N  N63  1  0.73720448  0.12512648  0.13748992  1  0  -0.318523  0  3.091984  0  0  -0.283399  0  3.37576  0  0  -0.295863  0  3.391451  0  0  -0.331693  -0.27482  0  3.364759  0
N  N64  1  0.26279779  0.87487594  0.86251234  1  0  -0.318442  0  3.092085  0  0  -0.283304  0  3.375848  0  0  -0.295768  0  3.391542  0  0  -0.331652  -0.274724  0  3.364848  0
O  O65  1  0.04995524  0.19221956  0.77494967  1  0  -0.269864  0  2.315984  0  0  -0.197693  0  2.539299  0  0  -0.215844  0  2.540039  0  0  -0.100036  -0.185418  0  2.538561  0
O  O66  1  0.95004749  0.80777939  0.22505085  1  0  -0.269872  0  2.316009  0  0  -0.197682  0  2.539332  0  0  -0.215847  0  2.540089  0  0  -0.100021  -0.185418  0  2.538601  0
O  O67  1  0.26126581  0.61351128  0.28169342  1  0  -0.59647  0  1.961849  0  0  -0.550611  0  2.177106  0  0  -0.57485  0  2.167738  0  0  -0.315615  -0.533568  0  2.182941  0
O  O68  1  0.73872700  0.38649120  0.71830513  1  0  -0.596315  0  1.961955  0  0  -0.550461  0  2.177231  0  0  -0.574709  0  2.16789  0  0  -0.315514  -0.533408  0  2.183067  0
O  O69  1  0.51142815  0.50410212  0.31442831  1  0  -0.648259  0  2.062214  0  0  -0.58291  0  2.326054  0  0  -0.612585  0  2.315794  0  0  -0.314816  -0.561916  0  2.332212  0
O  O70  1  0.48856600  0.49589920  0.68557015  1  0  -0.648244  0  2.062164  0  0  -0.582858  0  2.325942  0  0  -0.61253  0  2.31568  0  0  -0.314785  -0.561857  0  2.332105  0
O  O71  1  0.26330678  0.64504660  0.50418089  1  0  -0.811843  0  1.87784  0  0  -0.757577  0  2.074678  0  0  -0.77807  0  2.044435  0  0  -0.565859  -0.743054  0  2.095435  0
O  O72  1  0.73669461  0.35495349  0.49581711  1  0  -0.811863  0  1.877861  0  0  -0.757583  0  2.074672  0  0  -0.778074  0  2.04443  0  0  -0.565872  -0.743057  0  2.095432  0
