# generated using pymatgen
data_Cd2H14C4SO15
_symmetry_space_group_name_H-M   'P 1'
_cell_length_a   8.08389522
_cell_length_b   9.27818270
_cell_length_c   20.94600000
_cell_angle_alpha   90.00000000
_cell_angle_beta   90.00000000
_cell_angle_gamma   90.00000000
_symmetry_Int_Tables_number   1
_chemical_formula_structural   Cd2H14C4SO15
_chemical_formula_sum   'Cd8 H56 C16 S4 O60'
_cell_volume   1571.03078479
_cell_formula_units_Z   4
loop_
 _symmetry_equiv_pos_site_id
 _symmetry_equiv_pos_as_xyz
  1  'x, y, z'
loop_
 _atom_site_type_symbol
 _atom_site_label
 _atom_site_symmetry_multiplicity
 _atom_site_fract_x
 _atom_site_fract_y
 _atom_site_fract_z
 _atom_site_occupancy
 _atom_site_hle17_bader_spin_density
 _atom_site_hle17_ddec_charge
 _atom_site_hle17_ddec_spin_density
 _atom_site_hle17_ddec_sum_bond_order
 _atom_site_hle17_magmom
 _atom_site_hse06_10hf_bader_spin_density
 _atom_site_hse06_10hf_ddec_charge
 _atom_site_hse06_10hf_ddec_spin_density
 _atom_site_hse06_10hf_ddec_sum_bond_order
 _atom_site_hse06_10hf_magmom
 _atom_site_hse06_bader_spin_density
 _atom_site_hse06_ddec_charge
 _atom_site_hse06_ddec_spin_density
 _atom_site_hse06_ddec_sum_bond_order
 _atom_site_hse06_magmom
 _atom_site_pbe_bader_charge
 _atom_site_pbe_bader_spin_density
 _atom_site_pbe_cm5_charge
 _atom_site_pbe_ddec_charge
 _atom_site_pbe_ddec_spin_density
 _atom_site_pbe_ddec_sum_bond_order
 _atom_site_pbe_magmom
Cd  Cd0  1  0.48018435  0.41292030  0.28364747  1  0  1.286735  0  1.563258  0  0  1.118154  0  2.002715  0  0  1.173573  0  1.942883  0  1.34655  0  0.781106  1.077313  0  2.04478  0
Cd  Cd1  1  0.01979862  0.58708264  0.78364795  1  0  1.286611  0  1.563157  0  0  1.118052  0  2.002587  0  0  1.173477  0  1.942761  0  1.346539  0  0.781068  1.077208  0  2.044651  0
Cd  Cd2  1  0.51980882  0.91291153  0.21635205  1  0  1.286583  0  1.563103  0  0  1.118013  0  2.002549  0  0  1.17344  0  1.94272  0  1.346501  0  0.781047  1.077166  0  2.044615  0
Cd  Cd3  1  0.98018217  0.08708386  0.71634871  1  0  1.286727  0  1.563197  0  0  1.118167  0  2.002627  0  0  1.173587  0  1.942798  0  1.346459  0  0.781105  1.077329  0  2.044692  0
Cd  Cd4  1  0.63423261  0.38186896  0.00914208  1  0  1.317438  0  1.428407  0  0  1.140209  0  1.853294  0  0  1.197863  0  1.793687  0  1.369565  0  0.797506  1.098279  0  1.894934  0
Cd  Cd5  1  0.86578064  0.61813182  0.50914447  1  0  1.317385  0  1.428427  0  0  1.140071  0  1.853373  0  0  1.197754  0  1.79372  0  1.369547  0  0.797442  1.098134  0  1.895021  0
Cd  Cd6  1  0.36577787  0.88186558  0.49085935  1  0  1.317429  0  1.428332  0  0  1.140109  0  1.853247  0  0  1.197788  0  1.793604  0  1.36951  0  0.79745  1.098171  0  1.894893  0
Cd  Cd7  1  0.13423232  0.11813197  0.99085840  1  0  1.31738  0  1.428332  0  0  1.140134  0  1.853247  0  0  1.197802  0  1.793624  0  1.369555  0  0.797486  1.098199  0  1.894889  0
H  H8  1  0.47580033  0.63798269  0.37853194  1  0  0.427261  0  0.872121  0  0  0.395959  0  0.936093  0  0  0.406579  0  0.920658  0  0.645901  0  0.285724  0.388551  0  0.946749  0
H  H9  1  0.02419007  0.36201701  0.87853194  1  0  0.427263  0  0.87213  0  0  0.395956  0  0.936106  0  0  0.406578  0  0.920671  0  0.64592  0  0.285737  0.388548  0  0.946762  0
H  H10  1  0.52418789  0.13798715  0.12146997  1  0  0.427289  0  0.872081  0  0  0.395988  0  0.936048  0  0  0.40661  0  0.920613  0  0.64589  0  0.28574  0.38858  0  0.946704  0
H  H11  1  0.97580062  0.86201795  0.62146902  1  0  0.427239  0  0.87215  0  0  0.395943  0  0.936107  0  0  0.406563  0  0.920675  0  0.645902  0  0.285745  0.388536  0  0.946762  0
H  H12  1  0.65001214  0.55353297  0.38451399  1  0  0.411574  0  0.891393  0  0  0.382293  0  0.952979  0  0  0.392762  0  0.937624  0  0.643329  0  0.284574  0.374877  0  0.963775  0
H  H13  1  0.84998133  0.44646674  0.88451399  1  0  0.411541  0  0.891427  0  0  0.382261  0  0.953012  0  0  0.392732  0  0.937654  0  0.643245  0  0.284558  0.374848  0  0.963803  0
H  H14  1  0.34997856  0.05353527  0.11548983  1  0  0.411524  0  0.891446  0  0  0.382225  0  0.953072  0  0  0.392697  0  0.937712  0  0.643277  0  0.284543  0.374809  0  0.963868  0
H  H15  1  0.15001555  0.94646228  0.61548744  1  0  0.411628  0  0.891306  0  0  0.38232  0  0.952946  0  0  0.392792  0  0.937585  0  0.643264  0  0.284595  0.3749  0  0.963748  0
H  H16  1  0.59879673  0.55335297  0.87194023  1  0  0.449615  0  0.832575  0  0  0.417739  0  0.89496  0  0  0.428556  0  0.879264  0  0.650397  0  0.300867  0.410127  0  0.905998  0
H  H17  1  0.90120169  0.44665105  0.37194214  1  0  0.449652  0  0.832495  0  0  0.41778  0  0.894877  0  0  0.428593  0  0.879187  0  0.650673  0  0.300906  0.41017  0  0.905912  0
H  H18  1  0.40119768  0.05334773  0.62806025  1  0  0.449687  0  0.83245  0  0  0.4178  0  0.894857  0  0  0.428619  0  0.879156  0  0.650436  0  0.300884  0.410189  0  0.905894  0
H  H19  1  0.09879025  0.94664659  0.12806311  1  0  0.449599  0  0.832611  0  0  0.417725  0  0.894985  0  0  0.428542  0  0.879289  0  0.650336  0  0.30085  0.410112  0  0.906026  0
H  H20  1  0.59632638  0.38765781  0.85987205  1  0  0.443066  0  0.826695  0  0  0.41503  0  0.890793  0  0  0.424526  0  0.876739  0  0.629682  0  0.309811  0.40821  0  0.900886  0
H  H21  1  0.90366708  0.61233974  0.35987062  1  0  0.443051  0  0.826744  0  0  0.415018  0  0.890813  0  0  0.424513  0  0.876761  0  0.629971  0  0.309816  0.408197  0  0.900908  0
H  H22  1  0.40366926  0.88765659  0.64012890  1  0  0.443081  0  0.826681  0  0  0.415043  0  0.890781  0  0  0.424539  0  0.876727  0  0.629922  0  0.309812  0.408223  0  0.900873  0
H  H23  1  0.09632238  0.11234097  0.14013224  1  0  0.443073  0  0.826719  0  0  0.415053  0  0.890764  0  0  0.424548  0  0.876714  0  0.629617  0  0.309809  0.408234  0  0.900854  0
H  H24  1  0.77411320  0.49510773  0.20733362  1  0  0.432777  0  0.871359  0  0  0.397404  0  0.941337  0  0  0.40829  0  0.92577  0  0.650773  0  0.289718  0.38955  0  0.952546  0
H  H25  1  0.72588026  0.50488659  0.70733266  1  0  0.432783  0  0.871356  0  0  0.397436  0  0.941292  0  0  0.40832  0  0.925726  0  0.650696  0  0.28978  0.389587  0  0.952493  0
H  H26  1  0.22588739  0.99511190  0.29266686  1  0  0.43286  0  0.871222  0  0  0.397494  0  0.941189  0  0  0.408379  0  0.925625  0  0.650743  0  0.289782  0.389644  0  0.952392  0
H  H27  1  0.27411167  0.00488781  0.79266829  1  0  0.432804  0  0.87132  0  0  0.397446  0  0.941272  0  0  0.408331  0  0.925709  0  0.650725  0  0.289772  0.389595  0  0.952478  0
H  H28  1  0.81123763  0.35866399  0.25276616  1  0  0.430951  0  0.871954  0  0  0.395223  0  0.942627  0  0  0.406241  0  0.926811  0  0.654091  0  0.291229  0.387393  0  0.953867  0
H  H29  1  0.68875212  0.64132818  0.75276425  1  0  0.430878  0  0.872058  0  0  0.395146  0  0.942756  0  0  0.406167  0  0.926935  0  0.654062  0  0.291206  0.387311  0  0.954007  0
H  H30  1  0.18876296  0.85866061  0.24723575  1  0  0.430982  0  0.871909  0  0  0.395256  0  0.942577  0  0  0.406278  0  0.926757  0  0.654147  0  0.291257  0.387422  0  0.953822  0
H  H31  1  0.31123733  0.14133371  0.74723384  1  0  0.430911  0  0.871995  0  0  0.395173  0  0.942693  0  0  0.406196  0  0.926871  0  0.654148  0  0.291208  0.387342  0  0.953935  0
H  H32  1  0.83665607  0.57292362  0.08481237  1  0  0.441576  0  0.844521  0  0  0.411515  0  0.904743  0  0  0.422118  0  0.889381  0  0.654619  0  0.295133  0.403885  0  0.915784  0
H  H33  1  0.66335348  0.42707394  0.58480856  1  0  0.441287  0  0.844938  0  0  0.411302  0  0.905004  0  0  0.421908  0  0.889639  0  0.654701  0  0.295004  0.403672  0  0.916045  0
H  H34  1  0.16335194  0.07292700  0.41519049  1  0  0.441408  0  0.844757  0  0  0.41136  0  0.904945  0  0  0.421965  0  0.88958  0  0.654751  0  0.295025  0.403729  0  0.915988  0
H  H35  1  0.33665577  0.92707163  0.91519049  1  0  0.441305  0  0.844907  0  0  0.411325  0  0.904964  0  0  0.421927  0  0.889604  0  0.654653  0  0.295018  0.403697  0  0.916002  0
H  H36  1  0.94405850  0.46245479  0.04560059  1  0  0.423664  0  0.879284  0  0  0.390377  0  0.947275  0  0  0.401615  0  0.931006  0  0.640751  0  0.288367  0.382378  0  0.958831  0
H  H37  1  0.55595599  0.53754492  0.54560059  1  0  0.423773  0  0.879168  0  0  0.390404  0  0.947264  0  0  0.401649  0  0.931003  0  0.640833  0  0.288355  0.382379  0  0.958833  0
H  H38  1  0.05595075  0.96245572  0.45440227  1  0  0.423778  0  0.879143  0  0  0.390413  0  0.947227  0  0  0.401665  0  0.930961  0  0.640789  0  0.288354  0.382389  0  0.958796  0
H  H39  1  0.44405697  0.03754615  0.95439893  1  0  0.423696  0  0.87925  0  0  0.390392  0  0.947267  0  0  0.401626  0  0.931004  0  0.640785  0  0.288341  0.382393  0  0.958823  0
H  H40  1  0.78903051  0.20370153  0.10644085  1  0  0.432828  0  0.809548  0  0  0.413831  0  0.863123  0  0  0.422349  0  0.854044  0  0.621848  0  0.324835  0.40771  0  0.869783  0
H  H41  1  0.71096295  0.79628201  0.60643894  1  0  0.432827  0  0.80953  0  0  0.413824  0  0.863132  0  0  0.422342  0  0.854052  0  0.621869  0  0.324851  0.407703  0  0.869795  0
H  H42  1  0.21096513  0.70371001  0.39356058  1  0  0.432886  0  0.809534  0  0  0.413887  0  0.863105  0  0  0.422406  0  0.854026  0  0.62186  0  0.32488  0.407766  0  0.869768  0
H  H43  1  0.28903146  0.29629294  0.89355963  1  0  0.432798  0  0.809658  0  0  0.413807  0  0.863214  0  0  0.422325  0  0.854139  0  0.621874  0  0.324841  0.407687  0  0.869872  0
H  H44  1  0.70280970  0.31283497  0.15451256  1  0  0.446495  0  0.845867  0  0  0.412581  0  0.911831  0  0  0.424334  0  0.894952  0  0.664954  0  0.293998  0.404221  0  0.923854  0
H  H45  1  0.79718624  0.68715935  0.65451112  1  0  0.44649  0  0.845873  0  0  0.412579  0  0.91183  0  0  0.424331  0  0.894953  0  0.664983  0  0.29402  0.404222  0  0.923849  0
H  H46  1  0.29719089  0.81284129  0.34548840  1  0  0.446544  0  0.845812  0  0  0.412619  0  0.911794  0  0  0.424373  0  0.894914  0  0.664936  0  0.294006  0.404258  0  0.923819  0
H  H47  1  0.20280693  0.18715950  0.84548792  1  0  0.446514  0  0.845857  0  0  0.412594  0  0.911829  0  0  0.424349  0  0.894948  0  0.664941  0  0.294003  0.404235  0  0.92385  0
H  H48  1  0.48675668  0.65544409  0.07348133  1  0  0.410669  0  0.8431  0  0  0.389533  0  0.90186  0  0  0.400204  0  0.890434  0  0.660317  0  0.320353  0.381897  0  0.910075  0
H  H49  1  0.01324733  0.34454700  0.57348897  1  0  0.410697  0  0.84285  0  0  0.389547  0  0.901633  0  0  0.400215  0  0.890212  0  0.660237  0  0.320363  0.381914  0  0.90984  0
H  H50  1  0.51324144  0.15544962  0.42651533  1  0  0.41074  0  0.84287  0  0  0.389597  0  0.901647  0  0  0.400267  0  0.89022  0  0.660268  0  0.320363  0.381964  0  0.909857  0
H  H51  1  0.98675698  0.84454901  0.92651055  1  0  0.410771  0  0.842645  0  0  0.389611  0  0.901478  0  0  0.400283  0  0.890046  0  0.660225  0  0.320379  0.381972  0  0.909695  0
H  H52  1  0.25663866  0.32100683  0.19025303  1  0  0.376568  0  0.926821  0  0  0.34878  0  1.00499  0  0  0.359377  0  0.993434  0  0.65108  0  0.290848  0.341424  0  1.012623  0
H  H53  1  0.24335917  0.67899288  0.69025590  1  0  0.376614  0  0.926786  0  0  0.34882  0  1.004986  0  0  0.359415  0  0.993409  0  0.651033  0  0.290847  0.341465  0  1.012617  0
H  H54  1  0.74336812  0.82100884  0.30974888  1  0  0.376621  0  0.926762  0  0  0.348836  0  1.004894  0  0  0.359421  0  0.993363  0  0.651015  0  0.290872  0.341481  0  1.012523  0
H  H55  1  0.75662658  0.17900488  0.80973885  1  0  0.376739  0  0.926594  0  0  0.34883  0  1.004979  0  0  0.359428  0  0.993401  0  0.650811  0  0.290862  0.341473  0  1.012612  0
H  H56  1  0.21110862  0.60438560  0.06032464  1  0  0.090595  0  0.881932  0  0  0.099937  0  0.934046  0  0  0.102141  0  0.932163  0  0.098626  0  0.126542  0.098247  0  0.935757  0
H  H57  1  0.28889909  0.39561519  0.56033467  1  0  0.090459  0  0.882051  0  0  0.099863  0  0.934202  0  0  0.102041  0  0.932301  0  0.098233  0  0.126514  0.098191  0  0.935929  0
H  H58  1  0.78889444  0.10439329  0.43967154  1  0  0.090527  0  0.88197  0  0  0.099971  0  0.934065  0  0  0.102152  0  0.932167  0  0.098565  0  0.126551  0.098298  0  0.935795  0
H  H59  1  0.71111263  0.89562151  0.93966915  1  0  0.09059  0  0.882057  0  0  0.099988  0  0.934109  0  0  0.102188  0  0.932232  0  0.098561  0  0.126514  0.098281  0  0.93581  0
H  H60  1  0.16572333  0.52942049  0.16308842  1  0  0.095172  0  0.9073  0  0  0.098102  0  0.974008  0  0  0.100917  0  0.971568  0  0.114703  0  0.121491  0.096079  0  0.975926  0
H  H61  1  0.33430171  0.47058353  0.66309653  1  0  0.095138  0  0.907303  0  0  0.098224  0  0.973806  0  0  0.101046  0  0.971367  0  0.114528  0  0.121474  0.096178  0  0.975751  0
H  H62  1  0.83430201  0.02942602  0.33690920  1  0  0.095137  0  0.907278  0  0  0.098123  0  0.973897  0  0  0.100942  0  0.971455  0  0.114607  0  0.121483  0.096081  0  0.975835  0
H  H63  1  0.66570383  0.97059740  0.83690776  1  0  0.095135  0  0.907372  0  0  0.098095  0  0.974027  0  0  0.100912  0  0.971585  0  0.114447  0  0.121471  0.096073  0  0.975948  0
C  C64  1  0.25310199  0.38008629  0.04596534  1  0  0.656709  0  3.86189  0  0  0.600926  0  4.158723  0  0  0.634931  0  4.153597  0  1.578639  0  0.211005  0.577913  0  4.161076  0
C  C65  1  0.24691315  0.61990049  0.54595961  1  0  0.657356  0  3.861394  0  0  0.601224  0  4.158795  0  0  0.635196  0  4.153645  0  1.579616  0  0.211185  0.578232  0  4.16117  0
C  C66  1  0.74691592  0.88010554  0.45404134  1  0  0.657424  0  3.861232  0  0  0.60136  0  4.158534  0  0  0.635335  0  4.153386  0  1.579238  0  0.211352  0.578368  0  4.160906  0
C  C67  1  0.75310105  0.11992219  0.95402750  1  0  0.657187  0  3.861592  0  0  0.601309  0  4.158592  0  0  0.635304  0  4.153467  0  1.578781  0  0.211205  0.578274  0  4.160946  0
C  C68  1  0.30270432  0.52284485  0.07503055  1  0  0.073485  0  3.61754  0  0  0.047537  0  3.871182  0  0  0.049463  0  3.877135  0  0.46596  0  -0.000342  0.045864  0  3.867756  0
C  C69  1  0.19731577  0.47716672  0.57503008  1  0  0.07386  0  3.616961  0  0  0.047669  0  3.871124  0  0  0.04974  0  3.876865  0  0.466706  0  -0.00034  0.045894  0  3.867851  0
C  C70  1  0.69731483  0.02283960  0.42497422  1  0  0.073629  0  3.617154  0  0  0.047423  0  3.871291  0  0  0.049473  0  3.877053  0  0.466269  0  -0.00045  0.045649  0  3.868016  0
C  C71  1  0.80270214  0.97716226  0.92496037  1  0  0.073239  0  3.617825  0  0  0.047271  0  3.871526  0  0  0.049199  0  3.877493  0  0.466506  0  -0.000435  0.045679  0  3.867982  0
C  C72  1  0.29583882  0.51178341  0.14902989  1  0  0.059293  0  3.611417  0  0  0.034096  0  3.866115  0  0  0.035283  0  3.873427  0  0.439414  0  -0.002691  0.033011  0  3.861584  0
C  C73  1  0.20417137  0.48823139  0.64904803  1  0  0.058903  0  3.610652  0  0  0.033755  0  3.865322  0  0  0.034883  0  3.872634  0  0.44592  0  -0.002659  0.03271  0  3.860806  0
C  C74  1  0.70417414  0.01176955  0.35095722  1  0  0.059224  0  3.610597  0  0  0.034133  0  3.865288  0  0  0.035284  0  3.872574  0  0.445777  0  -0.002639  0.033084  0  3.860776  0
C  C75  1  0.79582303  0.98822370  0.85095961  1  0  0.059226  0  3.611308  0  0  0.034081  0  3.865982  0  0  0.035263  0  3.873294  0  0.445469  0  -0.002637  0.032977  0  3.861438  0
C  C76  1  0.39267703  0.63745350  0.17825599  1  0  0.642743  0  3.856947  0  0  0.585668  0  4.161359  0  0  0.619732  0  4.156058  0  1.581333  0  0.205273  0.562457  0  4.163946  0
C  C77  1  0.10734305  0.36254190  0.67825551  1  0  0.643022  0  3.856512  0  0  0.585925  0  4.160958  0  0  0.619999  0  4.155648  0  1.580868  0  0.205319  0.562715  0  4.16354  0
C  C78  1  0.60734459  0.13745580  0.32174449  1  0  0.642764  0  3.856476  0  0  0.585664  0  4.160921  0  0  0.61973  0  4.155621  0  1.580889  0  0.205271  0.562456  0  4.163505  0
C  C79  1  0.89262661  0.86253637  0.82174210  1  0  0.642975  0  3.856628  0  0  0.585784  0  4.161244  0  0  0.619854  0  4.155933  0  1.581128  0  0.20523  0.562568  0  4.163846  0
S  S80  1  0.10036375  0.26148547  0.29587749  1  0  1.584548  0  5.818647  0  0  1.457234  0  6.369206  0  0  1.512476  0  6.334314  0  3.783259  0  0.561575  1.41888  0  6.392206  0
S  S81  1  0.39963779  0.73851962  0.79587797  1  0  1.584393  0  5.81869  0  0  1.457079  0  6.369257  0  0  1.512327  0  6.334365  0  3.783281  0  0.561624  1.418719  0  6.392256  0
S  S82  1  0.89964427  0.76147132  0.20412203  1  0  1.584507  0  5.818836  0  0  1.457153  0  6.369456  0  0  1.512409  0  6.33455  0  3.783318  0  0.561529  1.418786  0  6.392462  0
S  S83  1  0.60035662  0.23851330  0.70412012  1  0  1.584864  0  5.818698  0  0  1.45758  0  6.369226  0  0  1.512835  0  6.334321  0  3.782978  0  0.561731  1.419224  0  6.392228  0
O  O84  1  0.21243224  0.38247037  0.31358636  1  0  -0.760696  0  1.977104  0  0  -0.69717  0  2.246343  0  0  -0.721366  0  2.224487  0  -1.327483  0  -0.380912  -0.679848  0  2.261175  0
O  O85  1  0.28756805  0.61754227  0.81358827  1  0  -0.760594  0  1.977049  0  0  -0.697108  0  2.246304  0  0  -0.721303  0  2.224449  0  -1.327424  0  -0.38093  -0.679788  0  2.261135  0
O  O86  1  0.78758567  0.88245406  0.18641889  1  0  -0.760603  0  1.977153  0  0  -0.697134  0  2.246451  0  0  -0.721327  0  2.224591  0  -1.327186  0  -0.380931  -0.679814  0  2.261284  0
O  O87  1  0.71242635  0.11753595  0.68641173  1  0  -0.760715  0  1.977204  0  0  -0.697215  0  2.246455  0  0  -0.721407  0  2.224593  0  -1.327339  0  -0.380924  -0.679893  0  2.261286  0
O  O88  1  0.14594326  0.12773191  0.33201709  1  0  -0.752476  0  1.955042  0  0  -0.688746  0  2.196201  0  0  -0.710976  0  2.176541  0  -1.347308  0  -0.35939  -0.672733  0  2.209386  0
O  O89  1  0.35404838  0.87226349  0.83202043  1  0  -0.752368  0  1.955058  0  0  -0.688681  0  2.196194  0  0  -0.710911  0  2.176537  0  -1.347413  0  -0.359419  -0.672662  0  2.209369  0
O  O90  1  0.85404991  0.62772853  0.16798148  1  0  -0.752382  0  1.955212  0  0  -0.68861  0  2.196358  0  0  -0.71085  0  2.176704  0  -1.347504  0  -0.359276  -0.672596  0  2.209553  0
O  O91  1  0.64594232  0.37225824  0.66797957  1  0  -0.7525  0  1.955029  0  0  -0.688882  0  2.196224  0  0  -0.711113  0  2.176562  0  -1.347298  0  -0.359531  -0.672868  0  2.209403  0
O  O92  1  0.11009791  0.23205945  0.22563879  1  0  -0.750427  0  1.909036  0  0  -0.693257  0  2.149356  0  0  -0.71404  0  2.129779  0  -1.345806  0  -0.371241  -0.678417  0  2.162364  0
O  O93  1  0.38988135  0.76794564  0.72564022  1  0  -0.750443  0  1.909103  0  0  -0.69326  0  2.149437  0  0  -0.71404  0  2.129853  0  -1.34576  0  -0.371295  -0.678419  0  2.162446  0
O  O94  1  0.88987794  0.73205823  0.27436074  1  0  -0.750498  0  1.909093  0  0  -0.693285  0  2.149396  0  0  -0.71406  0  2.129817  0  -1.345823  0  -0.371298  -0.678445  0  2.162406  0
O  O95  1  0.61010068  0.26794256  0.77436074  1  0  -0.750591  0  1.909004  0  0  -0.693358  0  2.149338  0  0  -0.71414  0  2.129751  0  -1.345591  0  -0.371245  -0.678516  0  2.162345  0
O  O96  1  0.92788560  0.30415008  0.31366466  1  0  -0.746222  0  1.972834  0  0  -0.679574  0  2.211596  0  0  -0.703772  0  2.194956  0  -1.33867  0  -0.351636  -0.662801  0  2.222882  0
O  O97  1  0.57211405  0.69583885  0.81366657  1  0  -0.746217  0  1.972795  0  0  -0.679539  0  2.21153  0  0  -0.703759  0  2.194905  0  -1.338661  0  -0.351638  -0.662747  0  2.222812  0
O  O98  1  0.07212241  0.80415424  0.18633486  1  0  -0.74636  0  1.972749  0  0  -0.679663  0  2.211467  0  0  -0.703892  0  2.194849  0  -1.338753  0  -0.351672  -0.662862  0  2.222741  0
O  O99  1  0.42787418  0.19584762  0.68633009  1  0  -0.746368  0  1.972894  0  0  -0.679683  0  2.211621  0  0  -0.703919  0  2.195008  0  -1.33864  0  -0.351648  -0.662901  0  2.222904  0
O  O100  1  0.53064394  0.54291666  0.37606416  1  0  -0.835061  0  1.871957  0  0  -0.774671  0  2.054383  0  0  -0.796542  0  2.020036  0  -1.266574  0  -0.599607  -0.758861  0  2.077788  0
O  O101  1  0.96935200  0.45708520  0.87606703  1  0  -0.834989  0  1.871936  0  0  -0.774581  0  2.054333  0  0  -0.796455  0  2.019976  0  -1.266552  0  -0.599586  -0.758769  0  2.077734  0
O  O102  1  0.46934923  0.04291897  0.12393631  1  0  -0.835007  0  1.871928  0  0  -0.774594  0  2.054332  0  0  -0.79647  0  2.01998  0  -1.266517  0  -0.599566  -0.758781  0  2.077736  0
O  O103  1  0.03064364  0.95708074  0.62393488  1  0  -0.835061  0  1.871868  0  0  -0.774662  0  2.054291  0  0  -0.796534  0  2.019935  0  -1.266547  0  -0.599621  -0.75885  0  2.0777  0
O  O104  1  0.62472482  0.45902739  0.89278383  1  0  -0.845945  0  1.814012  0  0  -0.780822  0  1.992463  0  0  -0.802688  0  1.958386  0  -1.238226  0  -0.561413  -0.765198  0  2.016211  0
O  O105  1  0.87527235  0.54097447  0.39278573  1  0  -0.845964  0  1.813983  0  0  -0.78084  0  1.992417  0  0  -0.802706  0  1.958347  0  -1.238851  0  -0.561458  -0.765217  0  2.016162  0
O  O106  1  0.37527330  0.95902078  0.60721665  1  0  -0.846033  0  1.813878  0  0  -0.780876  0  1.992342  0  0  -0.802745  0  1.958259  0  -1.238502  0  -0.561441  -0.765249  0  2.016088  0
O  O107  1  0.12471339  0.04097462  0.10721999  1  0  -0.845921  0  1.814006  0  0  -0.780801  0  1.992467  0  0  -0.802667  0  1.958387  0  -1.238122  0  -0.561413  -0.765176  0  2.016217  0
O  O108  1  0.72683772  0.40054719  0.22274897  1  0  -0.853778  0  1.921803  0  0  -0.779696  0  2.117781  0  0  -0.805819  0  2.084847  0  -1.263232  0  -0.56565  -0.761138  0  2.14102  0
O  O109  1  0.77314956  0.59944498  0.72274945  1  0  -0.853719  0  1.921952  0  0  -0.779638  0  2.117835  0  0  -0.805756  0  2.084909  0  -1.263033  0  -0.56568  -0.761085  0  2.141072  0
O  O110  1  0.27316410  0.90054597  0.27725294  1  0  -0.853868  0  1.921696  0  0  -0.779777  0  2.117665  0  0  -0.8059  0  2.084729  0  -1.263152  0  -0.565712  -0.76122  0  2.140905  0
O  O111  1  0.22683372  0.09944943  0.77725150  1  0  -0.853766  0  1.921735  0  0  -0.779679  0  2.117676  0  0  -0.805796  0  2.08473  0  -1.263176  0  -0.565674  -0.761127  0  2.140918  0
O  O112  1  0.84659064  0.52780702  0.04188867  1  0  -0.84284  0  1.815484  0  0  -0.778548  0  1.99269  0  0  -0.802919  0  1.958167  0  -1.242383  0  -0.585827  -0.761234  0  2.017064  0
O  O113  1  0.65342262  0.47219592  0.54188580  1  0  -0.842593  0  1.81571  0  0  -0.778259  0  1.993007  0  0  -0.802658  0  1.95844  0  -1.242512  0  -0.585665  -0.760906  0  2.017468  0
O  O114  1  0.15341861  0.02781040  0.45811372  1  0  -0.842734  0  1.815441  0  0  -0.778375  0  1.992757  0  0  -0.802783  0  1.958172  0  -1.242549  0  -0.585714  -0.761022  0  2.017217  0
O  O115  1  0.34659281  0.97219254  0.95811324  1  0  -0.842618  0  1.815749  0  0  -0.778338  0  1.992956  0  0  -0.80271  0  1.958442  0  -1.242436  0  -0.585697  -0.761026  0  2.017324  0
O  O116  1  0.68964897  0.26192737  0.11193545  1  0  -0.835541  0  1.864866  0  0  -0.769865  0  2.056226  0  0  -0.792495  0  2.025386  0  -1.248539  0  -0.558178  -0.753798  0  2.077765  0
O  O117  1  0.81034944  0.73806803  0.61193641  1  0  -0.835513  0  1.864869  0  0  -0.769854  0  2.056239  0  0  -0.792483  0  2.025402  0  -1.248588  0  -0.558212  -0.753791  0  2.077779  0
O  O118  1  0.31035039  0.76192830  0.38806598  1  0  -0.835645  0  1.864813  0  0  -0.769973  0  2.056203  0  0  -0.792605  0  2.025361  0  -1.248532  0  -0.558235  -0.753901  0  2.077735  0
O  O119  1  0.18964867  0.23807033  0.88806550  1  0  -0.835535  0  1.864953  0  0  -0.76986  0  2.056322  0  0  -0.792494  0  2.025483  0  -1.248528  0  -0.558191  -0.753789  0  2.077854  0
O  O120  1  0.35981293  0.30301192  0.01702712  1  0  -0.663577  0  2.060144  0  0  -0.588873  0  2.318289  0  0  -0.622363  0  2.308181  0  -1.155404  0  -0.313591  -0.565019  0  2.324161  0
O  O121  1  0.14019603  0.69698239  0.51703571  1  0  -0.663749  0  2.060107  0  0  -0.588899  0  2.318374  0  0  -0.622393  0  2.308273  0  -1.156345  0  -0.313596  -0.565045  0  2.324245  0
O  O122  1  0.64020993  0.80303010  0.48297336  1  0  -0.663834  0  2.060142  0  0  -0.588992  0  2.318338  0  0  -0.622488  0  2.308237  0  -1.155978  0  -0.313691  -0.565137  0  2.32421  0
O  O123  1  0.85979838  0.19698038  0.98297145  1  0  -0.663682  0  2.060459  0  0  -0.588978  0  2.318692  0  0  -0.622464  0  2.308581  0  -1.15611  0  -0.313595  -0.565126  0  2.324575  0
O  O124  1  0.10409833  0.33931645  0.05199943  1  0  -0.630716  0  2.013927  0  0  -0.560264  0  2.245583  0  0  -0.590584  0  2.236273  0  -1.165625  0  -0.30539  -0.53896  0  2.251158  0
O  O125  1  0.39590815  0.66067787  0.55200707  1  0  -0.631249  0  2.013802  0  0  -0.560526  0  2.24553  0  0  -0.590839  0  2.236227  0  -1.165785  0  -0.305528  -0.539215  0  2.251084  0
O  O126  1  0.89591834  0.83932816  0.44799675  1  0  -0.631245  0  2.013573  0  0  -0.56057  0  2.245297  0  0  -0.590883  0  2.235992  0  -1.165753  0  -0.305614  -0.539258  0  2.250853  0
O  O127  1  0.60408873  0.16069095  0.94799484  1  0  -0.630957  0  2.013565  0  0  -0.560479  0  2.245286  0  0  -0.590783  0  2.235967  0  -1.165154  0  -0.305532  -0.539174  0  2.25087  0
O  O128  1  0.46201737  0.56337757  0.05103361  1  0  -0.58355  0  2.112848  0  0  -0.520665  0  2.340433  0  0  -0.539763  0  2.324881  0  -1.153569  0  -0.397455  -0.507102  0  2.351394  0
O  O129  1  0.03800272  0.43661999  0.55104459  1  0  -0.583739  0  2.112534  0  0  -0.52076  0  2.340215  0  0  -0.539897  0  2.324616  0  -1.153948  0  -0.397496  -0.507171  0  2.351209  0
O  O130  1  0.53800549  0.06337771  0.44895541  1  0  -0.58371  0  2.112746  0  0  -0.520741  0  2.340423  0  0  -0.539872  0  2.324831  0  -1.154019  0  -0.397441  -0.50715  0  2.351418  0
O  O131  1  0.96201519  0.93662523  0.94895254  1  0  -0.58355  0  2.112486  0  0  -0.520649  0  2.340081  0  0  -0.539752  0  2.324538  0  -1.154083  0  -0.397427  -0.507101  0  2.351012  0
O  O132  1  0.35396921  0.37749203  0.17319106  1  0  -0.569177  0  2.110773  0  0  -0.513045  0  2.340546  0  0  -0.532145  0  2.330205  0  -1.147237  0  -0.396081  -0.499434  0  2.346958  0
O  O133  1  0.14601129  0.62252493  0.67319727  1  0  -0.568944  0  2.110506  0  0  -0.512836  0  2.340224  0  0  -0.531934  0  2.329883  0  -1.152819  0  -0.395942  -0.499222  0  2.34662  0
O  O134  1  0.64602272  0.87747464  0.32680751  1  0  -0.569005  0  2.110484  0  0  -0.512936  0  2.340341  0  0  -0.532033  0  2.330024  0  -1.152675  0  -0.395956  -0.499323  0  2.346736  0
O  O135  1  0.85396456  0.12251645  0.82679843  1  0  -0.569163  0  2.11023  0  0  -0.512962  0  2.340061  0  0  -0.532064  0  2.329703  0  -1.152427  0  -0.396026  -0.499353  0  2.346479  0
O  O136  1  0.41788147  0.74696093  0.14288026  1  0  -0.621947  0  2.021249  0  0  -0.554645  0  2.257011  0  0  -0.58427  0  2.246822  0  -1.148847  0  -0.311942  -0.533799  0  2.263029  0
O  O137  1  0.08212501  0.25303447  0.64289554  1  0  -0.622079  0  2.021725  0  0  -0.554665  0  2.257386  0  0  -0.584298  0  2.247204  0  -1.148839  0  -0.311943  -0.533822  0  2.263405  0
O  O138  1  0.58212655  0.24697724  0.35711019  1  0  -0.621986  0  2.021219  0  0  -0.554636  0  2.256941  0  0  -0.584263  0  2.246757  0  -1.148764  0  -0.311951  -0.53379  0  2.262955  0
O  O139  1  0.91783723  0.75303432  0.85711210  1  0  -0.622176  0  2.021498  0  0  -0.554763  0  2.257212  0  0  -0.58439  0  2.247022  0  -1.14899  0  -0.311996  -0.533919  0  2.263239  0
O  O140  1  0.44170414  0.63173255  0.23560059  1  0  -0.641708  0  2.048591  0  0  -0.57221  0  2.305667  0  0  -0.603505  0  2.294603  0  -1.156959  0  -0.318583  -0.549866  0  2.312715  0
O  O141  1  0.05830605  0.36825638  0.73560823  1  0  -0.641872  0  2.047976  0  0  -0.572497  0  2.305185  0  0  -0.603798  0  2.294112  0  -1.15692  0  -0.318704  -0.550147  0  2.312234  0
O  O142  1  0.55830016  0.13173808  0.26439798  1  0  -0.641815  0  2.048325  0  0  -0.572385  0  2.305509  0  0  -0.603688  0  2.294446  0  -1.156873  0  -0.318642  -0.55002  0  2.312513  0
O  O143  1  0.94168712  0.86826917  0.76439750  1  0  -0.641743  0  2.048261  0  0  -0.572311  0  2.305533  0  0  -0.603613  0  2.294469  0  -1.156796  0  -0.318549  -0.549953  0  2.312559  0
