# generated using pymatgen
data_TbH6(C3O5)2
_symmetry_space_group_name_H-M   'P 1'
_cell_length_a   6.06495079
_cell_length_b   6.04338799
_cell_length_c   14.38924656
_cell_angle_alpha   102.00282021
_cell_angle_beta   104.62583163
_cell_angle_gamma   90.02817283
_symmetry_Int_Tables_number   1
_chemical_formula_structural   TbH6(C3O5)2
_chemical_formula_sum   'Tb2 H12 C12 O20'
_cell_volume   498.37629134
_cell_formula_units_Z   2
loop_
 _symmetry_equiv_pos_site_id
 _symmetry_equiv_pos_as_xyz
  1  'x, y, z'
loop_
 _atom_site_type_symbol
 _atom_site_label
 _atom_site_symmetry_multiplicity
 _atom_site_fract_x
 _atom_site_fract_y
 _atom_site_fract_z
 _atom_site_occupancy
 _atom_site_pbe_bader_charge
 _atom_site_pbe_bader_spin_density
 _atom_site_pbe_cm5_charge
 _atom_site_pbe_ddec_charge
 _atom_site_pbe_ddec_spin_density
 _atom_site_pbe_ddec_sum_bond_order
 _atom_site_pbe_magmom
Tb  Tb0  1  0.77190099  0.34932182  0.85172276  1  2.180922  0  1.491326  2.008944  0  2.129002  0
Tb  Tb1  1  0.79116678  0.05021844  0.26295476  1  2.180615  0  1.491937  2.009679  0  2.128783  0
H  H2  1  0.13982128  0.03419196  0.60466334  1  0.082497  0  0.117358  0.080983  0  0.956897  0
H  H3  1  0.42155315  0.98717810  0.51113991  1  0.090682  0  0.118101  0.082169  0  0.956353  0
H  H4  1  0.23388342  0.47506699  0.14782364  1  0.125282  0  0.122146  0.078132  0  0.985695  0
H  H5  1  0.26803130  0.62531355  0.38350754  1  0.14762  0  0.132097  0.101266  0  0.978388  0
H  H6  1  0.29597363  0.80555571  0.73130465  1  0.156087  0  0.131731  0.100095  0  0.980712  0
H  H7  1  0.32883813  0.88888324  0.96677076  1  0.120445  0  0.122127  0.077246  0  0.98758  0
H  H8  1  0.96954398  0.37479458  0.62842400  1  0.661086  0  0.301504  0.357888  0  0.97478  0
H  H9  1  0.58923587  0.30186165  0.48495512  1  0.6529  0  0.301718  0.356112  0  0.975149  0
H  H10  1  0.38522492  0.84093057  0.27897559  1  0.633553  0  0.312845  0.408025  0  0.915595  0
H  H11  1  0.54857864  0.63068202  0.29608925  1  0.656161  0  0.312029  0.417878  0  0.900107  0
H  H12  1  0.01316200  0.89706255  0.81796458  1  0.642428  0  0.312504  0.418376  0  0.899326  0
H  H13  1  0.17700349  0.12364839  0.83471864  1  0.645205  0  0.314407  0.408679  0  0.913911  0
C  C14  1  0.99048762  0.09247370  0.46162799  1  1.551819  0  0.193864  0.558624  0  4.159273  0
C  C15  1  0.15798442  0.16504464  0.56312324  1  0.504525  0  0.003256  0.061268  0  3.882767  0
C  C16  1  0.40210672  0.15988233  0.55160524  1  0.489127  0  0.004485  0.062341  0  3.881202  0
C  C17  1  0.56971178  0.19292541  0.65326753  1  1.550374  0  0.193431  0.559885  0  4.161523  0
C  C18  1  0.90306970  0.62438247  0.08180417  1  1.630053  0  0.227993  0.593443  0  4.184321  0
C  C19  1  0.10404326  0.47270592  0.07828002  1  0.923613  0  0.129944  0.233951  0  3.796074  0
C  C20  1  0.17691198  0.46341536  0.34148685  1  0.932985  0  0.131263  0.217211  0  3.795962  0
C  C21  1  0.30185056  0.27343324  0.29166855  1  1.596456  0  0.221173  0.54686  0  4.234207  0
C  C22  1  0.26177995  0.54502267  0.82336960  1  1.597062  0  0.220462  0.546002  0  4.233916  0
C  C23  1  0.38710304  0.68645136  0.77394440  1  0.934148  0  0.132462  0.2191  0  3.792454  0
C  C24  1  0.45923252  0.95381797  0.03632779  1  0.924357  0  0.129987  0.233953  0  3.801031  0
C  C25  1  0.66090494  0.10139139  0.03312257  1  1.62208  0  0.22861  0.593932  0  4.182868  0
O  O26  1  0.80871068  0.19705622  0.43845518  1  -1.186075  0  -0.362084  -0.607898  0  2.311485  0
O  O27  1  0.03997962  0.93138165  0.39897431  1  -1.180038  0  -0.38206  -0.613302  0  2.266163  0
O  O28  1  0.12095740  0.38363035  0.61406114  1  -1.142219  0  -0.388371  -0.474258  0  2.2412  0
O  O29  1  0.43796677  0.32585781  0.49939172  1  -1.14126  0  -0.385848  -0.470338  0  2.247418  0
O  O30  1  0.74906510  0.32392078  0.67592659  1  -1.183443  0  -0.361993  -0.60843  0  2.3105  0
O  O31  1  0.52268920  0.09425328  0.71651416  1  -1.175198  0  -0.382535  -0.614703  0  2.273762  0
O  O32  1  0.88952909  0.72595109  0.16576623  1  -1.17548  0  -0.377192  -0.606224  0  2.315255  0
O  O33  1  0.77147319  0.63307047  0.99868159  1  -1.157954  0  -0.348787  -0.608728  0  2.253053  0
O  O34  1  0.12360018  0.35897520  0.99996268  1  -1.096392  0  -0.250829  -0.367316  0  2.362285  0
O  O35  1  0.97053561  0.43430697  0.32959145  1  -1.08835  0  -0.26285  -0.345168  0  2.378001  0
O  O36  1  0.49755694  0.32184264  0.28136795  1  -1.176687  0  -0.34768  -0.603542  0  2.298276  0
O  O37  1  0.19232124  0.08353331  0.26095508  1  -1.161378  0  -0.341075  -0.594021  0  2.382511  0
O  O38  1  0.37110838  0.38541001  0.85389960  1  -1.162027  0  -0.340439  -0.592602  0  2.381948  0
O  O39  1  0.06565371  0.60285886  0.83327790  1  -1.174698  0  -0.346365  -0.602717  0  2.296827  0
O  O40  1  0.59339120  0.66952846  0.78592111  1  -1.096713  0  -0.26111  -0.34369  0  2.378235  0
O  O41  1  0.43944898  0.91638166  0.11439117  1  -1.089942  0  -0.249755  -0.365638  0  2.362431  0
O  O42  1  0.79341903  0.19067334  0.11629226  1  -1.157069  0  -0.347788  -0.607686  0  2.248797  0
O  O43  1  0.67312262  0.12174353  0.94921789  1  -1.16999  0  -0.377519  -0.606661  0  2.313143  0
O  O44  1  0.54363572  0.79522321  0.29791988  1  -1.259856  0  -0.642024  -0.849636  0  2.090808  0
O  O45  1  0.01844020  0.05922368  0.81514568  1  -1.257311  0  -0.642456  -0.849486  0  2.087026  0
