# generated using pymatgen
data_Zn4H40C80Br13N25
_symmetry_space_group_name_H-M   'P 1'
_cell_length_a   18.99819040
_cell_length_b   19.09685910
_cell_length_c   20.49840180
_cell_angle_alpha   106.08670267
_cell_angle_beta   107.63206036
_cell_angle_gamma   111.73722364
_symmetry_Int_Tables_number   1
_chemical_formula_structural   Zn4H40C80Br13N25
_chemical_formula_sum   'Zn4 H40 C80 Br13 N25'
_cell_volume   5912.91343401
_cell_formula_units_Z   1
loop_
 _symmetry_equiv_pos_site_id
 _symmetry_equiv_pos_as_xyz
  1  'x, y, z'
loop_
 _atom_site_type_symbol
 _atom_site_label
 _atom_site_symmetry_multiplicity
 _atom_site_fract_x
 _atom_site_fract_y
 _atom_site_fract_z
 _atom_site_occupancy
 _atom_site_pbe_bader_charge
 _atom_site_pbe_bader_spin_density
 _atom_site_pbe_cm5_charge
 _atom_site_pbe_ddec_charge
 _atom_site_pbe_ddec_spin_density
 _atom_site_pbe_ddec_sum_bond_order
 _atom_site_pbe_magmom
Zn  Zn0  1  0.89546400  0.89807903  0.49753200  1  1.190807  0  0.735005  0.606276  0  2.482384  0
Zn  Zn1  1  0.11465100  0.11636838  0.50578821  1  1.192892  0  0.743301  0.614768  0  2.431389  0
Zn  Zn2  1  0.10593264  0.00603628  0.60487931  1  1.201341  0  0.744672  0.642874  0  2.384649  0
Zn  Zn3  1  0.90628173  0.00086612  0.39499513  1  1.193207  0  0.741692  0.615179  0  2.487096  0
H  H4  1  0.31593101  0.17812209  0.53147725  1  0.094013  0  0.120891  0.11237  0  0.989775  0
H  H5  1  0.89825851  0.86709231  0.25930692  1  0.089571  0  0.122025  0.116254  0  0.985045  0
H  H6  1  0.17178751  0.02545160  0.39013899  1  0.076435  0  0.114794  0.1061  0  1.009941  0
H  H7  1  0.87607017  0.74291709  0.36830891  1  0.136481  0  0.125079  0.120221  0  0.980461  0
H  H8  1  0.71602562  0.86780002  0.24288638  1  0.089577  0  0.117955  0.107222  0  1.000854  0
H  H9  1  0.30632992  0.04926063  0.67474840  1  0.09254  0  0.117301  0.110641  0  1.005281  0
H  H10  1  0.48105310  0.24497029  0.61598679  1  0.07698  0  0.091238  0.09768  0  1.04683  0
H  H11  1  0.14681050  0.28940482  0.47767128  1  0.08907  0  0.115919  0.111786  0  1.001429  0
H  H12  1  0.74738454  0.31523640  0.60618083  1  0.111161  0  0.092023  0.113498  0  1.043303  0
H  H13  1  0.74426085  0.00223442  0.60681324  1  0.067679  0  0.087833  0.093279  0  1.0724  0
H  H14  1  0.49958790  0.95022058  0.64424253  1  0.073894  0  0.104911  0.117582  0  1.007038  0
H  H15  1  0.12110142  0.72422432  0.40043249  1  0.056802  0  0.096443  0.102359  0  1.015051  0
H  H16  1  0.88091166  0.61832181  0.40602803  1  0.090764  0  0.09085  0.096986  0  1.053853  0
H  H17  1  0.81139550  0.33779700  0.36630199  1  0.08255  0  0.108768  0.1279  0  0.983095  0
H  H18  1  0.89095487  0.26598280  0.37209650  1  0.066277  0  0.095986  0.102563  0  1.029338  0
H  H19  1  0.10022518  0.12413683  0.74517515  1  0.102078  0  0.117147  0.107687  0  1.025139  0
H  H20  1  0.17849430  0.63171989  0.36152187  1  0.085303  0  0.103537  0.122041  0  0.991839  0
H  H21  1  0.38035789  0.57645106  0.18704019  1  0.07489  0  0.107961  0.114029  0  0.988158  0
H  H22  1  0.52132166  0.68587158  0.29746947  1  0.05749  0  0.101263  0.104975  0  0.996245  0
H  H23  1  0.17666025  0.38791342  0.72863561  1  0.09421  0  0.102244  0.119553  0  1.005886  0
H  H24  1  0.86190743  0.13882461  0.48074435  1  0.096764  0  0.107907  0.09907  0  1.029026  0
H  H25  1  0.62402202  0.71530747  0.13971154  1  0.085149  0  0.099294  0.112763  0  1.007464  0
H  H26  1  0.96270960  0.90864184  0.05008321  1  0.070924  0  0.094639  0.106276  0  1.043515  0
H  H27  1  0.84645018  0.82013104  0.73269520  1  0.064184  0  0.091051  0.105762  0  1.036718  0
H  H28  1  0.08173926  0.79865717  0.89951044  1  0.126372  0  0.110532  0.129476  0  0.999832  0
H  H29  1  0.10987457  0.79321008  0.11720964  1  0.066635  0  0.101185  0.121444  0  1.005049  0
H  H30  1  0.10504143  0.27053998  0.61643794  1  0.093741  0  0.119386  0.108141  0  0.999229  0
H  H31  1  0.86869527  0.01047339  0.62512655  1  0.077486  0  0.117414  0.108585  0  0.994295  0
H  H32  1  0.11220721  0.94670499  0.74822418  1  0.093004  0  0.115499  0.111007  0  1.005646  0
H  H33  1  0.69428932  0.73713180  0.38419458  1  0.089851  0  0.113966  0.102242  0  1.016814  0
H  H34  1  0.38402065  0.93086299  0.58683743  1  0.435094  0  0.29987  0.292514  0  0.953719  0
H  H35  1  0.32094392  0.97407621  0.58608946  1  0.447857  0  0.270915  0.252743  0  1.070958  0
H  H36  1  0.03597671  0.18257436  0.79595290  1  0.427785  0  0.305342  0.299648  0  0.939643  0
H  H37  1  0.08371099  0.22787837  0.89307735  1  0.448931  0  0.278662  0.274752  0  1.013149  0
H  H38  1  0.98188341  0.00653244  0.23725862  1  0.452307  0  0.288078  0.279743  0  0.992565  0
H  H39  1  0.94971904  0.99753808  0.14732523  1  0.428594  0  0.30177  0.297818  0  0.943991  0
H  H40  1  0.83641815  0.79260482  0.89924936  1  0.472189  0  0.30471  0.293436  0  0.979571  0
H  H41  1  0.78544361  0.80562933  0.82143822  1  0.422653  0  0.31277  0.307048  0  0.933891  0
H  H42  1  0.13672198  0.86871334  0.31263962  1  0.432943  0  0.292107  0.282167  0  0.987453  0
H  H43  1  0.16856889  0.82311587  0.25240221  1  0.442059  0  0.305408  0.301145  0  0.943063  0
C  C44  1  0.91119151  0.84036697  0.62645814  1  0.403403  0  0.075101  0.128744  0  4.010999  0
C  C45  1  0.01577111  0.23590013  0.38393705  1  0.063265  0  -0.044056  -0.080944  0  4.072483  0
C  C46  1  0.10925038  0.22850041  0.71008305  1  0.016892  0  -0.033588  -0.029804  0  4.039533  0
C  C47  1  0.84875310  0.09326825  0.56941804  1  -0.010753  0  -0.039784  -0.034675  0  4.052911  0
C  C48  1  0.71300693  0.77975920  0.35914536  1  0.427155  0  0.006323  -0.056777  0  3.988272  0
C  C49  1  0.29997297  0.14444330  0.56439556  1  0.397344  0  0.00768  -0.05657  0  3.982529  0
C  C50  1  0.07436882  0.83832025  0.49583567  1  0.414163  0  0.075878  0.125765  0  4.008866  0
C  C51  1  0.96361092  0.91107546  0.30243336  1  0.421073  0  0.010611  -0.047965  0  3.954923  0
C  C52  1  0.10320080  0.99158213  0.36877303  1  0.369053  0  -0.001424  -0.076924  0  3.974879  0
C  C53  1  0.94104118  0.78226860  0.41348599  1  0.384403  0  0.015636  -0.030977  0  3.936302  0
C  C54  1  0.72499580  0.84570445  0.28659878  1  0.419768  0  0.009638  -0.053235  0  3.992587  0
C  C55  1  0.08257028  0.23766597  0.43959550  1  0.466216  0  0.007477  -0.042992  0  4.004477  0
C  C56  1  0.29471003  0.07755108  0.63638082  1  0.425332  0  0.000902  -0.06604  0  4.016157  0
C  C57  1  0.66773484  0.77450343  0.28792783  1  -0.008723  0  -0.036167  -0.03719  0  4.082848  0
C  C58  1  0.34770277  0.11756496  0.60763410  1  -0.036344  0  -0.036179  -0.018627  0  4.059517  0
C  C59  1  0.00641714  0.76266320  0.43380251  1  0.026826  0  -0.03546  -0.079549  0  4.059711  0
C  C60  1  0.03902057  0.93071131  0.29502960  1  -0.001851  0  -0.03566  -0.004932  0  4.063569  0
C  C61  1  0.44385487  0.05626402  0.61700590  1  0.417173  0  0.103254  0.222276  0  4.016153  0
C  C62  1  0.42959587  0.12404049  0.61583652  1  0.046507  0  -0.019045  -0.012277  0  4.01944  0
C  C63  1  0.49214955  0.19318217  0.61718788  1  -0.037928  0  -0.093814  -0.162768  0  3.981762  0
C  C64  1  0.56803453  0.19778170  0.61814925  1  0.028557  0  -0.026294  0.00752  0  4.06681  0
C  C65  1  0.58408343  0.13119686  0.62238117  1  -0.041429  0  0.000952  0.019017  0  3.948502  0
C  C66  1  0.09810300  0.14901030  0.70349588  1  0.435163  0  0.007832  -0.050527  0  3.960485  0
C  C67  1  0.52315457  0.06253331  0.62556912  1  0.029132  0  -0.020751  -0.022089  0  4.021406  0
C  C68  1  0.63140647  0.26423497  0.61415440  1  -0.102832  0  -0.012636  0.088114  0  3.953663  0
C  C69  1  0.70216031  0.26392841  0.61075248  1  0.030449  0  -0.114047  -0.207629  0  4.003565  0
C  C70  1  0.71687075  0.19569004  0.61116046  1  0.007187  0  -0.01159  0.052774  0  4.014628  0
C  C71  1  0.65789668  0.13033111  0.61999923  1  0.04623  0  0.004232  0.016723  0  3.903284  0
C  C72  1  0.67217205  0.06250024  0.62289510  1  0.008281  0  -0.01845  0.034158  0  4.063974  0
C  C73  1  0.61331432  0.99943542  0.63379656  1  -0.161801  0  -0.018147  0.07315  0  3.965841  0
C  C74  1  0.54162069  0.99874220  0.63457255  1  0.03589  0  -0.104176  -0.185258  0  4.022241  0
C  C75  1  0.78428382  0.18775087  0.60032717  1  -0.096349  0  -0.016721  0.009098  0  3.858781  0
C  C76  1  0.79371709  0.11709022  0.59584970  1  0.047212  0  -0.013274  0.051666  0  4.058098  0
C  C77  1  0.86963981  0.10128781  0.51056890  1  0.437167  0  0.008214  -0.040636  0  3.959049  0
C  C78  1  0.73871221  0.05772960  0.61056114  1  -0.001237  0  -0.102931  -0.182178  0  3.977628  0
C  C79  1  0.06772303  0.67138420  0.39597690  1  0.00136  0  -0.090048  -0.185436  0  3.940222  0
C  C80  1  0.00199896  0.68096609  0.40693242  1  -0.004036  0  -0.008031  0.110529  0  4.067374  0
C  C81  1  0.93205847  0.61112401  0.39727410  1  -0.061632  0  -0.091252  -0.170208  0  3.928722  0
C  C82  1  0.92839168  0.53340162  0.38142557  1  0.040743  0  -0.00982  0.041829  0  4.026974  0
C  C83  1  0.99796815  0.52452565  0.37450063  1  0.022391  0  0.003646  0.007326  0  3.90869  0
C  C84  1  0.06619313  0.59424625  0.37955866  1  0.003848  0  -0.008063  0.099145  0  4.058805  0
C  C85  1  0.85972221  0.46224890  0.37550865  1  -0.086998  0  -0.013997  0.07313  0  3.975874  0
C  C86  1  0.86271699  0.39057857  0.36855209  1  0.001785  0  -0.09577  -0.187661  0  3.987577  0
C  C87  1  0.93427266  0.38348208  0.36585034  1  0.054121  0  -0.008519  0.095303  0  4.065283  0
C  C88  1  0.10210530  0.22435131  0.63825184  1  0.407176  0  0.015527  -0.035792  0  3.936209  0
C  C89  1  0.00159942  0.44946510  0.36563349  1  -0.022346  0  0.005471  0.015437  0  3.894485  0
C  C90  1  0.07205496  0.43995412  0.35957384  1  0.04485  0  -0.011396  -0.011892  0  3.952409  0
C  C91  1  0.13202529  0.50817163  0.35276141  1  -0.074647  0  -0.016394  0.080142  0  3.914654  0
C  C92  1  0.13046951  0.58170977  0.36525650  1  0.00622  0  -0.098448  -0.185659  0  3.990644  0
C  C93  1  0.94059604  0.31363194  0.36770049  1  -0.021836  0  -0.090779  -0.171458  0  3.964381  0
C  C94  1  0.01142746  0.30592912  0.36984023  1  0.0337  0  -0.017821  0.053804  0  4.053355  0
C  C95  1  0.07522541  0.36787631  0.36349280  1  -0.091563  0  -0.014698  0.022878  0  3.846163  0
C  C96  1  0.58290960  0.71038820  0.22651188  1  -0.018928  0  -0.005442  0.108093  0  4.036583  0
C  C97  1  0.57013221  0.68755641  0.15082500  1  -0.024467  0  -0.102083  -0.189504  0  3.98101  0
C  C98  1  0.49104481  0.62784868  0.08940916  1  -0.078705  0  -0.010401  0.066066  0  3.908303  0
C  C99  1  0.87256262  0.03534922  0.58387645  1  0.438736  0  0.010682  -0.042207  0  3.95599  0
C  C100  1  0.42031786  0.58789273  0.10186186  1  0.393236  0  0.082736  0.122493  0  4.039053  0
C  C101  1  0.43473197  0.60921820  0.17816501  1  -0.008692  0  -0.082351  -0.126378  0  3.978448  0
C  C102  1  0.51344013  0.66956775  0.23936903  1  -0.000217  0  -0.097738  -0.141805  0  4.007059  0
C  C103  1  0.19180343  0.37304817  0.91613610  1  -0.088924  0  -0.022938  -0.042916  0  3.84806  0
C  C104  1  0.13892815  0.29928432  0.84705056  1  0.426302  0  0.086476  0.200192  0  4.06737  0
C  C105  1  0.24302693  0.45166338  0.91986959  1  0.490912  0  0.072844  0.079478  0  4.044632  0
C  C106  1  0.14006473  0.30330675  0.77880696  1  0.013867  0  -0.004554  0.027157  0  3.979856  0
C  C107  1  0.17944455  0.38280247  0.78082043  1  0.064256  0  -0.106319  -0.192214  0  4.027501  0
C  C108  1  0.22778838  0.45504770  0.84888498  1  -0.129478  0  -0.016821  0.062627  0  3.95489  0
C  C109  1  0.96469046  0.82183096  0.75070719  1  0.070892  0  -0.011632  0.075358  0  4.043153  0
C  C110  1  0.94916948  0.15324723  0.35443159  1  0.365209  0  0.073961  0.124705  0  4.023891  0
C  C111  1  0.02842938  0.81002176  0.79635414  1  -0.082738  0  -0.029712  0.048797  0  3.93787  0
C  C112  1  0.02978227  0.80173494  0.86151038  1  0.010557  0  -0.091265  -0.180008  0  3.983566  0
C  C113  1  0.96497932  0.80048542  0.88180054  1  0.459925  0  0.077789  0.07313  0  4.031648  0
C  C114  1  0.89324218  0.79866783  0.83060960  1  0.431013  0  0.108826  0.262317  0  4.088869  0
C  C115  1  0.89647830  0.81218171  0.76742376  1  -0.068507  0  -0.111404  -0.255162  0  3.958803  0
C  C116  1  0.99456204  0.89335300  0.09328437  1  -0.043834  0  -0.132142  -0.325505  0  4.002868  0
C  C117  1  0.99885913  0.92224878  0.16547025  1  0.403632  0  0.085715  0.279393  0  4.119524  0
C  C118  1  0.03319802  0.84569855  0.07605840  1  0.322168  0  0.076712  0.203741  0  4.13774  0
C  C119  1  0.04131967  0.90234164  0.22151275  1  0.017731  0  -0.034575  -0.146471  0  3.940161  0
C  C120  1  0.08256488  0.85667915  0.20425318  1  0.396199  0  0.08846  0.27814  0  4.125  0
C  C121  1  0.04812812  0.91633626  0.70280162  1  0.451162  0  0.010346  -0.035123  0  3.994445  0
C  C122  1  0.07937788  0.82941897  0.13173638  1  -0.001147  0  -0.119566  -0.305919  0  3.947722  0
C  C123  1  0.97289355  0.85324533  0.69442032  1  0.054583  0  -0.040399  -0.076814  0  4.06551  0
Br  Br124  1  0.79351260  0.76408925  0.57195290  1  -0.041646  0  0.04779  -0.052389  0  1.406266  0
Br  Br125  1  0.17765810  0.85514242  0.56395358  1  -0.04613  0  0.074607  -0.033015  0  1.543934  0
Br  Br126  1  0.61649992  0.35704653  0.61110026  1  -0.081563  0  0.002517  -0.087158  0  1.330302  0
Br  Br127  1  0.86416502  0.27560421  0.59027414  1  -0.080405  0  0.029442  -0.062753  0  1.419401  0
Br  Br128  1  0.63445631  0.91256263  0.64667282  1  -0.097127  0  -0.007343  -0.105873  0  1.347121  0
Br  Br129  1  0.76317894  0.46803987  0.37999172  1  -0.071934  0  0.013819  -0.080697  0  1.342524  0
Br  Br130  1  0.16827539  0.35025572  0.36518732  1  -0.054429  0  0.020684  -0.065326  0  1.557627  0
Br  Br131  1  0.21384542  0.50322577  0.31802884  1  -0.06804  0  -0.005784  -0.093327  0  1.449061  0
Br  Br132  1  0.18973951  0.36188478  0.00523153  1  -0.043721  0  0.036212  -0.059037  0  1.49001  0
Br  Br133  1  0.48861034  0.59829815  0.99180757  1  -0.044912  0  0.007207  -0.081066  0  1.446257  0
Br  Br134  1  0.27986068  0.55940935  0.84561261  1  -0.052958  0  -0.004238  -0.09236  0  1.410657  0
Br  Br135  1  0.11501000  0.80431183  0.76926864  1  -0.101196  0  -0.013284  -0.111505  0  1.359761  0
Br  Br136  1  0.83748971  0.09690916  0.27554563  1  -0.038266  0  0.050671  -0.045119  0  1.391841  0
N  N137  1  0.94622643  0.89072728  0.59732727  1  -0.797141  0  -0.277093  -0.227629  0  3.532325  0
N  N138  1  0.22503585  0.12145182  0.56682927  1  -0.772569  0  -0.269953  -0.171086  0  3.552812  0
N  N139  1  0.05195847  0.89779979  0.51048997  1  -0.760325  0  -0.279357  -0.229816  0  3.594133  0
N  N140  1  0.98181500  0.95811166  0.37392652  1  -0.822364  0  -0.291264  -0.192084  0  3.667659  0
N  N141  1  0.06757912  0.00746005  0.41519277  1  -0.751443  0  -0.285349  -0.185755  0  3.613967  0
N  N142  1  0.96895615  0.86260081  0.45967323  1  -0.775279  0  -0.275612  -0.164812  0  3.594632  0
N  N143  1  0.79802904  0.88969138  0.35163803  1  -0.789259  0  -0.272515  -0.173929  0  3.560762  0
N  N144  1  0.22151979  0.07918431  0.61125779  1  -0.800482  0  -0.273856  -0.185445  0  3.550993  0
N  N145  1  0.33866973  0.52233780  0.04661989  1  -0.482022  0  -0.162232  -0.130648  0  3.330792  0
N  N146  1  0.31435255  0.52350063  0.98217191  1  -0.480037  0  -0.157181  -0.099999  0  3.382941  0
N  N147  1  0.96751167  0.81125471  0.95235334  1  -0.564794  0  -0.161153  -0.131284  0  3.408272  0
N  N148  1  0.05743578  0.16328415  0.44224830  1  -0.798508  0  -0.266177  -0.154536  0  3.537884  0
N  N149  1  0.03026155  0.81651602  0.00337801  1  -0.47662  0  -0.163089  -0.148069  0  3.217179  0
N  N150  1  0.08733016  0.10374300  0.63458029  1  -0.760287  0  -0.283918  -0.182407  0  3.658893  0
N  N151  1  0.90115227  0.05062472  0.49128076  1  -0.787598  0  -0.284163  -0.178167  0  3.629606  0
N  N152  1  0.08998228  0.14982019  0.59449067  1  -0.828512  0  -0.277435  -0.174904  0  3.625385  0
N  N153  1  0.90312856  0.01017526  0.53641306  1  -0.810019  0  -0.285986  -0.180713  0  3.633028  0
N  N154  1  0.97376680  0.11008919  0.38885532  1  -0.771209  0  -0.27581  -0.23077  0  3.530126  0
N  N155  1  0.03215087  0.93844572  0.64562207  1  -0.789527  0  -0.265987  -0.163584  0  3.519402  0
N  N156  1  0.79105984  0.84841836  0.39668903  1  -0.799681  0  -0.271273  -0.174929  0  3.548683  0
N  N157  1  0.38109843  0.98358204  0.60924236  1  -1.244183  0  -0.60476  -0.608755  0  3.382213  0
N  N158  1  0.09074062  0.22299832  0.84499998  1  -1.199787  0  -0.601205  -0.602537  0  3.354754  0
N  N159  1  0.95933995  0.96888774  0.18136434  1  -1.231836  0  -0.608735  -0.633586  0  3.331655  0
N  N160  1  0.82554871  0.78709636  0.84582690  1  -1.227522  0  -0.585868  -0.598208  0  3.345606  0
N  N161  1  0.12259114  0.83522058  0.25804133  1  -1.239679  0  -0.60602  -0.627847  0  3.323654  0
