# generated using pymatgen
data_Cd3H14C20(NO)8
_symmetry_space_group_name_H-M   'P 1'
_cell_length_a   9.96716998
_cell_length_b   9.96711634
_cell_length_c   13.10918822
_cell_angle_alpha   76.24108955
_cell_angle_beta   76.24085130
_cell_angle_gamma   71.15500641
_symmetry_Int_Tables_number   1
_chemical_formula_structural   Cd3H14C20(NO)8
_chemical_formula_sum   'Cd6 H28 C40 N16 O16'
_cell_volume   1178.63343743
_cell_formula_units_Z   2
loop_
 _symmetry_equiv_pos_site_id
 _symmetry_equiv_pos_as_xyz
  1  'x, y, z'
loop_
 _atom_site_type_symbol
 _atom_site_label
 _atom_site_symmetry_multiplicity
 _atom_site_fract_x
 _atom_site_fract_y
 _atom_site_fract_z
 _atom_site_occupancy
 _atom_site_pbe_bader_spin_density
 _atom_site_pbe_cm5_charge
 _atom_site_pbe_ddec_charge
 _atom_site_pbe_ddec_spin_density
 _atom_site_pbe_ddec_sum_bond_order
 _atom_site_pbe_magmom
Cd  Cd0  1  0.63217834  0.61691976  0.96902318  1  0  0.785133  0.907076  0  2.19664  0
Cd  Cd1  1  0.38308122  0.36782029  0.53097659  1  0  0.785145  0.907092  0  2.196571  0
Cd  Cd2  1  0.36781978  0.38308069  0.03097585  1  0  0.785144  0.90705  0  2.196634  0
Cd  Cd3  1  0.61691823  0.63217908  0.46902316  1  0  0.785142  0.907092  0  2.196598  0
Cd  Cd4  1  0.49999816  0.99999964  0.00000141  1  0  0.830937  0.969465  0  2.213244  0
Cd  Cd5  1  0.99999828  0.49999848  0.50000001  1  0  0.830961  0.969524  0  2.213167  0
H  H6  1  0.43954898  0.05347720  0.23498316  1  0  0.306338  0.321081  0  0.946344  0
H  H7  1  0.94652325  0.56045117  0.26502142  1  0  0.306366  0.321046  0  0.946424  0
H  H8  1  0.56045046  0.94652216  0.76501812  1  0  0.306346  0.321094  0  0.946387  0
H  H9  1  0.05347723  0.43954820  0.73497891  1  0  0.306338  0.320993  0  0.94645  0
H  H10  1  0.49841695  0.96016044  0.35243785  1  0  0.301828  0.325015  0  0.966059  0
H  H11  1  0.03984343  0.50158068  0.14756522  1  0  0.301846  0.325048  0  0.966061  0
H  H12  1  0.50158382  0.03983785  0.64756338  1  0  0.301854  0.325052  0  0.966027  0
H  H13  1  0.96015675  0.49841977  0.85243497  1  0  0.301842  0.324998  0  0.966101  0
H  H14  1  0.11767047  0.65205125  0.94366184  1  0  0.105067  0.10987  0  1.026592  0
H  H15  1  0.34795408  0.88232462  0.55633813  1  0  0.105051  0.10985  0  1.026694  0
H  H16  1  0.88232303  0.34795458  0.05633858  1  0  0.105048  0.109862  0  1.026654  0
H  H17  1  0.65204968  0.11767044  0.44366238  1  0  0.105072  0.10989  0  1.026597  0
H  H18  1  0.24730895  0.04274427  0.86295670  1  0  0.099951  0.096201  0  1.024123  0
H  H19  1  0.95725873  0.75269033  0.63704374  1  0  0.099931  0.096178  0  1.0241  0
H  H20  1  0.75268784  0.95725727  0.13704161  1  0  0.099972  0.096269  0  1.024056  0
H  H21  1  0.04274353  0.24731013  0.36295379  1  0  0.099974  0.096207  0  1.024119  0
H  H22  1  0.99737675  0.18623678  0.83852175  1  0  0.098449  0.101357  0  1.025292  0
H  H23  1  0.81377234  0.00262445  0.66147682  1  0  0.098482  0.101376  0  1.025194  0
H  H24  1  0.00262283  0.81376583  0.16147741  1  0  0.098449  0.10135  0  1.025217  0
H  H25  1  0.18623743  0.99737490  0.33852264  1  0  0.098441  0.101344  0  1.025318  0
H  H26  1  0.80819878  0.05917577  0.86895777  1  0  0.104054  0.102707  0  1.005043  0
H  H27  1  0.94083052  0.19180120  0.63104239  1  0  0.104077  0.102745  0  1.005024  0
H  H28  1  0.19179811  0.94082898  0.13104300  1  0  0.10408  0.102741  0  1.005043  0
H  H29  1  0.05917748  0.80819706  0.36895986  1  0  0.104063  0.102717  0  1.005012  0
H  H30  1  0.64645077  0.50016595  0.24588359  1  0  0.131728  0.09782  0  1.0046  0
H  H31  1  0.49983458  0.35355345  0.25411311  1  0  0.131714  0.097847  0  1.004537  0
H  H32  1  0.35354971  0.49983342  0.75411598  1  0  0.131721  0.097825  0  1.004582  0
H  H33  1  0.50016561  0.64644701  0.74588479  1  0  0.131721  0.09782  0  1.00454  0
C  C34  1  0.95271159  0.84851901  0.90680245  1  0  -0.021989  -0.049466  0  3.996487  0
C  C35  1  0.15148505  0.04728536  0.59319537  1  0  -0.022051  -0.049512  0  3.996631  0
C  C36  1  0.04728087  0.15148682  0.09319892  1  0  -0.022053  -0.049427  0  3.996396  0
C  C37  1  0.84852225  0.95271186  0.40680109  1  0  -0.021995  -0.049426  0  3.996422  0
C  C38  1  0.09284051  0.76857465  0.92003538  1  0  -0.074909  -0.094459  0  3.931123  0
C  C39  1  0.23143050  0.90715687  0.57996373  1  0  -0.074877  -0.094424  0  3.93124  0
C  C40  1  0.90715433  0.23143012  0.07996346  1  0  -0.074886  -0.094512  0  3.93111  0
C  C41  1  0.76857429  0.09283819  0.42003584  1  0  -0.074872  -0.094455  0  3.931075  0
C  C42  1  0.19817359  0.83905645  0.90564834  1  0  -0.026809  -0.062181  0  4.017979  0
C  C43  1  0.16094427  0.80182757  0.59435311  1  0  -0.026823  -0.062196  0  4.018117  0
C  C44  1  0.80182392  0.16094616  0.09435118  1  0  -0.02679  -0.062077  0  4.01793  0
C  C45  1  0.83905887  0.19816964  0.40564789  1  0  -0.026852  -0.062235  0  4.018038  0
C  C46  1  0.16351136  0.98950434  0.87511958  1  0  -0.074448  -0.064756  0  3.934466  0
C  C47  1  0.01050039  0.83648868  0.62488021  1  0  -0.074396  -0.064711  0  3.934647  0
C  C48  1  0.83648584  0.01049933  0.12488209  1  0  -0.074469  -0.064923  0  3.934675  0
C  C49  1  0.98950482  0.16350852  0.37512196  1  0  -0.074454  -0.064726  0  3.934499  0
C  C50  1  0.02399252  0.06930512  0.86149778  1  0  -0.086589  -0.073951  0  3.986125  0
C  C51  1  0.93070219  0.97600747  0.63849770  1  0  -0.086607  -0.073981  0  3.986338  0
C  C52  1  0.97600439  0.93069964  0.13850147  1  0  -0.086578  -0.073903  0  3.986167  0
C  C53  1  0.06930730  0.02399298  0.36149779  1  0  -0.086593  -0.07398  0  3.986225  0
C  C54  1  0.91852247  0.99885413  0.87844451  1  0  -0.070812  -0.063443  0  3.94234  0
C  C55  1  0.00115086  0.08147839  0.62154977  1  0  -0.070837  -0.06349  0  3.942486  0
C  C56  1  0.08147518  0.00115171  0.12155288  1  0  -0.07084  -0.063519  0  3.942341  0
C  C57  1  0.99885628  0.91852316  0.37844366  1  0  -0.07082  -0.063477  0  3.94236  0
C  C58  1  0.83929096  0.77416839  0.92464773  1  0  0.201865  0.583083  0  4.195131  0
C  C59  1  0.22583846  0.16070468  0.57535371  1  0  0.201949  0.583177  0  4.194871  0
C  C60  1  0.16070252  0.22583742  0.07535575  1  0  0.201919  0.583127  0  4.19485  0
C  C61  1  0.77416914  0.83929146  0.42464517  1  0  0.201951  0.583268  0  4.19493  0
C  C62  1  0.34485159  0.75683922  0.92675266  1  0  0.206261  0.590604  0  4.177612  0
C  C63  1  0.24315477  0.65515015  0.57324560  1  0  0.206372  0.590687  0  4.177576  0
C  C64  1  0.65514703  0.24315588  0.07324417  1  0  0.20639  0.590761  0  4.177424  0
C  C65  1  0.75684290  0.34484814  0.42675618  1  0  0.206348  0.590676  0  4.177588  0
C  C66  1  0.51226292  0.83743842  0.24549083  1  0  0.320134  0.529118  0  4.101189  0
C  C67  1  0.16256081  0.48773623  0.25450946  1  0  0.320157  0.529157  0  4.1012  0
C  C68  1  0.48773786  0.16255987  0.75450964  1  0  0.320139  0.529144  0  4.101221  0
C  C69  1  0.83743894  0.51226206  0.74549119  1  0  0.320152  0.529161  0  4.101092  0
C  C70  1  0.60135275  0.61590723  0.22827206  1  0  0.133673  0.157393  0  4.034664  0
C  C71  1  0.38409342  0.39864561  0.27172444  1  0  0.133651  0.157321  0  4.034681  0
C  C72  1  0.39864670  0.38409215  0.77172768  1  0  0.133643  0.157317  0  4.03471  0
C  C73  1  0.61590707  0.60135377  0.72827436  1  0  0.133705  0.15748  0  4.034665  0
N  N74  1  0.57693425  0.68718566  0.13261890  1  0  -0.270813  -0.219752  0  3.485275  0
N  N75  1  0.31281362  0.42306416  0.36737803  1  0  -0.270812  -0.21975  0  3.485361  0
N  N76  1  0.42306240  0.31281264  0.86738153  1  0  -0.270775  -0.219646  0  3.48523  0
N  N77  1  0.68718687  0.57693521  0.63262154  1  0  -0.270809  -0.219774  0  3.485414  0
N  N78  1  0.51978272  0.83097539  0.14264069  1  0  -0.291378  -0.349059  0  3.412518  0
N  N79  1  0.16902510  0.48021436  0.35735971  1  0  -0.291407  -0.349142  0  3.412591  0
N  N80  1  0.48021393  0.16902291  0.85736127  1  0  -0.291385  -0.349079  0  3.412484  0
N  N81  1  0.83097568  0.51978393  0.64264075  1  0  -0.291399  -0.349105  0  3.412556  0
N  N82  1  0.56262631  0.70332919  0.30190014  1  0  -0.371072  -0.432792  0  3.388551  0
N  N83  1  0.29666945  0.43737123  0.19809711  1  0  -0.371038  -0.432714  0  3.388429  0
N  N84  1  0.43737551  0.29666910  0.69809938  1  0  -0.371064  -0.4328  0  3.388537  0
N  N85  1  0.70332927  0.56262707  0.80190219  1  0  -0.371085  -0.432871  0  3.388548  0
N  N86  1  0.45580828  0.95989081  0.28865755  1  0  -0.581096  -0.652958  0  3.247583  0
N  N87  1  0.04010867  0.54419299  0.21134497  1  0  -0.581157  -0.652956  0  3.247739  0
N  N88  1  0.54419146  0.04010748  0.71134386  1  0  -0.581142  -0.653024  0  3.247601  0
N  N89  1  0.95989241  0.45580422  0.78865563  1  0  -0.581132  -0.652852  0  3.247727  0
O  O90  1  0.71186449  0.85025274  0.91077359  1  0  -0.346239  -0.607314  0  2.340301  0
O  O91  1  0.14975247  0.28813158  0.58923153  1  0  -0.346264  -0.607338  0  2.340226  0
O  O92  1  0.28812750  0.14975090  0.08923435  1  0  -0.346291  -0.607392  0  2.340329  0
O  O93  1  0.85025100  0.71186457  0.41076655  1  0  -0.346278  -0.607437  0  2.34032  0
O  O94  1  0.87188302  0.63748425  0.95235430  1  0  -0.324282  -0.557823  0  2.21283  0
O  O95  1  0.36251919  0.12811619  0.54764373  1  0  -0.324316  -0.557898  0  2.212791  0
O  O96  1  0.12811389  0.36252051  0.04764342  1  0  -0.324272  -0.557858  0  2.212793  0
O  O97  1  0.63748672  0.87188206  0.45236271  1  0  -0.324295  -0.557882  0  2.21279  0
O  O98  1  0.43410631  0.82623206  0.92418676  1  0  -0.335317  -0.59541  0  2.348303  0
O  O99  1  0.17376116  0.56589586  0.57581533  1  0  -0.335365  -0.595441  0  2.348234  0
O  O100  1  0.56589391  0.17376085  0.07581552  1  0  -0.335395  -0.595473  0  2.348195  0
O  O101  1  0.82623768  0.43410567  0.42418491  1  0  -0.33538  -0.59544  0  2.348158  0
O  O102  1  0.38315708  0.61913158  0.94497147  1  0  -0.334196  -0.58266  0  2.322514  0
O  O103  1  0.38086133  0.61684328  0.55502153  1  0  -0.334279  -0.582731  0  2.32252  0
O  O104  1  0.61683920  0.38086463  0.05502024  1  0  -0.334239  -0.582749  0  2.322452  0
O  O105  1  0.61913677  0.38315715  0.44498056  1  0  -0.33425  -0.582729  0  2.322588  0
