# generated using pymatgen
data_CdH11C13BrN4O5
_symmetry_space_group_name_H-M   'P 1'
_cell_length_a   8.76759179
_cell_length_b   14.96327604
_cell_length_c   14.98058001
_cell_angle_alpha   103.97541086
_cell_angle_beta   107.02853703
_cell_angle_gamma   107.02687727
_symmetry_Int_Tables_number   1
_chemical_formula_structural   CdH11C13BrN4O5
_chemical_formula_sum   'Cd4 H44 C52 Br4 N16 O20'
_cell_volume   1677.74377714
_cell_formula_units_Z   4
loop_
 _symmetry_equiv_pos_site_id
 _symmetry_equiv_pos_as_xyz
  1  'x, y, z'
loop_
 _atom_site_type_symbol
 _atom_site_label
 _atom_site_symmetry_multiplicity
 _atom_site_fract_x
 _atom_site_fract_y
 _atom_site_fract_z
 _atom_site_occupancy
 _atom_site_hle17_bader_spin_density
 _atom_site_hle17_ddec_charge
 _atom_site_hle17_ddec_spin_density
 _atom_site_hle17_ddec_sum_bond_order
 _atom_site_hle17_magmom
 _atom_site_hse06_10hf_bader_charge
 _atom_site_hse06_10hf_bader_spin_density
 _atom_site_hse06_10hf_ddec_charge
 _atom_site_hse06_10hf_ddec_spin_density
 _atom_site_hse06_10hf_ddec_sum_bond_order
 _atom_site_hse06_10hf_magmom
 _atom_site_hse06_bader_spin_density
 _atom_site_hse06_ddec_charge
 _atom_site_hse06_ddec_spin_density
 _atom_site_hse06_ddec_sum_bond_order
 _atom_site_hse06_magmom
 _atom_site_pbe_bader_spin_density
 _atom_site_pbe_cm5_charge
 _atom_site_pbe_ddec_charge
 _atom_site_pbe_ddec_spin_density
 _atom_site_pbe_ddec_sum_bond_order
 _atom_site_pbe_magmom
Cd  Cd0  1  0.90801818  0.05422867  0.67810944  1  0  1.083898  0  1.758946  0  1.303073  0  0.883795  0  2.213897  0  0  0.937814  0  2.167324  0  0  0.78779  0.845696  0  2.24532  0
Cd  Cd1  1  0.67580664  0.44572427  0.82189998  1  0  1.083631  0  1.761716  0  1.305229  0  0.883876  0  2.216808  0  0  0.937742  0  2.170334  0  0  0.788495  0.845864  0  2.248221  0
Cd  Cd2  1  0.09198177  0.94577141  0.32188991  1  0  1.083894  0  1.758938  0  1.30308  0  0.883793  0  2.213884  0  0  0.937813  0  2.167314  0  0  0.787794  0.845694  0  2.245307  0
Cd  Cd3  1  0.32419315  0.55427656  0.17809897  1  0  1.083674  0  1.761685  0  1.305221  0  0.883924  0  2.216767  0  0  0.937791  0  2.170293  0  0  0.788512  0.845919  0  2.248175  0
H  H4  1  0.57332484  0.78020877  0.99633685  1  0  0.37929  0  0.934061  0  0.655905  0  0.348391  0  1.013041  0  0  0.361902  0  0.995888  0  0  0.2878  0.339047  0  1.021606  0
H  H5  1  0.29705996  0.71986987  0.50367767  1  0  0.379627  0  0.932064  0  0.660673  0  0.348951  0  1.010609  0  0  0.362462  0  0.99468  0  0  0.287888  0.339621  0  1.019142  0
H  H6  1  0.42667645  0.21979132  0.00366384  1  0  0.379289  0  0.934028  0  0.656014  0  0.348412  0  1.01295  0  0  0.361924  0  0.995838  0  0  0.2878  0.339069  0  1.021515  0
H  H7  1  0.70294098  0.28013021  0.49632148  1  0  0.379687  0  0.931958  0  0.660675  0  0.348952  0  1.010617  0  0  0.362463  0  0.994683  0  0  0.287879  0.339622  0  1.019149  0
H  H8  1  0.66578377  0.62369854  0.38318427  1  0  0.126653  0  0.945426  0  0.172144  0  0.13501  0  1.009532  0  0  0.138593  0  1.006886  0  0  0.113507  0.132333  0  1.011562  0
H  H9  1  0.15901792  0.87622364  0.11670526  1  0  0.127216  0  0.943975  0  0.148699  0  0.135256  0  1.008479  0  0  0.138862  0  1.005802  0  0  0.113315  0.132587  0  1.010502  0
H  H10  1  0.33421834  0.37630229  0.61681581  1  0  0.126697  0  0.945411  0  0.172135  0  0.135022  0  1.009549  0  0  0.138607  0  1.006905  0  0  0.113508  0.132346  0  1.011579  0
H  H11  1  0.84098056  0.12377570  0.88329644  1  0  0.127275  0  0.943933  0  0.148681  0  0.135267  0  1.00849  0  0  0.138871  0  1.005814  0  0  0.113328  0.132597  0  1.010513  0
H  H12  1  0.85015228  0.83286133  0.68462930  1  0  0.091609  0  0.947018  0  0.139049  0  0.094291  0  1.020933  0  0  0.098192  0  1.016847  0  0  0.113097  0.091477  0  1.023878  0
H  H13  1  0.83266894  0.66697887  0.81531449  1  0  0.092284  0  0.94698  0  0.163361  0  0.094833  0  1.021044  0  0  0.098728  0  1.016979  0  0  0.11309  0.092015  0  1.023982  0
H  H14  1  0.14984417  0.16713800  0.31536799  1  0  0.091692  0  0.947075  0  0.139  0  0.094407  0  1.020932  0  0  0.098304  0  1.016851  0  0  0.113143  0.091579  0  1.023893  0
H  H15  1  0.16732935  0.33302122  0.18468440  1  0  0.092265  0  0.946981  0  0.163389  0  0.094805  0  1.021065  0  0  0.098701  0  1.016998  0  0  0.11309  0.091981  0  1.024007  0
H  H16  1  0.83482141  0.94377894  0.45498346  1  0  0.093164  0  0.959368  0  0.145789  0  0.097433  0  1.033711  0  0  0.100752  0  1.02977  0  0  0.117373  0.095048  0  1.036518  0
H  H17  1  0.93606967  0.55616561  0.04503251  1  0  0.092666  0  0.960214  0  0.145778  0  0.097437  0  1.033982  0  0  0.100751  0  1.030073  0  0  0.117219  0.095034  0  1.03678  0
H  H18  1  0.16518372  0.05622489  0.54501749  1  0  0.093151  0  0.959343  0  0.145803  0  0.097413  0  1.03371  0  0  0.100732  0  1.029769  0  0  0.117354  0.095028  0  1.036515  0
H  H19  1  0.06392643  0.44383223  0.95496491  1  0  0.092632  0  0.960181  0  0.145782  0  0.097426  0  1.033928  0  0  0.100741  0  1.030019  0  0  0.117218  0.095023  0  1.036727  0
H  H20  1  0.47656082  0.99325745  0.65529653  1  0  0.049925  0  0.918618  0  0.107966  0  0.060035  0  0.983903  0  0  0.062079  0  0.978521  0  0  0.123597  0.058291  0  0.987944  0
H  H21  1  0.32835353  0.50681856  0.84474890  1  0  0.050336  0  0.919144  0  0.105147  0  0.060392  0  0.984384  0  0  0.062397  0  0.979063  0  0  0.123892  0.058752  0  0.988295  0
H  H22  1  0.52343882  0.00674263  0.34470369  1  0  0.049939  0  0.918622  0  0.10797  0  0.060056  0  0.983896  0  0  0.062094  0  0.978521  0  0  0.123613  0.058312  0  0.987937  0
H  H23  1  0.67164760  0.49318228  0.15525139  1  0  0.050345  0  0.919158  0  0.105146  0  0.060392  0  0.984402  0  0  0.062399  0  0.979079  0  0  0.123886  0.058752  0  0.988314  0
H  H24  1  0.24308374  0.96172432  0.68535662  1  0  0.106368  0  0.946165  0  0.065072  0  0.121963  0  1.019099  0  0  0.122795  0  1.018638  0  0  0.104965  0.121237  0  1.019546  0
H  H25  1  0.09622723  0.53827303  0.81464455  1  0  0.106658  0  0.945404  0  0.068224  0  0.121868  0  1.018804  0  0  0.122711  0  1.018345  0  0  0.105149  0.121141  0  1.019241  0
H  H26  1  0.75691573  0.03827652  0.31464320  1  0  0.106382  0  0.946174  0  0.064887  0  0.121978  0  1.019109  0  0  0.12281  0  1.01865  0  0  0.104982  0.121253  0  1.019556  0
H  H27  1  0.90377240  0.46172706  0.18535568  1  0  0.106641  0  0.94537  0  0.068284  0  0.121856  0  1.018757  0  0  0.122699  0  1.018296  0  0  0.105141  0.121129  0  1.019194  0
H  H28  1  0.25360712  0.95298166  0.80411840  1  0  0.091213  0  0.975387  0  0.082073  0  0.107901  0  1.045045  0  0  0.108502  0  1.045496  0  0  0.092781  0.107358  0  1.044839  0
H  H29  1  0.99672502  0.54702899  0.69587590  1  0  0.091185  0  0.975232  0  0.072429  0  0.10748  0  1.045396  0  0  0.108147  0  1.045772  0  0  0.092828  0.106893  0  1.045231  0
H  H30  1  0.74639184  0.04701842  0.19588115  1  0  0.091216  0  0.97537  0  0.082078  0  0.107907  0  1.045027  0  0  0.108508  0  1.045477  0  0  0.092785  0.107364  0  1.044823  0
H  H31  1  0.00327579  0.45297184  0.30412526  1  0  0.091247  0  0.975129  0  0.072255  0  0.107503  0  1.045335  0  0  0.108161  0  1.045719  0  0  0.092838  0.106915  0  1.04517  0
H  H32  1  0.19034861  0.84311924  0.69928171  1  0  0.094535  0  0.937807  0  0.083198  0  0.110771  0  1.008642  0  0  0.111792  0  1.007959  0  0  0.097109  0.110003  0  1.009126  0
H  H33  1  0.14813357  0.65686090  0.80070955  1  0  0.093273  0  0.939168  0  0.078427  0  0.109957  0  1.009596  0  0  0.110933  0  1.008973  0  0  0.096854  0.109198  0  1.010068  0
H  H34  1  0.80965153  0.15688159  0.30071878  1  0  0.094514  0  0.937815  0  0.083182  0  0.110752  0  1.008649  0  0  0.111772  0  1.007969  0  0  0.097096  0.109985  0  1.009134  0
H  H35  1  0.85186507  0.34313919  0.19929088  1  0  0.093289  0  0.939153  0  0.078433  0  0.109972  0  1.009579  0  0  0.11095  0  1.008953  0  0  0.096856  0.109213  0  1.010052  0
H  H36  1  0.66038412  0.90859460  0.85132517  1  0  0.114606  0  0.961252  0  0.132216  0  0.125715  0  1.037073  0  0  0.128097  0  1.03486  0  0  0.104322  0.123909  0  1.038753  0
H  H37  1  0.40061542  0.59137035  0.64866979  1  0  0.112986  0  0.96224  0  0.116818  0  0.123888  0  1.03844  0  0  0.12623  0  1.036293  0  0  0.103921  0.12209  0  1.040097  0
H  H38  1  0.33961452  0.09140549  0.14867526  1  0  0.114619  0  0.961251  0  0.132201  0  0.125729  0  1.03707  0  0  0.128111  0  1.034857  0  0  0.104324  0.123923  0  1.03875  0
H  H39  1  0.59938125  0.40862973  0.35133105  1  0  0.113011  0  0.962192  0  0.116873  0  0.123894  0  1.038415  0  0  0.126237  0  1.036267  0  0  0.103922  0.122096  0  1.040074  0
H  H40  1  0.44800259  0.82171375  0.82448068  1  0  0.09878  0  0.927915  0  0.045334  0  0.123887  0  0.981974  0  0  0.124145  0  0.982237  0  0  0.105078  0.123582  0  0.981907  0
H  H41  1  0.30192691  0.67824312  0.67546893  1  0  0.099001  0  0.926683  0  0.045831  0  0.123966  0  0.980929  0  0  0.124221  0  0.981187  0  0  0.105063  0.123659  0  0.980874  0
H  H42  1  0.55199637  0.17828633  0.17551887  1  0  0.098783  0  0.927916  0  0.045326  0  0.123901  0  0.981961  0  0  0.124161  0  0.982223  0  0  0.105073  0.123596  0  0.981894  0
H  H43  1  0.69807390  0.32175771  0.32453223  1  0  0.099027  0  0.926676  0  0.045831  0  0.12397  0  0.980943  0  0  0.124225  0  0.981202  0  0  0.105076  0.123662  0  0.98089  0
H  H44  1  0.53117087  0.94477222  0.91406008  1  0  0.096359  0  0.931831  0  0.081531  0  0.114743  0  0.997386  0  0  0.115703  0  0.996404  0  0  0.100254  0.113958  0  0.998149  0
H  H45  1  0.17241829  0.55516658  0.58594195  1  0  0.096474  0  0.930899  0  0.08467  0  0.114604  0  0.996769  0  0  0.115553  0  0.995796  0  0  0.10002  0.113828  0  0.997536  0
H  H46  1  0.46882927  0.05522861  0.08594042  1  0  0.096381  0  0.931824  0  0.081544  0  0.114767  0  0.997375  0  0  0.115725  0  0.996397  0  0  0.10026  0.113981  0  0.998139  0
H  H47  1  0.82758188  0.44483426  0.41406096  1  0  0.096455  0  0.930882  0  0.084701  0  0.11459  0  0.996749  0  0  0.115538  0  0.995778  0  0  0.100021  0.113813  0  0.997517  0
C  C48  1  0.78397284  0.87369657  0.11713201  1  0  0.621594  0  3.903295  0  1.587107  0  0.568072  0  4.205928  0  0  0.602416  0  4.197926  0  0  0.213793  0.544846  0  4.210625  0
C  C49  1  0.29310348  0.62622496  0.38287048  1  0  0.620351  0  3.900936  0  1.582802  0  0.56773  0  4.202859  0  0  0.602048  0  4.194859  0  0  0.213706  0.544532  0  4.207559  0
C  C50  1  0.21602904  0.12630051  0.88286546  1  0  0.621594  0  3.903318  0  1.586745  0  0.568018  0  4.20596  0  0  0.602359  0  4.197961  0  0  0.213774  0.544795  0  4.210653  0
C  C51  1  0.70689764  0.37377587  0.61712980  1  0  0.620226  0  3.901007  0  1.582815  0  0.567682  0  4.20282  0  0  0.602004  0  4.194821  0  0  0.213685  0.544481  0  4.207522  0
C  C52  1  0.71527967  0.81376543  0.17168736  1  0  -0.027529  0  3.831134  0  0.440698  0  -0.030631  0  4.08317  0  0  -0.034497  0  4.10703  0  0  0.061249  -0.028113  0  4.067052  0
C  C53  1  0.22984620  0.68620384  0.32831511  1  0  -0.024143  0  3.82823  0  0.425552  0  -0.027955  0  4.080551  0  0  -0.031755  0  4.104309  0  0  0.062407  -0.025496  0  4.064505  0
C  C54  1  0.28472094  0.18623466  0.82831267  1  0  -0.0275  0  3.831134  0  0.440842  0  -0.030475  0  4.083039  0  0  -0.034341  0  4.1069  0  0  0.061297  -0.027969  0  4.066932  0
C  C55  1  0.77015343  0.31379625  0.67168512  1  0  -0.024062  0  3.828205  0  0.425667  0  -0.027934  0  4.080505  0  0  -0.031733  0  4.104263  0  0  0.062408  -0.025471  0  4.064453  0
C  C56  1  0.57077742  0.72420687  0.13947339  1  0  -0.006209  0  3.798638  0  0.452239  0  -0.012149  0  4.050151  0  0  -0.014329  0  4.072461  0  0  0.06689  -0.010791  0  4.035128  0
C  C57  1  0.20730022  0.77582158  0.36054569  1  0  -0.006551  0  3.798506  0  0.459493  0  -0.012116  0  4.049728  0  0  -0.014276  0  4.072019  0  0  0.06655  -0.010753  0  4.0347  0
C  C58  1  0.42922074  0.27579396  0.86052751  1  0  -0.006213  0  3.798682  0  0.452434  0  -0.012223  0  4.050204  0  0  -0.014403  0  4.072515  0  0  0.066863  -0.010854  0  4.035172  0
C  C59  1  0.79270323  0.22418075  0.63945405  1  0  -0.006553  0  3.798727  0  0.459991  0  -0.012047  0  4.049845  0  0  -0.014209  0  4.072141  0  0  0.066607  -0.010685  0  4.034815  0
C  C60  1  0.43223610  0.66336293  0.03882706  1  0  0.627991  0  3.939185  0  1.603875  0  0.579355  0  4.237669  0  0  0.613821  0  4.229475  0  0  0.206185  0.556056  0  4.242375  0
C  C61  1  0.23037578  0.83669789  0.46121560  1  0  0.626117  0  3.942405  0  1.609718  0  0.577426  0  4.240816  0  0  0.61189  0  4.23269  0  0  0.205237  0.554121  0  4.245479  0
C  C62  1  0.56776040  0.33663791  0.96117338  1  0  0.62815  0  3.939199  0  1.603617  0  0.57953  0  4.237674  0  0  0.613997  0  4.229477  0  0  0.206263  0.556228  0  4.24238  0
C  C63  1  0.76962286  0.16330219  0.53878483  1  0  0.626061  0  3.942529  0  1.609612  0  0.57738  0  4.240871  0  0  0.611845  0  4.232745  0  0  0.20519  0.554076  0  4.245533  0
C  C64  1  0.70873456  0.77222692  0.29991479  1  0  0.345437  0  3.761944  0  0.978787  0  0.31479  0  4.029929  0  0  0.328718  0  4.046835  0  0  0.206757  0.305736  0  4.018032  0
C  C65  1  0.13657608  0.72773604  0.20006423  1  0  0.345961  0  3.765989  0  0.992056  0  0.315723  0  4.033154  0  0  0.329508  0  4.050326  0  0  0.206962  0.306684  0  4.021211  0
C  C66  1  0.29126823  0.22777392  0.70008596  1  0  0.345473  0  3.761944  0  0.97882  0  0.314804  0  4.029964  0  0  0.328734  0  4.046867  0  0  0.206738  0.30575  0  4.018066  0
C  C67  1  0.86342203  0.27226180  0.79993520  1  0  0.345979  0  3.765951  0  0.992076  0  0.315732  0  4.03315  0  0  0.329518  0  4.050322  0  0  0.206968  0.306699  0  4.021197  0
C  C68  1  0.74953737  0.78196491  0.40465657  1  0  -0.022048  0  3.763188  0  0.015469  0  -0.000733  0  4.006367  0  0  -0.006844  0  4.028379  0  0  0.002431  0.002855  0  3.991585  0
C  C69  1  0.06288306  0.71798994  0.09530973  1  0  -0.021868  0  3.762417  0  0.02898  0  -0.000377  0  4.005253  0  0  -0.006482  0  4.027354  0  0  0.002077  0.003198  0  3.990484  0
C  C70  1  0.25046757  0.21803668  0.59534491  1  0  -0.022028  0  3.763292  0  0.015347  0  -0.000698  0  4.006464  0  0  -0.006809  0  4.028477  0  0  0.00248  0.00289  0  3.991682  0
C  C71  1  0.93711061  0.28200865  0.90469098  1  0  -0.02197  0  3.762495  0  0.028714  0  -0.000482  0  4.005342  0  0  -0.006586  0  4.027441  0  0  0.002012  0.003092  0  3.990571  0
C  C72  1  0.71980467  0.70006194  0.43643062  1  0  -0.077118  0  3.656265  0  0.00875  0  -0.115608  0  3.906367  0  0  -0.11182  0  3.922189  0  0  -0.069147  -0.117641  0  3.895631  0
C  C73  1  0.08337825  0.79986313  0.06348470  1  0  -0.07702  0  3.653865  0  0.038944  0  -0.115229  0  3.903551  0  0  -0.111502  0  3.919454  0  0  -0.06831  -0.117266  0  3.892818  0
C  C74  1  0.28019910  0.29993889  0.56356993  1  0  -0.077183  0  3.656316  0  0.008793  0  -0.115647  0  3.906385  0  0  -0.11187  0  3.922226  0  0  -0.069174  -0.117679  0  3.895649  0
C  C75  1  0.91662728  0.20013546  0.93651356  1  0  -0.077001  0  3.653915  0  0.039129  0  -0.115176  0  3.903599  0  0  -0.111445  0  3.919497  0  0  -0.068287  -0.117212  0  3.892865  0
C  C76  1  0.75887279  0.71851840  0.53805211  1  0  0.039191  0  3.725226  0  -0.033804  0  0.057844  0  3.997911  0  0  0.056435  0  4.018669  0  0  -0.01381  0.058311  0  3.983875  0
C  C77  1  0.00239608  0.78137224  0.96184990  1  0  0.039506  0  3.725679  0  -0.148488  0  0.058408  0  3.997866  0  0  0.056953  0  4.018712  0  0  -0.014141  0.058879  0  3.983839  0
C  C78  1  0.24112780  0.28148019  0.46194718  1  0  0.039172  0  3.725247  0  -0.033783  0  0.057855  0  3.997909  0  0  0.056443  0  4.018673  0  0  -0.013781  0.058322  0  3.983871  0
C  C79  1  0.99760120  0.21862635  0.03814845  1  0  0.03943  0  3.725855  0  -0.148485  0  0.05835  0  3.998023  0  0  0.056895  0  4.018866  0  0  -0.014195  0.05882  0  3.983993  0
C  C80  1  0.82270029  0.81637245  0.60521812  1  0  0.083913  0  3.688362  0  0.471155  0  0.044907  0  3.937052  0  0  0.052579  0  3.953643  0  0  0.041799  0.039517  0  3.926742  0
C  C81  1  0.90116336  0.68350106  0.89473474  1  0  0.081228  0  3.689657  0  0.558292  0  0.042297  0  3.938814  0  0  0.050163  0  3.955017  0  0  0.041188  0.036906  0  3.928522  0
C  C82  1  0.17729830  0.18362614  0.39477916  1  0  0.083804  0  3.68843  0  0.471108  0  0.044722  0  3.937187  0  0  0.052414  0  3.953738  0  0  0.041743  0.039338  0  3.926896  0
C  C83  1  0.09883458  0.31649753  0.10526429  1  0  0.081243  0  3.68969  0  0.558228  0  0.04231  0  3.938835  0  0  0.050173  0  3.955043  0  0  0.041178  0.036919  0  3.928559  0
C  C84  1  0.81561229  0.87822417  0.47666916  1  0  0.101274  0  3.654804  0  0.502849  0  0.05765  0  3.907045  0  0  0.065854  0  3.923299  0  0  0.048559  0.05185  0  3.896969  0
C  C85  1  0.96075015  0.62171423  0.02333781  1  0  0.101135  0  3.654962  0  0.49534  0  0.056826  0  3.908281  0  0  0.065192  0  3.924189  0  0  0.048835  0.051075  0  3.898177  0
C  C86  1  0.18438574  0.12177891  0.52333207  1  0  0.101249  0  3.654777  0  0.502919  0  0.057625  0  3.907011  0  0  0.065821  0  3.923278  0  0  0.048537  0.05183  0  3.896931  0
C  C87  1  0.03924747  0.37828436  0.97666209  1  0  0.101196  0  3.654967  0  0.495358  0  0.056873  0  3.908265  0  0  0.065236  0  3.924177  0  0  0.048864  0.051123  0  3.898162  0
C  C88  1  0.54582949  0.96887616  0.71265849  1  0  0.404132  0  3.807972  0  1.423375  0  0.327637  0  4.095497  0  0  0.357029  0  4.09491  0  0  0.173599  0.307954  0  4.095416  0
C  C89  1  0.36460350  0.53115131  0.78736886  1  0  0.401935  0  3.808957  0  1.420499  0  0.325242  0  4.096345  0  0  0.35464  0  4.095804  0  0  0.172559  0.305527  0  4.09621  0
C  C90  1  0.45417065  0.03112468  0.28734200  1  0  0.404117  0  3.807941  0  1.423351  0  0.327615  0  4.095471  0  0  0.357011  0  4.094884  0  0  0.173584  0.307932  0  4.095391  0
C  C91  1  0.63539731  0.46884953  0.21263230  1  0  0.401893  0  3.808997  0  1.420545  0  0.325211  0  4.096397  0  0  0.354609  0  4.095858  0  0  0.172524  0.305487  0  4.096259  0
C  C92  1  0.27576627  0.92296738  0.73691227  1  0  -0.177451  0  3.687735  0  0.264215  0  -0.284378  0  3.950779  0  0  -0.280918  0  3.961496  0  0  -0.1402  -0.286319  0  3.943269  0
C  C93  1  0.11611793  0.57702030  0.76308763  1  0  -0.176739  0  3.68843  0  0.268696  0  -0.283682  0  3.951494  0  0  -0.280295  0  3.962213  0  0  -0.140458  -0.285607  0  3.944125  0
C  C94  1  0.72423320  0.07703345  0.26308755  1  0  -0.17746  0  3.687775  0  0.264418  0  -0.284395  0  3.950827  0  0  -0.280935  0  3.961545  0  0  -0.140207  -0.286331  0  3.943306  0
C  C95  1  0.88388071  0.42297978  0.23691280  1  0  -0.176769  0  3.688233  0  0.268846  0  -0.28367  0  3.951307  0  0  -0.280276  0  3.962029  0  0  -0.140459  -0.2856  0  3.943928  0
C  C96  1  0.52838613  0.90070311  0.84289781  1  0  -0.166275  0  3.652933  0  0.236349  0  -0.266438  0  3.902362  0  0  -0.262422  0  3.911049  0  0  -0.136076  -0.268911  0  3.896572  0
C  C97  1  0.28493089  0.59925809  0.65708172  1  0  -0.165277  0  3.64987  0  0.24888  0  -0.265038  0  3.899492  0  0  -0.261006  0  3.90819  0  0  -0.135617  -0.267517  0  3.893698  0
C  C98  1  0.47161334  0.09929773  0.15710201  1  0  -0.166343  0  3.65291  0  0.236345  0  -0.266515  0  3.902325  0  0  -0.262498  0  3.911013  0  0  -0.136097  -0.26899  0  3.896537  0
C  C99  1  0.71506810  0.40074200  0.34292025  1  0  -0.165304  0  3.649908  0  0.248766  0  -0.265033  0  3.899537  0  0  -0.261002  0  3.908239  0  0  -0.13565  -0.267522  0  3.893738  0
Br  Br100  1  0.72291024  0.61088456  0.58549093  1  0  -0.00505  0  1.359516  0  0.006738  0  -0.003718  0  1.625339  0  0  -0.006148  0  1.615462  0  0  0.081918  -0.001963  0  1.632224  0
Br  Br101  1  0.02646521  0.88896505  0.91430882  1  0  -0.005456  0  1.358902  0  0.005617  0  -0.004211  0  1.62455  0  0  -0.006676  0  1.614741  0  0  0.081863  -0.002462  0  1.631445  0
Br  Br102  1  0.27708888  0.38911478  0.41450903  1  0  -0.005033  0  1.359513  0  0.0068  0  -0.003705  0  1.625319  0  0  -0.006136  0  1.615444  0  0  0.081913  -0.001948  0  1.632202  0
Br  Br103  1  0.97353725  0.11103579  0.08569280  1  0  -0.005425  0  1.35897  0  0.005726  0  -0.00418  0  1.62461  0  0  -0.006643  0  1.614803  0  0  0.08189  -0.002431  0  1.631505  0
N  N104  1  0.80062927  0.84302644  0.27287275  1  0  -0.463617  0  3.194956  0  -1.241698  0  -0.398884  0  3.468532  0  0  -0.419952  0  3.486806  0  0  -0.35623  -0.384291  0  3.455582  0
N  N105  1  0.18465979  0.65691702  0.22712173  1  0  -0.465118  0  3.197756  0  -1.252397  0  -0.400414  0  3.47162  0  0  -0.421496  0  3.489945  0  0  -0.356479  -0.385789  0  3.458675  0
N  N106  1  0.19937089  0.15697589  0.72712848  1  0  -0.463622  0  3.194966  0  -1.241695  0  -0.398923  0  3.468519  0  0  -0.419991  0  3.486791  0  0  -0.356201  -0.384326  0  3.455571  0
N  N107  1  0.81534131  0.34308231  0.77287782  1  0  -0.465095  0  3.197731  0  -1.2524  0  -0.400384  0  3.47161  0  0  -0.421468  0  3.489936  0  0  -0.356474  -0.385763  0  3.45866  0
N  N108  1  0.56961995  0.69844029  0.22093068  1  0  -0.443983  0  3.152046  0  -1.220913  0  -0.37879  0  3.421059  0  0  -0.399943  0  3.439249  0  0  -0.349379  -0.364235  0  3.408293  0
N  N109  1  0.15044807  0.80158820  0.27906834  1  0  -0.445013  0  3.154269  0  -1.229296  0  -0.38007  0  3.423218  0  0  -0.401259  0  3.441483  0  0  -0.349395  -0.365467  0  3.410412  0
N  N110  1  0.43038153  0.30156055  0.77907115  1  0  -0.443971  0  3.152106  0  -1.220899  0  -0.37876  0  3.421133  0  0  -0.399912  0  3.439323  0  0  -0.349354  -0.364207  0  3.408361  0
N  N111  1  0.84955220  0.19841188  0.72093014  1  0  -0.445045  0  3.154328  0  -1.229806  0  -0.380129  0  3.42327  0  0  -0.401317  0  3.441535  0  0  -0.349427  -0.365528  0  3.410461  0
N  N112  1  0.84972677  0.89444428  0.57375816  1  0  -0.307521  0  3.269856  0  -1.275582  0  -0.223246  0  3.53442  0  0  -0.242978  0  3.552283  0  0  -0.325047  -0.209627  0  3.521677  0
N  N113  1  0.88167173  0.60545377  0.92622385  1  0  -0.3051  0  3.268589  0  -1.280369  0  -0.221261  0  3.533652  0  0  -0.241054  0  3.551668  0  0  -0.324813  -0.207673  0  3.520892  0
N  N114  1  0.15027602  0.10555656  0.42624259  1  0  -0.307502  0  3.26978  0  -1.275494  0  -0.223196  0  3.534338  0  0  -0.242929  0  3.552204  0  0  -0.325064  -0.209576  0  3.52159  0
N  N115  1  0.11832839  0.39454557  0.07377591  1  0  -0.305079  0  3.2686  0  -1.280344  0  -0.22125  0  3.533674  0  0  -0.241043  0  3.551691  0  0  -0.324788  -0.207664  0  3.520912  0
N  N116  1  0.45576871  0.93549603  0.76421775  1  0  -0.08353  0  3.508188  0  -1.264213  0  0.020609  0  3.7405  0  0  0.000234  0  3.765652  0  0  -0.283526  0.034211  0  3.723094  0
N  N117  1  0.25633128  0.56453984  0.73581555  1  0  -0.082093  0  3.507197  0  -1.256902  0  0.022906  0  3.738405  0  0  0.002563  0  3.763515  0  0  -0.282443  0.036452  0  3.721061  0
N  N118  1  0.54423190  0.06450405  0.23578227  1  0  -0.083479  0  3.508182  0  -1.264205  0  0.020657  0  3.740501  0  0  0.000282  0  3.765651  0  0  -0.283494  0.03426  0  3.723098  0
N  N119  1  0.74366571  0.43545875  0.26418609  1  0  -0.082111  0  3.507185  0  -1.256931  0  0.022868  0  3.738397  0  0  0.002525  0  3.763506  0  0  -0.282424  0.036445  0  3.721019  0
O  O120  1  0.92770432  0.94701511  0.16220589  1  0  -0.574261  0  2.020009  0  -1.179683  0  -0.508825  0  2.268616  0  0  -0.534229  0  2.257925  0  0  -0.302568  -0.491131  0  2.275421  0
O  O121  1  0.31821859  0.55285376  0.33770622  1  0  -0.573804  0  2.019957  0  -1.175026  0  -0.508638  0  2.268033  0  0  -0.533994  0  2.257289  0  0  -0.302758  -0.490973  0  2.274841  0
O  O122  1  0.07229397  0.05298497  0.83779300  1  0  -0.574276  0  2.019994  0  -1.179452  0  -0.508824  0  2.268595  0  0  -0.534213  0  2.257885  0  0  -0.302574  -0.491129  0  2.275397  0
O  O123  1  0.68178419  0.44714857  0.66229286  1  0  -0.573702  0  2.019934  0  -1.175051  0  -0.508596  0  2.268031  0  0  -0.53395  0  2.25727  0  0  -0.302743  -0.490927  0  2.274837  0
O  O124  1  0.69215134  0.84944493  0.02254603  1  0  -0.538357  0  2.101674  0  -1.200754  0  -0.488517  0  2.325369  0  0  -0.512148  0  2.311551  0  0  -0.316944  -0.472186  0  2.33235  0
O  O125  1  0.32028963  0.65051804  0.47747226  1  0  -0.538672  0  2.099367  0  -1.19958  0  -0.489243  0  2.322664  0  0  -0.512894  0  2.309635  0  0  -0.316776  -0.472897  0  2.329613  0
O  O126  1  0.30784692  0.15055365  0.97745213  1  0  -0.53836  0  2.101638  0  -1.200761  0  -0.488527  0  2.325332  0  0  -0.512158  0  2.311544  0  0  -0.316948  -0.472196  0  2.332309  0
O  O127  1  0.67971249  0.34948279  0.52252782  1  0  -0.538681  0  2.099385  0  -1.199582  0  -0.489233  0  2.322684  0  0  -0.512885  0  2.309653  0  0  -0.316746  -0.472887  0  2.329635  0
O  O128  1  0.43568994  0.69627990  0.96752842  1  0  -0.577669  0  2.010233  0  -1.187506  0  -0.524821  0  2.226409  0  0  -0.54956  0  2.215587  0  0  -0.312742  -0.507661  0  2.232064  0
O  O129  1  0.27238684  0.80379127  0.53252033  1  0  -0.577219  0  2.01104  0  -1.193509  0  -0.524323  0  2.226917  0  0  -0.549071  0  2.216546  0  0  -0.312925  -0.507156  0  2.232539  0
O  O130  1  0.56431017  0.30371943  0.03247134  1  0  -0.577785  0  2.010229  0  -1.187619  0  -0.524952  0  2.226375  0  0  -0.549696  0  2.215577  0  0  -0.312832  -0.507792  0  2.232031  0
O  O131  1  0.72761642  0.19620882  0.46747995  1  0  -0.577262  0  2.011003  0  -1.193503  0  -0.52434  0  2.226902  0  0  -0.549083  0  2.216519  0  0  -0.312944  -0.507173  0  2.232521  0
O  O132  1  0.31591444  0.58220462  0.02698573  1  0  -0.626533  0  1.988298  0  -1.201455  0  -0.569195  0  2.238221  0  0  -0.596256  0  2.226611  0  0  -0.327302  -0.550155  0  2.245399  0
O  O133  1  0.20694700  0.91782566  0.47308642  1  0  -0.625254  0  1.990141  0  -1.197074  0  -0.567909  0  2.239937  0  0  -0.594948  0  2.228351  0  0  -0.326192  -0.548851  0  2.24706  0
O  O134  1  0.68408653  0.41779547  0.97301583  1  0  -0.626573  0  1.988314  0  -1.201444  0  -0.569233  0  2.238218  0  0  -0.596292  0  2.226606  0  0  -0.327291  -0.550192  0  2.245396  0
O  O135  1  0.79305512  0.08217517  0.52691366  1  0  -0.625229  0  1.990153  0  -1.197074  0  -0.567895  0  2.239934  0  0  -0.594936  0  2.228346  0  0  -0.326171  -0.548839  0  2.247058  0
O  O136  1  0.69730585  0.97342713  0.72859848  1  0  -0.553364  0  2.117624  0  -1.200445  0  -0.48956  0  2.386718  0  0  -0.516042  0  2.377643  0  0  -0.31859  -0.471027  0  2.392059  0
O  O137  1  0.49549556  0.52650802  0.77138289  1  0  -0.551702  0  2.11713  0  -1.196468  0  -0.48793  0  2.386165  0  0  -0.514385  0  2.377068  0  0  -0.318114  -0.469407  0  2.391513  0
O  O138  1  0.30269311  0.02657295  0.27140108  1  0  -0.553367  0  2.117599  0  -1.200431  0  -0.489571  0  2.38671  0  0  -0.516052  0  2.377627  0  0  -0.318598  -0.471037  0  2.392048  0
O  O139  1  0.50450439  0.47349206  0.22861646  1  0  -0.551672  0  2.117221  0  -1.196496  0  -0.487903  0  2.386259  0  0  -0.514357  0  2.377162  0  0  -0.31808  -0.469379  0  2.391607  0
