# generated using pymatgen
data_SmH8C6NO7
_symmetry_space_group_name_H-M   'P 1'
_cell_length_a   6.67123582
_cell_length_b   6.86944699
_cell_length_c   19.70553233
_cell_angle_alpha   93.27786876
_cell_angle_beta   89.99999359
_cell_angle_gamma   90.00025950
_symmetry_Int_Tables_number   1
_chemical_formula_structural   SmH8C6NO7
_chemical_formula_sum   'Sm4 H32 C24 N4 O28'
_cell_volume   901.58181343
_cell_formula_units_Z   4
loop_
 _symmetry_equiv_pos_site_id
 _symmetry_equiv_pos_as_xyz
  1  'x, y, z'
loop_
 _atom_site_type_symbol
 _atom_site_label
 _atom_site_symmetry_multiplicity
 _atom_site_fract_x
 _atom_site_fract_y
 _atom_site_fract_z
 _atom_site_occupancy
 _atom_site_hle17_bader_spin_density
 _atom_site_hle17_ddec_charge
 _atom_site_hle17_ddec_spin_density
 _atom_site_hle17_ddec_sum_bond_order
 _atom_site_hle17_magmom
 _atom_site_hse06_10hf_bader_spin_density
 _atom_site_hse06_10hf_ddec_charge
 _atom_site_hse06_10hf_ddec_spin_density
 _atom_site_hse06_10hf_ddec_sum_bond_order
 _atom_site_hse06_10hf_magmom
 _atom_site_hse06_bader_spin_density
 _atom_site_hse06_ddec_charge
 _atom_site_hse06_ddec_spin_density
 _atom_site_hse06_ddec_sum_bond_order
 _atom_site_hse06_magmom
 _atom_site_pbe_bader_spin_density
 _atom_site_pbe_cm5_charge
 _atom_site_pbe_ddec_charge
 _atom_site_pbe_ddec_spin_density
 _atom_site_pbe_ddec_sum_bond_order
 _atom_site_pbe_magmom
Sm  Sm0  1  0.75813408  0.77231432  0.39869851  1  0  2.24726  0  1.66913  0  0  2.077518  0  2.151709  0  0  2.192126  0  1.977664  0  0  1.512272  2.043249  0  2.18314  0
Sm  Sm1  1  0.25813522  0.72768345  0.10130225  1  0  2.247286  0  1.669296  0  0  2.077582  0  2.151856  0  0  2.19217  0  1.977841  0  0  1.512286  2.04328  0  2.183328  0
Sm  Sm2  1  0.24186264  0.22768401  0.60130271  1  0  2.247338  0  1.669256  0  0  2.077577  0  2.151866  0  0  2.192193  0  1.977792  0  0  1.512269  2.043293  0  2.183318  0
Sm  Sm3  1  0.74186000  0.27232506  0.89869713  1  0  2.247315  0  1.669172  0  0  2.077557  0  2.151736  0  0  2.192165  0  1.977677  0  0  1.512326  2.043216  0  2.183256  0
H  H4  1  0.70871341  0.30541681  0.29309400  1  0  0.110069  0  0.916347  0  0  0.125632  0  0.975586  0  0  0.128139  0  0.973124  0  0  0.121424  0.123962  0  0.977192  0
H  H5  1  0.20872335  0.19456292  0.20690879  1  0  0.110019  0  0.916411  0  0  0.125579  0  0.975647  0  0  0.128087  0  0.973188  0  0  0.121365  0.123906  0  0.977259  0
H  H6  1  0.29129531  0.69458439  0.70690474  1  0  0.110066  0  0.916279  0  0  0.125633  0  0.975496  0  0  0.12814  0  0.973035  0  0  0.121412  0.12396  0  0.9771  0
H  H7  1  0.79128386  0.80543249  0.79309187  1  0  0.110047  0  0.916455  0  0  0.125581  0  0.975687  0  0  0.128093  0  0.973225  0  0  0.121376  0.123908  0  0.977297  0
H  H8  1  0.50938725  0.19106366  0.33418678  1  0  0.124181  0  0.943346  0  0  0.136498  0  1.000848  0  0  0.140477  0  0.997644  0  0  0.115196  0.133722  0  1.003183  0
H  H9  1  0.00940223  0.30892982  0.16582084  1  0  0.12418  0  0.943284  0  0  0.136367  0  1.000968  0  0  0.140353  0  0.997754  0  0  0.115138  0.133592  0  1.003299  0
H  H10  1  0.49061697  0.80893605  0.66580940  1  0  0.124187  0  0.943434  0  0  0.136485  0  1.000944  0  0  0.140466  0  0.997741  0  0  0.115205  0.13371  0  1.003277  0
H  H11  1  0.99060349  0.69107578  0.83417899  1  0  0.124236  0  0.943284  0  0  0.13643  0  1.000924  0  0  0.140418  0  0.997708  0  0  0.115171  0.133654  0  1.003254  0
H  H12  1  0.30522791  0.50513125  0.25792383  1  0  0.104945  0  0.947742  0  0  0.115051  0  1.014345  0  0  0.117722  0  1.013065  0  0  0.115297  0.112999  0  1.015806  0
H  H13  1  0.80522335  0.99486379  0.24207535  1  0  0.104978  0  0.947734  0  0  0.115066  0  1.014368  0  0  0.117735  0  1.013092  0  0  0.115302  0.113011  0  1.015834  0
H  H14  1  0.69477331  0.49487143  0.74207645  1  0  0.105002  0  0.947745  0  0  0.115096  0  1.014365  0  0  0.117765  0  1.013086  0  0  0.115324  0.113045  0  1.015824  0
H  H15  1  0.19477787  0.00513597  0.75792387  1  0  0.105013  0  0.947721  0  0  0.115091  0  1.014356  0  0  0.117762  0  1.01308  0  0  0.115312  0.113034  0  1.015824  0
H  H16  1  0.56210533  0.49373928  0.23565082  1  0  0.114467  0  0.912014  0  0  0.130655  0  0.966405  0  0  0.1332  0  0.964883  0  0  0.126868  0.128784  0  0.967846  0
H  H17  1  0.06210240  0.00624997  0.26435063  1  0  0.114362  0  0.91209  0  0  0.130628  0  0.966403  0  0  0.133183  0  0.964868  0  0  0.126876  0.128757  0  0.967847  0
H  H18  1  0.43789439  0.50626193  0.76434792  1  0  0.114371  0  0.912071  0  0  0.130629  0  0.966393  0  0  0.133171  0  0.964873  0  0  0.126834  0.128757  0  0.967834  0
H  H19  1  0.93790032  0.99375272  0.73565017  1  0  0.114414  0  0.912065  0  0  0.130674  0  0.966373  0  0  0.133231  0  0.964836  0  0  0.126891  0.128801  0  0.967818  0
H  H20  1  0.36570972  0.41388560  0.42959226  1  0  0.131062  0  0.927534  0  0  0.144533  0  0.984823  0  0  0.147321  0  0.983459  0  0  0.130895  0.142523  0  0.986126  0
H  H21  1  0.86573333  0.08610933  0.07040522  1  0  0.131089  0  0.927452  0  0  0.144522  0  0.984799  0  0  0.147316  0  0.983425  0  0  0.130852  0.142522  0  0.986116  0
H  H22  1  0.63428851  0.58610246  0.57040472  1  0  0.131066  0  0.927434  0  0  0.144528  0  0.984735  0  0  0.147314  0  0.983376  0  0  0.130891  0.142517  0  0.98604  0
H  H23  1  0.13426639  0.91390210  0.92959522  1  0  0.131134  0  0.927456  0  0  0.14458  0  0.984773  0  0  0.147374  0  0.983403  0  0  0.130871  0.142562  0  0.986077  0
H  H24  1  0.20274898  0.44108389  0.35988757  1  0  0.105873  0  0.911627  0  0  0.117919  0  0.97051  0  0  0.120853  0  0.968353  0  0  0.113586  0.115879  0  0.972028  0
H  H25  1  0.70275896  0.05892198  0.14011062  1  0  0.10592  0  0.91164  0  0  0.117934  0  0.970557  0  0  0.120869  0  0.968403  0  0  0.113626  0.115946  0  0.972046  0
H  H26  1  0.79725224  0.55891440  0.64011060  1  0  0.105919  0  0.911663  0  0  0.117946  0  0.970552  0  0  0.120879  0  0.968396  0  0  0.113604  0.115918  0  0.972053  0
H  H27  1  0.29724376  0.94108511  0.85989178  1  0  0.105959  0  0.911627  0  0  0.117998  0  0.970498  0  0  0.120933  0  0.968344  0  0  0.113626  0.115978  0  0.97199  0
H  H28  1  0.72004411  0.96822494  0.53534124  1  0  0.436365  0  0.859355  0  0  0.405013  0  0.924456  0  0  0.416617  0  0.90763  0  0  0.305432  0.396722  0  0.936644  0
H  H29  1  0.22005171  0.53177566  0.96466015  1  0  0.436374  0  0.859344  0  0  0.40504  0  0.924439  0  0  0.416624  0  0.907629  0  0  0.305443  0.396745  0  0.936633  0
H  H30  1  0.27995111  0.03177050  0.46466145  1  0  0.436333  0  0.859392  0  0  0.405006  0  0.924475  0  0  0.416608  0  0.907648  0  0  0.305413  0.396713  0  0.936666  0
H  H31  1  0.77994651  0.46822413  0.03534110  1  0  0.436377  0  0.859337  0  0  0.405062  0  0.924402  0  0  0.416645  0  0.907596  0  0  0.30546  0.396769  0  0.936594  0
H  H32  1  0.92636994  0.85517015  0.54183167  1  0  0.442096  0  0.845906  0  0  0.410107  0  0.912454  0  0  0.421457  0  0.895881  0  0  0.30837  0.40195  0  0.924593  0
H  H33  1  0.42637806  0.64482700  0.95816965  1  0  0.442132  0  0.845865  0  0  0.41017  0  0.91236  0  0  0.421521  0  0.895783  0  0  0.308412  0.402013  0  0.924498  0
H  H34  1  0.07362678  0.14482671  0.45816902  1  0  0.442142  0  0.845844  0  0  0.410155  0  0.912391  0  0  0.421506  0  0.895814  0  0  0.30839  0.401999  0  0.924523  0
H  H35  1  0.57362316  0.35517134  0.04183258  1  0  0.442157  0  0.845789  0  0  0.410184  0  0.912338  0  0  0.421536  0  0.895757  0  0  0.308406  0.402025  0  0.924474  0
C  C36  1  0.75706572  0.29330882  0.39801782  1  0  0.742647  0  3.806929  0  0  0.697554  0  4.106844  0  0  0.731576  0  4.101309  0  0  0.236171  0.674384  0  4.113078  0
C  C37  1  0.25707276  0.20668717  0.10198527  1  0  0.742489  0  3.807158  0  0  0.697549  0  4.106855  0  0  0.731572  0  4.10132  0  0  0.236208  0.674375  0  4.113089  0
C  C38  1  0.24293400  0.70668510  0.60198079  1  0  0.742612  0  3.806825  0  0  0.697563  0  4.10667  0  0  0.731585  0  4.101129  0  0  0.236139  0.674394  0  4.112903  0
C  C39  1  0.74292696  0.79331846  0.89801659  1  0  0.742745  0  3.806715  0  0  0.697737  0  4.106468  0  0  0.731764  0  4.100927  0  0  0.236197  0.674562  0  4.112707  0
C  C40  1  0.61346870  0.31515849  0.33878172  1  0  -0.199891  0  3.662973  0  0  -0.258653  0  3.924198  0  0  -0.260815  0  3.931477  0  0  -0.070368  -0.257564  0  3.920958  0
C  C41  1  0.11347862  0.18483541  0.16122235  1  0  -0.199858  0  3.662874  0  0  -0.258569  0  3.924084  0  0  -0.260744  0  3.931382  0  0  -0.070313  -0.257469  0  3.920829  0
C  C42  1  0.38653852  0.68484124  0.66121598  1  0  -0.199919  0  3.662961  0  0  -0.258665  0  3.92412  0  0  -0.260833  0  3.931406  0  0  -0.07037  -0.257575  0  3.920871  0
C  C43  1  0.88652410  0.81517022  0.83877951  1  0  -0.200124  0  3.663055  0  0  -0.258745  0  3.924216  0  0  -0.260934  0  3.93153  0  0  -0.070337  -0.257645  0  3.920965  0
C  C44  1  0.45535314  0.55951157  0.27275582  1  0  -0.196939  0  3.667008  0  0  -0.250826  0  3.919763  0  0  -0.253938  0  3.930004  0  0  -0.066548  -0.24943  0  3.915535  0
C  C45  1  0.95534834  0.94047694  0.22724832  1  0  -0.196873  0  3.667017  0  0  -0.250798  0  3.919782  0  0  -0.253914  0  3.930016  0  0  -0.066518  -0.249391  0  3.915549  0
C  C46  1  0.54464958  0.44048819  0.72724391  1  0  -0.196978  0  3.666997  0  0  -0.250921  0  3.919774  0  0  -0.254028  0  3.930003  0  0  -0.066578  -0.249527  0  3.915548  0
C  C47  1  0.04465289  0.05952286  0.77275344  1  0  -0.196969  0  3.666876  0  0  -0.250881  0  3.919599  0  0  -0.253999  0  3.929833  0  0  -0.066543  -0.249478  0  3.915371  0
C  C48  1  0.46345859  0.77829572  0.26393032  1  0  0.734437  0  3.830029  0  0  0.689564  0  4.128061  0  0  0.72379  0  4.121871  0  0  0.225967  0.66644  0  4.13439  0
C  C49  1  0.96343329  0.72170756  0.23608373  1  0  0.734109  0  3.830587  0  0  0.689271  0  4.128589  0  0  0.723483  0  4.122421  0  0  0.22577  0.666146  0  4.134915  0
C  C50  1  0.53656062  0.22170712  0.73607961  1  0  0.734384  0  3.830023  0  0  0.689538  0  4.128034  0  0  0.723769  0  4.12183  0  0  0.225941  0.666412  0  4.134365  0
C  C51  1  0.03654694  0.27830408  0.76392992  1  0  0.734427  0  3.830097  0  0  0.689635  0  4.128003  0  0  0.723847  0  4.121837  0  0  0.226049  0.666514  0  4.134321  0
C  C52  1  0.33424650  0.50461016  0.38666793  1  0  -0.194477  0  3.623891  0  0  -0.243921  0  3.866247  0  0  -0.247587  0  3.875936  0  0  -0.06431  -0.241786  0  3.861389  0
C  C53  1  0.83425697  0.99538354  0.11333021  1  0  -0.194603  0  3.623798  0  0  -0.244012  0  3.866192  0  0  -0.247684  0  3.875882  0  0  -0.064373  -0.241986  0  3.861446  0
C  C54  1  0.66576072  0.49538081  0.61332910  1  0  -0.19458  0  3.623836  0  0  -0.243993  0  3.866228  0  0  -0.247661  0  3.875912  0  0  -0.064332  -0.241864  0  3.861373  0
C  C55  1  0.16574275  0.00462060  0.88666960  1  0  -0.194798  0  3.623857  0  0  -0.244213  0  3.866312  0  0  -0.247894  0  3.876021  0  0  -0.064396  -0.242078  0  3.86145  0
C  C56  1  0.28314847  0.70705511  0.41746861  1  0  0.759091  0  3.795588  0  0  0.712699  0  4.089425  0  0  0.747457  0  4.082778  0  0  0.241995  0.688973  0  4.096071  0
C  C57  1  0.78315654  0.79293834  0.08252851  1  0  0.75901  0  3.795496  0  0  0.71263  0  4.089306  0  0  0.747392  0  4.08266  0  0  0.242015  0.688917  0  4.095971  0
C  C58  1  0.71684225  0.29293739  0.58253301  1  0  0.759065  0  3.795735  0  0  0.712569  0  4.089689  0  0  0.747329  0  4.083043  0  0  0.242011  0.688835  0  4.09635  0
C  C59  1  0.21685068  0.20706574  0.91746774  1  0  0.75897  0  3.795645  0  0  0.712448  0  4.089631  0  0  0.747208  0  4.082996  0  0  0.242  0.68871  0  4.096287  0
N  N60  1  0.51178483  0.50583015  0.34152992  1  0  -0.228714  0  3.34503  0  0  -0.154294  0  3.597507  0  0  -0.172255  0  3.621896  0  0  -0.389728  -0.145595  0  3.583261  0
N  N61  1  0.01179316  0.99416365  0.15847432  1  0  -0.228511  0  3.344541  0  0  -0.154092  0  3.596994  0  0  -0.172043  0  3.621382  0  0  -0.389697  -0.145376  0  3.582773  0
N  N62  1  0.48821789  0.49416815  0.65846927  1  0  -0.228601  0  3.344782  0  0  -0.154172  0  3.597193  0  0  -0.172134  0  3.621577  0  0  -0.389678  -0.145473  0  3.582953  0
N  N63  1  0.98820806  0.00584197  0.84152703  1  0  -0.228412  0  3.344671  0  0  -0.154033  0  3.597065  0  0  -0.17198  0  3.621458  0  0  -0.389762  -0.14534  0  3.582816  0
O  O64  1  0.42627210  0.80767719  0.44505359  1  0  -0.727416  0  1.996432  0  0  -0.668369  0  2.239433  0  0  -0.703354  0  2.226193  0  0  -0.385217  -0.649462  0  2.246402  0
O  O65  1  0.92627823  0.69231401  0.05494451  1  0  -0.727355  0  1.996372  0  0  -0.668311  0  2.239367  0  0  -0.703289  0  2.226119  0  0  -0.385216  -0.649397  0  2.246325  0
O  O66  1  0.57373361  0.19231238  0.55494646  1  0  -0.72743  0  1.996556  0  0  -0.668286  0  2.239553  0  0  -0.703243  0  2.226261  0  0  -0.385215  -0.649376  0  2.246527  0
O  O67  1  0.07372000  0.30768718  0.94505321  1  0  -0.727448  0  1.996387  0  0  -0.668273  0  2.23938  0  0  -0.703229  0  2.226072  0  0  -0.385215  -0.649354  0  2.246349  0
O  O68  1  0.10575270  0.76840310  0.41598669  1  0  -0.726496  0  2.060598  0  0  -0.669687  0  2.320668  0  0  -0.70443  0  2.304105  0  0  -0.402202  -0.651744  0  2.328384  0
O  O69  1  0.60574999  0.73159984  0.08401569  1  0  -0.726536  0  2.060577  0  0  -0.669717  0  2.320603  0  0  -0.704469  0  2.304059  0  0  -0.402273  -0.651768  0  2.328316  0
O  O70  1  0.89424553  0.23157779  0.58401828  1  0  -0.726578  0  2.060645  0  0  -0.669726  0  2.320721  0  0  -0.70448  0  2.304171  0  0  -0.402292  -0.651775  0  2.328443  0
O  O71  1  0.39424224  0.26841154  0.91598070  1  0  -0.726351  0  2.060773  0  0  -0.669476  0  2.320844  0  0  -0.704231  0  2.304297  0  0  -0.402192  -0.651524  0  2.328569  0
O  O72  1  0.53839097  0.88727371  0.31141529  1  0  -0.722831  0  2.080949  0  0  -0.669304  0  2.330101  0  0  -0.702314  0  2.318046  0  0  -0.384939  -0.65184  0  2.3362  0
O  O73  1  0.03838406  0.61272006  0.18857880  1  0  -0.72293  0  2.080109  0  0  -0.669372  0  2.329182  0  0  -0.70239  0  2.317136  0  0  -0.384989  -0.651894  0  2.33528  0
O  O74  1  0.46160276  0.11271723  0.68857920  1  0  -0.723009  0  2.080108  0  0  -0.669461  0  2.329221  0  0  -0.702491  0  2.317162  0  0  -0.385062  -0.651991  0  2.335324  0
O  O75  1  0.96161567  0.38727816  0.81141532  1  0  -0.72277  0  2.080882  0  0  -0.669266  0  2.329992  0  0  -0.702269  0  2.317927  0  0  -0.38495  -0.651795  0  2.336089  0
O  O76  1  0.40055435  0.83939470  0.20826442  1  0  -0.729507  0  2.030836  0  0  -0.68057  0  2.29464  0  0  -0.715184  0  2.281869  0  0  -0.398423  -0.66257  0  2.300643  0
O  O77  1  0.90056173  0.66059485  0.29172908  1  0  -0.729128  0  2.031923  0  0  -0.680209  0  2.295731  0  0  -0.714804  0  2.282954  0  0  -0.398194  -0.662226  0  2.301734  0
O  O78  1  0.59944238  0.16061079  0.79172881  1  0  -0.729252  0  2.031728  0  0  -0.680319  0  2.295517  0  0  -0.714921  0  2.282727  0  0  -0.398256  -0.662316  0  2.301516  0
O  O79  1  0.09944848  0.33940045  0.70826498  1  0  -0.729533  0  2.030882  0  0  -0.680634  0  2.294683  0  0  -0.715249  0  2.281915  0  0  -0.398495  -0.662644  0  2.300688  0
O  O80  1  0.83044904  0.12417998  0.40613365  1  0  -0.742946  0  1.974607  0  0  -0.684388  0  2.225243  0  0  -0.718705  0  2.207555  0  0  -0.379534  -0.666664  0  2.234332  0
O  O81  1  0.33045536  0.37581783  0.09387149  1  0  -0.742889  0  1.974621  0  0  -0.684388  0  2.225184  0  0  -0.718701  0  2.207494  0  0  -0.37956  -0.666659  0  2.234276  0
O  O82  1  0.16954918  0.87581397  0.59386698  1  0  -0.742929  0  1.974506  0  0  -0.684395  0  2.225133  0  0  -0.71871  0  2.20744  0  0  -0.379527  -0.666668  0  2.234223  0
O  O83  1  0.66954586  0.62418634  0.90613034  1  0  -0.742933  0  1.974477  0  0  -0.68445  0  2.225116  0  0  -0.718769  0  2.207421  0  0  -0.379515  -0.666714  0  2.234208  0
O  O84  1  0.80495974  0.44515500  0.43382976  1  0  -0.684809  0  1.953223  0  0  -0.632897  0  2.197411  0  0  -0.665474  0  2.18388  0  0  -0.375964  -0.616008  0  2.20395  0
O  O85  1  0.30496010  0.05484410  0.06617237  1  0  -0.684762  0  1.953411  0  0  -0.632921  0  2.197541  0  0  -0.665496  0  2.184012  0  0  -0.375989  -0.61603  0  2.204082  0
O  O86  1  0.19503099  0.55484043  0.56617243  1  0  -0.684801  0  1.953196  0  0  -0.632955  0  2.197453  0  0  -0.66553  0  2.183915  0  0  -0.376002  -0.616064  0  2.203993  0
O  O87  1  0.69503512  0.94516155  0.93383102  1  0  -0.684855  0  1.953097  0  0  -0.632994  0  2.19727  0  0  -0.665571  0  2.183732  0  0  -0.375983  -0.616096  0  2.203815  0
O  O88  1  0.79166475  0.84628530  0.52065037  1  0  -0.898424  0  1.873439  0  0  -0.849794  0  2.069013  0  0  -0.876652  0  2.028726  0  0  -0.636169  -0.836874  0  2.093622  0
O  O89  1  0.29166990  0.65371562  0.97935052  1  0  -0.898527  0  1.873466  0  0  -0.849961  0  2.068978  0  0  -0.876792  0  2.028748  0  0  -0.63625  -0.837041  0  2.093597  0
O  O90  1  0.20833347  0.15371447  0.47934986  1  0  -0.89848  0  1.873455  0  0  -0.849892  0  2.068983  0  0  -0.876747  0  2.028699  0  0  -0.636173  -0.836966  0  2.093603  0
O  O91  1  0.70832532  0.34628852  0.02064929  1  0  -0.898548  0  1.873416  0  0  -0.84998  0  2.068955  0  0  -0.876812  0  2.028721  0  0  -0.636239  -0.837048  0  2.093581  0
