# generated using pymatgen
data_AgPH25C28NO2F3
_symmetry_space_group_name_H-M   'P 1'
_cell_length_a   9.76959661
_cell_length_b   10.61751490
_cell_length_c   13.53964250
_cell_angle_alpha   68.67718477
_cell_angle_beta   74.26856465
_cell_angle_gamma   81.71940348
_symmetry_Int_Tables_number   1
_chemical_formula_structural   AgPH25C28NO2F3
_chemical_formula_sum   'Ag2 P2 H50 C56 N2 O4 F6'
_cell_volume   1257.68892953
_cell_formula_units_Z   2
loop_
 _symmetry_equiv_pos_site_id
 _symmetry_equiv_pos_as_xyz
  1  'x, y, z'
loop_
 _atom_site_type_symbol
 _atom_site_label
 _atom_site_symmetry_multiplicity
 _atom_site_fract_x
 _atom_site_fract_y
 _atom_site_fract_z
 _atom_site_occupancy
 _atom_site_hle17_bader_spin_density
 _atom_site_hle17_ddec_charge
 _atom_site_hle17_ddec_spin_density
 _atom_site_hle17_ddec_sum_bond_order
 _atom_site_hle17_magmom
 _atom_site_hse06_10hf_bader_spin_density
 _atom_site_hse06_10hf_ddec_charge
 _atom_site_hse06_10hf_ddec_spin_density
 _atom_site_hse06_10hf_ddec_sum_bond_order
 _atom_site_hse06_10hf_magmom
 _atom_site_hse06_bader_spin_density
 _atom_site_hse06_ddec_charge
 _atom_site_hse06_ddec_spin_density
 _atom_site_hse06_ddec_sum_bond_order
 _atom_site_hse06_magmom
 _atom_site_pbe_bader_spin_density
 _atom_site_pbe_cm5_charge
 _atom_site_pbe_ddec_charge
 _atom_site_pbe_ddec_spin_density
 _atom_site_pbe_ddec_sum_bond_order
 _atom_site_pbe_magmom
Ag  Ag0  1  0.25255544  0.44920316  0.15469169  1  0  0.398169  0  1.75277  0  0  0.294045  0  2.214384  0  0  0.310587  0  2.174155  0  0  0.471605  0.282726  0  2.242357  0
Ag  Ag1  1  0.74744533  0.55079610  0.84530794  1  0  0.398204  0  1.752751  0  0  0.294078  0  2.214383  0  0  0.31062  0  2.174148  0  0  0.47161  0.282757  0  2.242356  0
P  P2  1  0.14785322  0.26563928  0.30250363  1  0  0.301192  0  3.784326  0  0  0.257489  0  4.239728  0  0  0.267125  0  4.237348  0  0  -0.01903  0.250647  0  4.242085  0
P  P3  1  0.85214643  0.73436099  0.69749668  1  0  0.301183  0  3.784289  0  0  0.257506  0  4.239668  0  0  0.26714  0  4.237278  0  0  -0.019027  0.250664  0  4.242017  0
H  H4  1  0.33546649  0.73342502  0.98008065  1  0  0.084041  0  0.953078  0  0  0.091143  0  1.021084  0  0  0.09326  0  1.019335  0  0  0.115317  0.089429  0  1.022539  0
H  H5  1  0.66453115  0.26657324  0.01991767  1  0  0.084081  0  0.952965  0  0  0.091165  0  1.020988  0  0  0.093279  0  1.019245  0  0  0.115314  0.089445  0  1.022463  0
H  H6  1  0.24229857  0.97032591  0.91038237  1  0  0.098594  0  0.963048  0  0  0.111203  0  1.020827  0  0  0.114162  0  1.019525  0  0  0.106242  0.109115  0  1.021735  0
H  H7  1  0.75770433  0.02967335  0.08961906  1  0  0.09859  0  0.963065  0  0  0.111213  0  1.020832  0  0  0.114171  0  1.019533  0  0  0.106253  0.109143  0  1.021722  0
H  H8  1  0.84328480  0.84476084  0.14416343  1  0  0.094036  0  0.989501  0  0  0.100312  0  1.059883  0  0  0.103422  0  1.057954  0  0  0.100094  0.098063  0  1.061423  0
H  H9  1  0.15671894  0.15524247  0.85584038  1  0  0.094034  0  0.98951  0  0  0.100311  0  1.059882  0  0  0.103421  0  1.057954  0  0  0.100088  0.098067  0  1.061412  0
H  H10  1  0.95394965  0.61513957  0.20354444  1  0  0.075466  0  0.93297  0  0  0.085926  0  0.994536  0  0  0.087868  0  0.993548  0  0  0.115505  0.084434  0  0.995357  0
H  H11  1  0.04605096  0.38486273  0.79645584  1  0  0.075446  0  0.932913  0  0  0.085927  0  0.994467  0  0  0.087869  0  0.99348  0  0  0.115481  0.084436  0  0.995287  0
H  H12  1  0.15048890  0.56418799  0.44330565  1  0  0.112177  0  0.966498  0  0  0.133309  0  1.027687  0  0  0.134371  0  1.02875  0  0  0.089704  0.132968  0  1.026261  0
H  H13  1  0.84950963  0.43581330  0.55669532  1  0  0.112198  0  0.966491  0  0  0.133329  0  1.027683  0  0  0.134391  0  1.028747  0  0  0.089719  0.132985  0  1.026259  0
H  H14  1  0.05526755  0.50117281  0.37787188  1  0  0.10186  0  0.96576  0  0  0.120623  0  1.035232  0  0  0.121521  0  1.035946  0  0  0.08592  0.120116  0  1.034601  0
H  H15  1  0.94473204  0.49882848  0.62212741  1  0  0.101874  0  0.965753  0  0  0.120636  0  1.03523  0  0  0.121534  0  1.035945  0  0  0.085919  0.120127  0  1.034603  0
H  H16  1  0.23757543  0.53558124  0.31938782  1  0  0.119645  0  0.97161  0  0  0.140419  0  1.037838  0  0  0.142735  0  1.035512  0  0  0.089402  0.138693  0  1.039684  0
H  H17  1  0.76242321  0.46441802  0.68061371  1  0  0.119647  0  0.971637  0  0  0.14045  0  1.037823  0  0  0.142766  0  1.035497  0  0  0.089421  0.138725  0  1.039669  0
H  H18  1  0.25580265  0.41862049  0.57872974  1  0  0.094018  0  0.954238  0  0  0.10665  0  1.011132  0  0  0.109202  0  1.011151  0  0  0.099707  0.104837  0  1.011332  0
H  H19  1  0.74419823  0.58137674  0.42127045  1  0  0.093993  0  0.954226  0  0  0.106613  0  1.011137  0  0  0.109163  0  1.011157  0  0  0.09968  0.104799  0  1.011335  0
H  H20  1  0.33862707  0.19013714  0.68541737  1  0  0.083253  0  0.964686  0  0  0.094165  0  1.026503  0  0  0.096835  0  1.024774  0  0  0.094636  0.092325  0  1.027407  0
H  H21  1  0.66137168  0.80986009  0.31458323  1  0  0.083257  0  0.964667  0  0  0.094151  0  1.026511  0  0  0.096823  0  1.02478  0  0  0.094628  0.092313  0  1.027419  0
H  H22  1  0.32738572  0.99104864  0.62993280  1  0  0.086803  0  0.963913  0  0  0.098691  0  1.024334  0  0  0.100851  0  1.024777  0  0  0.098104  0.097032  0  1.02424  0
H  H23  1  0.67261085  0.00894960  0.37006868  1  0  0.08679  0  0.963935  0  0  0.098723  0  1.02431  0  0  0.100886  0  1.024755  0  0  0.098115  0.097062  0  1.024224  0
H  H24  1  0.23971655  0.02595926  0.46702498  1  0  0.088818  0  0.981103  0  0  0.097992  0  1.045168  0  0  0.099673  0  1.046485  0  0  0.09793  0.097265  0  1.04362  0
H  H25  1  0.76028103  0.97403999  0.53297602  1  0  0.08886  0  0.981117  0  0  0.098013  0  1.0452  0  0  0.099694  0  1.046517  0  0  0.09794  0.097284  0  1.043654  0
H  H26  1  0.99624865  0.25259238  0.12210673  1  0  0.114653  0  0.953466  0  0  0.135922  0  1.013852  0  0  0.136869  0  1.015246  0  0  0.085989  0.13523  0  1.012954  0
H  H27  1  0.00374994  0.74740790  0.87789304  1  0  0.114641  0  0.953441  0  0  0.13591  0  1.01383  0  0  0.136859  0  1.015222  0  0  0.085977  0.135217  0  1.012929  0
H  H28  1  0.03175213  0.41635343  0.10864613  1  0  0.09155  0  1.002805  0  0  0.106378  0  1.085054  0  0  0.10916  0  1.081763  0  0  0.074157  0.104308  0  1.087416  0
H  H29  1  0.96824763  0.58364483  0.89135325  1  0  0.091544  0  1.002841  0  0  0.106368  0  1.085096  0  0  0.10915  0  1.081806  0  0  0.07416  0.104297  0  1.087459  0
H  H30  1  0.86826966  0.38864711  0.08688396  1  0  0.122263  0  0.967126  0  0  0.14066  0  1.029019  0  0  0.142476  0  1.029175  0  0  0.089468  0.139162  0  1.029264  0
H  H31  1  0.13172893  0.61135316  0.91311729  1  0  0.122256  0  0.96715  0  0  0.140653  0  1.029045  0  0  0.142468  0  1.029203  0  0  0.089467  0.139151  0  1.02929  0
H  H32  1  0.66659185  0.35717680  0.22441910  1  0  0.1018  0  0.971  0  0  0.116459  0  1.025976  0  0  0.118653  0  1.026435  0  0  0.099825  0.114854  0  1.025735  0
H  H33  1  0.33340775  0.64282448  0.77558167  1  0  0.10179  0  0.970991  0  0  0.116447  0  1.025973  0  0  0.118643  0  1.02643  0  0  0.099816  0.114839  0  1.025732  0
H  H34  1  0.53767500  0.31016721  0.41843821  1  0  0.088888  0  0.962495  0  0  0.100292  0  1.020626  0  0  0.102372  0  1.020811  0  0  0.098106  0.098234  0  1.021827  0
H  H35  1  0.46232465  0.68983306  0.58156209  1  0  0.088908  0  0.962517  0  0  0.100314  0  1.02064  0  0  0.102394  0  1.020824  0  0  0.098114  0.098254  0  1.021846  0
H  H36  1  0.67598687  0.24049896  0.56262949  1  0  0.086702  0  0.969652  0  0  0.097925  0  1.029794  0  0  0.099985  0  1.030459  0  0  0.09672  0.096792  0  1.028506  0
H  H37  1  0.32401379  0.75950232  0.43737033  1  0  0.086665  0  0.969628  0  0  0.097908  0  1.02975  0  0  0.099968  0  1.030414  0  0  0.096705  0.096778  0  1.028466  0
H  H38  1  0.93818261  0.22000469  0.51059771  1  0  0.082442  0  0.998251  0  0  0.09169  0  1.0647  0  0  0.09331  0  1.065946  0  0  0.094051  0.090469  0  1.06428  0
H  H39  1  0.06181799  0.77999761  0.48940109  1  0  0.082385  0  0.998269  0  0  0.09163  0  1.064737  0  0  0.093252  0  1.06598  0  0  0.094014  0.090411  0  1.064313  0
H  H40  1  0.56273205  0.10269114  0.20216549  1  0  0.102892  0  0.958642  0  0  0.125209  0  1.017963  0  0  0.126436  0  1.018117  0  0  0.088123  0.124081  0  1.018076  0
H  H41  1  0.43726743  0.89731217  0.79783398  1  0  0.102882  0  0.958654  0  0  0.1252  0  1.017975  0  0  0.126428  0  1.018128  0  0  0.088113  0.124072  0  1.018083  0
H  H42  1  0.45946910  0.16505865  0.30604181  1  0  0.109703  0  0.960789  0  0  0.131633  0  1.022013  0  0  0.132474  0  1.023308  0  0  0.090983  0.13119  0  1.020952  0
H  H43  1  0.54052937  0.83494365  0.69395666  1  0  0.109698  0  0.960821  0  0  0.131632  0  1.022037  0  0  0.132475  0  1.02333  0  0  0.090976  0.131185  0  1.020977  0
H  H44  1  0.45132188  0.25302471  0.16960324  1  0  0.101891  0  0.977564  0  0  0.114215  0  1.063184  0  0  0.117812  0  1.058397  0  0  0.08032  0.111538  0  1.066758  0
H  H45  1  0.54867660  0.74697759  0.83039524  1  0  0.101938  0  0.977546  0  0  0.114259  0  1.063168  0  0  0.117856  0  1.058381  0  0  0.080334  0.111579  0  1.066741  0
H  H46  1  0.48177356  0.91594631  0.19194502  1  0  0.082318  0  0.97819  0  0  0.088445  0  1.0498  0  0  0.091868  0  1.047133  0  0  0.087764  0.085849  0  1.05217  0
H  H47  1  0.51822710  0.08405499  0.80805258  1  0  0.082303  0  0.97817  0  0  0.088429  0  1.049789  0  0  0.091851  0  1.047122  0  0  0.087763  0.085835  0  1.05215  0
H  H48  1  0.29393944  0.76764058  0.21718775  1  0  0.093877  0  0.965867  0  0  0.101648  0  1.03234  0  0  0.10465  0  1.030685  0  0  0.097498  0.099548  0  1.03351  0
H  H49  1  0.70606250  0.23235665  0.78281592  1  0  0.093912  0  0.965806  0  0  0.101647  0  1.032329  0  0  0.104648  0  1.030676  0  0  0.097502  0.099548  0  1.033499  0
H  H50  1  0.03744324  0.83326466  0.28665716  1  0  0.080416  0  0.968999  0  0  0.092049  0  1.030464  0  0  0.093782  0  1.031814  0  0  0.093432  0.090663  0  1.02983  0
H  H51  1  0.96255871  0.16673258  0.71334577  1  0  0.080438  0  0.968961  0  0  0.092084  0  1.03042  0  0  0.093811  0  1.031761  0  0  0.093445  0.090705  0  1.029774  0
H  H52  1  0.97733130  0.04753802  0.32475786  1  0  0.085081  0  0.983989  0  0  0.095596  0  1.047074  0  0  0.097418  0  1.047862  0  0  0.095622  0.094173  0  1.04665  0
H  H53  1  0.02266947  0.95246125  0.67524104  1  0  0.085075  0  0.984006  0  0  0.095595  0  1.047085  0  0  0.097413  0  1.047879  0  0  0.09562  0.094175  0  1.046661  0
C  C54  1  0.43568050  0.42439841  0.90960557  1  0  0.482245  0  4.058855  0  0  0.436979  0  4.355251  0  0  0.466051  0  4.350106  0  0  0.188782  0.416851  0  4.358896  0
C  C55  1  0.56431372  0.57560388  0.09039449  1  0  0.482279  0  4.058939  0  0  0.436973  0  4.35529  0  0  0.466051  0  4.350139  0  0  0.18879  0.416858  0  4.358928  0
C  C56  1  0.36819096  0.28996972  0.92924319  1  0  0.660505  0  3.629986  0  0  0.589656  0  3.972728  0  0  0.617717  0  3.944884  0  0  0.291188  0.569149  0  3.993527  0
C  C57  1  0.63180992  0.71002752  0.07075626  1  0  0.660395  0  3.630229  0  0  0.589788  0  3.972562  0  0  0.617845  0  3.94473  0  0  0.29117  0.569256  0  3.993402  0
C  C58  1  0.22701499  0.76359656  0.01425363  1  0  0.134361  0  3.6974  0  0  0.103252  0  3.951137  0  0  0.109662  0  3.969558  0  0  0.050503  0.099249  0  3.938578  0
C  C59  1  0.77298583  0.23640168  0.98574702  1  0  0.134275  0  3.6974  0  0  0.10319  0  3.95114  0  0  0.109597  0  3.969568  0  0  0.05049  0.099187  0  3.938592  0
C  C60  1  0.17284493  0.89576638  0.97516676  1  0  -0.146093  0  3.690614  0  0  -0.163335  0  3.931068  0  0  -0.170869  0  3.953075  0  0  -0.075832  -0.157991  0  3.915753  0
C  C61  1  0.82715785  0.10423491  0.02483486  1  0  -0.146104  0  3.69072  0  0  -0.163355  0  3.931178  0  0  -0.170887  0  3.953183  0  0  -0.075861  -0.158024  0  3.915856  0
C  C62  1  0.03162625  0.93060836  0.01982095  1  0  0.095352  0  3.750424  0  0  0.108895  0  3.974813  0  0  0.112434  0  3.996922  0  0  0.014588  0.106572  0  3.959939  0
C  C63  1  0.96837765  0.06939191  0.98018295  1  0  0.095321  0  3.750442  0  0  0.108852  0  3.974825  0  0  0.112394  0  3.996932  0  0  0.014584  0.106538  0  3.959949  0
C  C64  1  0.95295968  0.82689208  0.10444027  1  0  -0.149002  0  3.729309  0  0  -0.171722  0  3.981899  0  0  -0.178095  0  4.002152  0  0  -0.080475  -0.167987  0  3.968646  0
C  C65  1  0.04704305  0.17311022  0.89556107  1  0  -0.149019  0  3.72933  0  0  -0.171725  0  3.981927  0  0  -0.178099  0  4.002183  0  0  -0.080484  -0.167993  0  3.968667  0
C  C66  1  0.01481820  0.69710232  0.13871086  1  0  0.122086  0  3.715951  0  0  0.095819  0  3.964442  0  0  0.10166  0  3.982781  0  0  0.049413  0.092053  0  3.952024  0
C  C67  1  0.98518257  0.30289694  0.86129247  1  0  0.122128  0  3.715919  0  0  0.095847  0  3.964405  0  0  0.101685  0  3.982748  0  0  0.049488  0.092079  0  3.951988  0
C  C68  1  0.19942240  0.24201362  0.42882511  1  0  -0.152664  0  3.699786  0  0  -0.117235  0  3.930531  0  0  -0.123842  0  3.95571  0  0  -0.024881  -0.113477  0  3.91536  0
C  C69  1  0.80057517  0.75798564  0.57117515  1  0  -0.152717  0  3.699808  0  0  -0.117309  0  3.930564  0  0  -0.123921  0  3.955751  0  0  -0.024901  -0.113547  0  3.915383  0
C  C70  1  0.20270019  0.35461868  0.46069712  1  0  0.143675  0  3.71997  0  0  0.16744  0  3.948679  0  0  0.1694  0  3.973366  0  0  -5.6e-05  0.166294  0  3.932798  0
C  C71  1  0.79729846  0.64538058  0.53930367  1  0  0.143687  0  3.719843  0  0  0.167467  0  3.948564  0  0  0.169428  0  3.973247  0  0  -6.5e-05  0.166325  0  3.932674  0
C  C72  1  0.15853551  0.49615178  0.39724550  1  0  -0.350052  0  3.723022  0  0  -0.432561  0  3.956152  0  0  -0.435141  0  3.965311  0  0  -0.24603  -0.430874  0  3.949426  0
C  C73  1  0.84146420  0.50384748  0.60275582  1  0  -0.350099  0  3.72302  0  0  -0.432631  0  3.956151  0  0  -0.43521  0  3.965308  0  0  -0.246059  -0.430942  0  3.949424  0
C  C74  1  0.25175876  0.33209468  0.55429460  1  0  -0.138113  0  3.73781  0  0  -0.153726  0  3.977467  0  0  -0.158136  0  3.999152  0  0  -0.094256  -0.150926  0  3.962779  0
C  C75  1  0.74823994  0.66790357  0.44570573  1  0  -0.13812  0  3.737728  0  0  -0.153726  0  3.977375  0  0  -0.158135  0  3.999058  0  0  -0.094263  -0.150928  0  3.962687  0
C  C76  1  0.29762707  0.20318159  0.61481678  1  0  -0.062342  0  3.793557  0  0  -0.078032  0  4.047165  0  0  -0.077919  0  4.067779  0  0  -0.092604  -0.077739  0  4.03249  0
C  C77  1  0.70237157  0.79681766  0.38518401  1  0  -0.062326  0  3.793656  0  0  -0.078007  0  4.047274  0  0  -0.077895  0  4.067889  0  0  -0.092582  -0.077719  0  4.032607  0
C  C78  1  0.29283822  0.09262634  0.58354952  1  0  -0.080676  0  3.779343  0  0  -0.094221  0  4.029024  0  0  -0.097499  0  4.050499  0  0  -0.096941  -0.091768  0  4.014718  0
C  C79  1  0.70715947  0.90737089  0.41645129  1  0  -0.080699  0  3.779451  0  0  -0.094284  0  4.029122  0  0  -0.097567  0  4.050602  0  0  -0.096989  -0.091834  0  4.014825  0
C  C80  1  0.24339958  0.11251268  0.49124659  1  0  -0.067775  0  3.761789  0  0  -0.08673  0  4.005677  0  0  -0.086615  0  4.02686  0  0  -0.086992  -0.087469  0  3.991887  0
C  C81  1  0.75659800  0.88748658  0.50875440  1  0  -0.06773  0  3.761829  0  0  -0.086661  0  4.005721  0  0  -0.086545  0  4.026903  0  0  -0.086949  -0.087399  0  3.991931  0
C  C82  1  0.95290785  0.27866605  0.33779605  1  0  -0.161193  0  3.720285  0  0  -0.127468  0  3.956281  0  0  -0.134308  0  3.981701  0  0  -0.030033  -0.122683  0  3.938842  0
C  C83  1  0.04709180  0.72133423  0.66220352  1  0  -0.161189  0  3.720188  0  0  -0.127473  0  3.956196  0  0  -0.134312  0  3.981614  0  0  -0.030037  -0.122683  0  3.938752  0
C  C84  1  0.87544444  0.31778863  0.25556308  1  0  0.134938  0  3.735897  0  0  0.158305  0  3.967488  0  0  0.160254  0  3.992584  0  0  -0.006208  0.157208  0  3.949826  0
C  C85  1  0.12455627  0.68221165  0.74443702  1  0  0.134926  0  3.736013  0  0  0.158305  0  3.96759  0  0  0.160253  0  3.992687  0  0  -0.006225  0.157201  0  3.949927  0
C  C86  1  0.94581290  0.34549921  0.13714087  1  0  -0.34895  0  3.722264  0  0  -0.428938  0  3.957143  0  0  -0.432509  0  3.966652  0  0  -0.25216  -0.426083  0  3.950565  0
C  C87  1  0.05418574  0.65450005  0.86285918  1  0  -0.348939  0  3.722316  0  0  -0.428922  0  3.957167  0  0  -0.432492  0  3.966675  0  0  -0.252159  -0.426061  0  3.950591  0
C  C88  1  0.72624160  0.32776442  0.28744947  1  0  -0.136415  0  3.724124  0  0  -0.154114  0  3.961449  0  0  -0.159048  0  3.983819  0  0  -0.097722  -0.150387  0  3.945952  0
C  C89  1  0.27375598  0.67223483  0.71255227  1  0  -0.136376  0  3.724084  0  0  -0.154077  0  3.961404  0  0  -0.159014  0  3.983774  0  0  -0.097703  -0.150346  0  3.945902  0
C  C90  1  0.65372003  0.30106063  0.39646062  1  0  -0.057661  0  3.781946  0  0  -0.070158  0  4.028588  0  0  -0.069438  0  4.048241  0  0  -0.090409  -0.07086  0  4.016204  0
C  C91  1  0.34628281  0.69893964  0.60353906  1  0  -0.057684  0  3.781739  0  0  -0.070183  0  4.028392  0  0  -0.06946  0  4.048041  0  0  -0.090393  -0.07088  0  4.016011  0
C  C92  1  0.73052965  0.26278546  0.47688720  1  0  -0.083709  0  3.787353  0  0  -0.096765  0  4.037051  0  0  -0.100094  0  4.05814  0  0  -0.099009  -0.094278  0  4.021749  0
C  C93  1  0.26946788  0.73721481  0.52311352  1  0  -0.08367  0  3.787332  0  0  -0.096743  0  4.037027  0  0  -0.100073  0  4.058116  0  0  -0.099004  -0.094263  0  4.021738  0
C  C94  1  0.87894525  0.25163058  0.44731382  1  0  -0.080266  0  3.778787  0  0  -0.101572  0  4.028061  0  0  -0.101622  0  4.049707  0  0  -0.092866  -0.101632  0  4.013061  0
C  C95  1  0.12105753  0.74837070  0.55268558  1  0  -0.080244  0  3.778848  0  0  -0.101551  0  4.028127  0  0  -0.101602  0  4.049773  0  0  -0.092851  -0.101617  0  4.01313  0
C  C96  1  0.19508517  0.10365812  0.28079888  1  0  -0.150372  0  3.720358  0  0  -0.115057  0  3.953007  0  0  -0.121292  0  3.977828  0  0  -0.027508  -0.110794  0  3.936001  0
C  C97  1  0.80491454  0.89634114  0.71920170  1  0  -0.150373  0  3.720273  0  0  -0.115065  0  3.952954  0  0  -0.121284  0  3.97775  0  0  -0.027508  -0.110802  0  3.935951  0
C  C98  1  0.33998894  0.06615013  0.24404093  1  0  0.134168  0  3.735323  0  0  0.155184  0  3.968154  0  0  0.156817  0  3.993224  0  0  -0.006252  0.153972  0  3.951441  0
C  C99  1  0.66001071  0.93385014  0.75596011  1  0  0.134165  0  3.73529  0  0  0.155154  0  3.968171  0  0  0.156785  0  3.993237  0  0  -0.006277  0.15394  0  3.951457  0
C  C100  1  0.45939260  0.15055131  0.22968398  1  0  -0.342176  0  3.735839  0  0  -0.424468  0  3.9771  0  0  -0.426971  0  3.985691  0  0  -0.244628  -0.422637  0  3.971251  0
C  C101  1  0.54060694  0.84945099  0.77031429  1  0  -0.34223  0  3.735942  0  0  -0.424513  0  3.977182  0  0  -0.42702  0  3.985779  0  0  -0.244638  -0.42268  0  3.971334  0
C  C102  1  0.37094855  0.94514103  0.22153094  1  0  -0.129697  0  3.741617  0  0  -0.15015  0  3.992489  0  0  -0.154028  0  4.012955  0  0  -0.098382  -0.148079  0  3.979632  0
C  C103  1  0.62905323  0.05485925  0.77846895  1  0  -0.129653  0  3.741596  0  0  -0.15009  0  3.992463  0  0  -0.153969  0  4.012929  0  0  -0.098364  -0.148015  0  3.979584  0
C  C104  1  0.26449693  0.86128282  0.23535613  1  0  -0.052831  0  3.756522  0  0  -0.068624  0  4.008602  0  0  -0.068207  0  4.028522  0  0  -0.091162  -0.068909  0  3.995295  0
C  C105  1  0.73550496  0.13871543  0.76464579  1  0  -0.052854  0  3.756503  0  0  -0.068624  0  4.008613  0  0  -0.068206  0  4.028526  0  0  -0.091174  -0.068913  0  3.995312  0
C  C106  1  0.12236630  0.89820009  0.27315851  1  0  -0.078482  0  3.780516  0  0  -0.091684  0  4.030668  0  0  -0.094892  0  4.052553  0  0  -0.098605  -0.089555  0  4.015765  0
C  C107  1  0.87763553  0.10179917  0.72684239  1  0  -0.078505  0  3.780522  0  0  -0.091725  0  4.030666  0  0  -0.094918  0  4.052561  0  0  -0.098605  -0.089601  0  4.015776  0
C  C108  1  0.08836375  0.01908871  0.29499400  1  0  -0.070892  0  3.76364  0  0  -0.091408  0  4.008654  0  0  -0.091277  0  4.029376  0  0  -0.090695  -0.091043  0  3.994174  0
C  C109  1  0.91163808  0.98091056  0.70500616  1  0  -0.070894  0  3.763587  0  0  -0.091409  0  4.008604  0  0  -0.091278  0  4.029321  0  0  -0.090692  -0.091047  0  3.994128  0
N  N110  1  0.14972201  0.66493510  0.09465529  1  0  -0.278424  0  3.258068  0  0  -0.205256  0  3.528292  0  0  -0.22021  0  3.543557  0  0  -0.334411  -0.194999  0  3.517793  0
N  N111  1  0.85027977  0.33506518  0.90534386  1  0  -0.278392  0  3.258075  0  0  -0.205243  0  3.528323  0  0  -0.220193  0  3.543586  0  0  -0.334417  -0.194986  0  3.517829  0
O  O112  1  0.36681457  0.49968957  0.96122968  1  0  -0.555319  0  2.086419  0  0  -0.515042  0  2.348794  0  0  -0.537543  0  2.338537  0  0  -0.324643  -0.499301  0  2.355839  0
O  O113  1  0.63318424  0.50030667  0.03876602  1  0  -0.555398  0  2.086123  0  0  -0.515128  0  2.348512  0  0  -0.537628  0  2.338246  0  0  -0.32469  -0.499391  0  2.355558  0
O  O114  1  0.55329355  0.43995473  0.84045978  1  0  -0.555631  0  2.063065  0  0  -0.512913  0  2.317966  0  0  -0.536735  0  2.308193  0  0  -0.330511  -0.496367  0  2.324627  0
O  O115  1  0.44670599  0.56004758  0.15953480  1  0  -0.555543  0  2.063455  0  0  -0.512831  0  2.318373  0  0  -0.536643  0  2.308578  0  0  -0.330439  -0.496295  0  2.325032  0
F  F116  1  0.23733135  0.27263913  0.99883904  1  0  -0.24165  0  1.215399  0  0  -0.206588  0  1.397488  0  0  -0.216707  0  1.383314  0  0  -0.094744  -0.199544  0  1.407262  0
F  F117  1  0.76267059  0.72735811  0.00116020  1  0  -0.24164  0  1.215468  0  0  -0.206627  0  1.397464  0  0  -0.216745  0  1.383293  0  0  -0.094731  -0.199584  0  1.407247  0
F  F118  1  0.45241944  0.17880007  0.97033740  1  0  -0.251909  0  1.171839  0  0  -0.205817  0  1.333487  0  0  -0.21722  0  1.320391  0  0  -0.098023  -0.19487  0  1.338997  0
F  F119  1  0.54758245  0.82119818  0.02966304  1  0  -0.251882  0  1.171882  0  0  -0.205888  0  1.333488  0  0  -0.217297  0  1.320393  0  0  -0.098055  -0.194931  0  1.338993  0
F  F120  1  0.35304949  0.28561226  0.83220000  1  0  -0.267557  0  1.155618  0  0  -0.222  0  1.317997  0  0  -0.232628  0  1.30309  0  0  -0.105605  -0.214798  0  1.328611  0
F  F121  1  0.64695032  0.71438497  0.16779965  1  0  -0.267514  0  1.155695  0  0  -0.222013  0  1.317988  0  0  -0.232645  0  1.30309  0  0  -0.105578  -0.214793  0  1.328597  0
