# generated using pymatgen
data_MoH48Rh4C24(N2O3)4
_symmetry_space_group_name_H-M   'P 1'
_cell_length_a   12.87361263
_cell_length_b   13.76278147
_cell_length_c   14.54642763
_cell_angle_alpha   112.60390697
_cell_angle_beta   99.02114153
_cell_angle_gamma   108.49406022
_symmetry_Int_Tables_number   1
_chemical_formula_structural   MoH48Rh4C24(N2O3)4
_chemical_formula_sum   'Mo2 H96 Rh8 C48 N16 O24'
_cell_volume   2139.03879598
_cell_formula_units_Z   2
loop_
 _symmetry_equiv_pos_site_id
 _symmetry_equiv_pos_as_xyz
  1  'x, y, z'
loop_
 _atom_site_type_symbol
 _atom_site_label
 _atom_site_symmetry_multiplicity
 _atom_site_fract_x
 _atom_site_fract_y
 _atom_site_fract_z
 _atom_site_occupancy
 _atom_site_pbe_bader_charge
 _atom_site_pbe_bader_spin_density
 _atom_site_pbe_cm5_charge
 _atom_site_pbe_ddec_charge
 _atom_site_pbe_ddec_spin_density
 _atom_site_pbe_ddec_sum_bond_order
 _atom_site_pbe_magmom
Mo  Mo0  1  0.22912541  0.89118695  0.67258755  1  2.508458  -0.003391  1.489996  1.963125  -0.004857  4.818848  -0.003
Mo  Mo1  1  0.77087567  0.10881430  0.32741068  1  2.508171  -0.003391  1.490015  1.963204  -0.004857  4.818834  -0.003
H  H2  1  0.25160071  0.11653896  0.66576704  1  0.467625  -0.00035  0.295735  0.301375  -0.000125  0.966554  0.0
H  H3  1  0.09497055  0.80339777  0.45138221  1  0.475003  -0.000339  0.291051  0.297425  5.3e-05  0.990488  0.0
H  H4  1  0.18779105  0.69397171  0.72006020  1  0.471928  -0.000199  0.285104  0.301052  6.8e-05  0.999356  0.0
H  H5  1  0.96790057  0.73727685  0.58614921  1  0.457869  -0.000354  0.2919  0.298173  -4e-05  0.984749  0.0
H  H6  1  0.45052463  0.77252622  0.79078339  1  0.420273  -0.00017  0.303751  0.299  -4.3e-05  0.933969  0.0
H  H7  1  0.47860593  0.05822028  0.80687381  1  0.487436  -0.00043  0.288706  0.299593  -0.000102  0.987579  0.0
H  H8  1  0.27192713  0.04456460  0.48557770  1  0.443765  0.000247  0.290707  0.280011  0.000546  1.008017  0.0
H  H9  1  0.29054523  0.78703225  0.48089882  1  0.494389  -0.000277  0.281927  0.301599  6.2e-05  1.020014  0.0
H  H10  1  0.34428297  0.29685221  0.55990659  1  0.054905  -8.5e-05  0.10035  0.107682  -0.000119  0.992339  0.0
H  H11  1  0.37778876  0.27455331  0.67081393  1  0.033979  6.6e-05  0.102758  0.113641  5.8e-05  0.986437  0.0
H  H12  1  0.22894472  0.40549127  0.64213638  1  0.072512  0.000495  0.092105  0.132426  0.000352  1.003996  0.0
H  H13  1  0.26803473  0.38779330  0.75558303  1  0.016459  4.5e-05  0.086204  0.111251  8e-06  1.008745  0.0
H  H14  1  0.37632939  0.47249526  0.72217650  1  0.020024  -6e-05  0.086576  0.111609  -7.3e-05  1.012797  0.0
H  H15  1  0.15820159  0.81039338  0.26167305  1  0.045724  -0.000146  0.100327  0.10991  -0.000191  0.984313  0.0
H  H16  1  0.06782073  0.69975402  0.28308310  1  0.060851  4.6e-05  0.100835  0.11207  -0.0  1.001804  0.0
H  H17  1  0.89349557  0.68077121  0.15495672  1  0.026774  0.000148  0.084995  0.10919  7.6e-05  1.012252  0.0
H  H18  1  0.98600891  0.79074504  0.13385628  1  0.058996  1.5e-05  0.092809  0.125514  -1.3e-05  1.001416  0.0
H  H19  1  0.99851629  0.65612639  0.09399570  1  0.014051  -7.5e-05  0.082686  0.104256  -9.2e-05  1.031322  0.0
H  H20  1  0.19923761  0.64859179  0.85143489  1  0.0674  0.000139  0.100311  0.116204  0.000131  1.006862  0.0
H  H21  1  0.14096643  0.49755332  0.81358138  1  0.04327  -0.000177  0.096302  0.099045  -0.000204  0.997694  0.0
H  H22  1  0.01070576  0.65524907  0.86361615  1  0.036916  0.000125  0.092328  0.123955  6.3e-05  0.983482  0.0
H  H23  1  0.94528312  0.50285635  0.81671838  1  0.058991  0.000171  0.085378  0.109138  7.2e-05  1.040002  0.0
H  H24  1  0.05383206  0.59359911  0.94156939  1  0.041178  -0.000147  0.083596  0.103854  -0.000135  1.033843  0.0
H  H25  1  0.79775211  0.72373989  0.60523924  1  0.048397  -0.000148  0.101369  0.110755  -0.000162  1.006291  0.0
H  H26  1  0.79333458  0.65781764  0.68847717  1  0.050884  -0.000401  0.101445  0.108441  -0.000366  0.961579  0.0
H  H27  1  0.62479288  0.47653859  0.54362675  1  0.051867  5.3e-05  0.088312  0.119384  3e-05  1.022887  0.0
H  H28  1  0.59167467  0.59977598  0.58463934  1  0.026046  -8.2e-05  0.083389  0.104358  -8.4e-05  1.030017  0.0
H  H29  1  0.62337938  0.54742109  0.46502321  1  0.009273  6.1e-05  0.084828  0.108843  8e-06  1.030232  0.0
H  H30  1  0.72378141  0.80194156  0.88685169  1  0.045012  -0.000317  0.105256  0.113897  -0.000315  0.96811  0.0
H  H31  1  0.58596222  0.69991225  0.79342722  1  0.034027  -9.3e-05  0.093705  0.09124  -9.9e-05  0.990021  0.0
H  H32  1  0.66362315  0.74754735  0.02443794  1  0.047545  0.000251  0.094821  0.130717  0.000153  0.990409  0.0
H  H33  1  0.53096819  0.63746774  0.92711581  1  0.007179  2.4e-05  0.084495  0.108804  2e-06  1.019225  0.0
H  H34  1  0.66370232  0.62871414  0.91641951  1  0.01485  -0.000144  0.085276  0.109419  -0.000126  1.030991  0.0
H  H35  1  0.65150584  0.18928329  0.81560089  1  0.080767  0.000102  0.099756  0.113272  0.000127  1.01521  0.0
H  H36  1  0.77174876  0.25380757  0.93180583  1  0.024737  -0.000201  0.098188  0.103816  -0.000216  0.992802  0.0
H  H37  1  0.56026799  0.31337445  0.90876463  1  0.015065  0.000166  0.089423  0.119741  9.1e-05  0.998403  0.0
H  H38  1  0.66983165  0.37274201  0.03058264  1  -0.006005  0.00018  0.08485  0.106224  9.2e-05  1.032165  0.0
H  H39  1  0.70422823  0.40369004  0.92846468  1  0.015741  -8.9e-05  0.086375  0.112318  -9.5e-05  1.012716  0.0
H  H40  1  0.34139101  0.18087000  0.35552323  1  0.022752  -0.000281  0.0986  0.106373  -0.000277  0.973166  0.0
H  H41  1  0.21357967  0.08570599  0.35890357  1  0.068472  0.0002  0.099227  0.109313  0.000175  1.02143  0.0
H  H42  1  0.32462969  0.02568453  0.18323027  1  0.065335  0.000591  0.087393  0.124105  0.000489  1.034487  0.0
H  H43  1  0.19576899  0.92891540  0.18466195  1  0.010202  6.6e-05  0.086615  0.113448  -6e-06  1.023369  0.0
H  H44  1  0.19842123  0.05391734  0.17534160  1  0.028024  1.5e-05  0.090809  0.118882  -2.6e-05  0.995964  0.0
H  H45  1  0.24326032  0.64334611  0.23581538  1  0.025472  -0.000426  0.098724  0.101497  -0.000398  0.990526  0.0
H  H46  1  0.24216339  0.61904327  0.34684814  1  0.079309  0.000148  0.104644  0.122019  0.000141  0.987698  0.0
H  H47  1  0.41928904  0.60371202  0.22684004  1  0.031051  4.1e-05  0.087963  0.112719  -3e-06  1.029055  0.0
H  H48  1  0.42460068  0.58377841  0.34079515  1  0.022074  -1e-06  0.087165  0.114903  -2.6e-05  1.016744  0.0
H  H49  1  0.30687510  0.48534473  0.22359867  1  0.055363  -9.1e-05  0.086629  0.111735  -9e-05  1.015369  0.0
H  H50  1  0.74839251  0.88346232  0.33422939  1  0.467512  -0.00035  0.295638  0.301214  -0.000125  0.966621  0.0
H  H51  1  0.90502654  0.19660523  0.54861470  1  0.474938  -0.000339  0.290988  0.297409  5.3e-05  0.990479  0.0
H  H52  1  0.81220685  0.30602955  0.27994376  1  0.471964  -0.000199  0.285097  0.301069  6.8e-05  0.99941  0.0
H  H53  1  0.03209791  0.26272009  0.41385053  1  0.45783  -0.000354  0.29191  0.298235  -4e-05  0.98473  0.0
H  H54  1  0.54947858  0.22748023  0.20922046  1  0.42018  -0.00017  0.303816  0.299116  -4.3e-05  0.934097  0.0
H  H55  1  0.52139361  0.94177925  0.19313182  1  0.487345  -0.00043  0.288695  0.299634  -0.000103  0.987676  0.0
H  H56  1  0.72807509  0.95543752  0.51442238  1  0.443756  0.000246  0.29071  0.280007  0.000545  1.008037  0.0
H  H57  1  0.70945442  0.21296554  0.51909726  1  0.494314  -0.000277  0.281929  0.301572  6.2e-05  1.020047  0.0
H  H58  1  0.65571296  0.70314993  0.44009191  1  0.054918  -8.5e-05  0.10035  0.107714  -0.000118  0.992312  0.0
H  H59  1  0.62220645  0.72544710  0.32918453  1  0.03384  6.6e-05  0.102773  0.113644  5.8e-05  0.986475  0.0
H  H60  1  0.77105349  0.59451260  0.35786582  1  0.072645  0.000495  0.092095  0.132478  0.000352  1.003964  0.0
H  H61  1  0.73196476  0.61220796  0.24441703  1  0.016484  4.5e-05  0.086243  0.111323  8e-06  1.00873  0.0
H  H62  1  0.62367053  0.52750513  0.27782401  1  0.019997  -6e-05  0.086578  0.111639  -7.3e-05  1.012808  0.0
H  H63  1  0.84180242  0.18961307  0.73833022  1  0.045773  -0.000146  0.100328  0.109912  -0.000191  0.984318  0.0
H  H64  1  0.93217793  0.30024898  0.71691473  1  0.060764  4.6e-05  0.100817  0.112085  -0.0  1.001759  0.0
H  H65  1  0.10651318  0.31922569  0.84503278  1  0.026646  0.000148  0.08503  0.109263  7.6e-05  1.012272  0.0
H  H66  1  0.01399476  0.20926053  0.86614251  1  0.059019  1.5e-05  0.092794  0.125472  -1.3e-05  1.00149  0.0
H  H67  1  0.00150100  0.34388348  0.90600040  1  0.014302  -7.5e-05  0.082638  0.104201  -9.2e-05  1.031372  0.0
H  H68  1  0.80076159  0.35140687  0.14856557  1  0.067388  0.000139  0.10028  0.116159  0.000131  1.006874  0.0
H  H69  1  0.85903390  0.50244621  0.18642093  1  0.04331  -0.000177  0.096316  0.099046  -0.000204  0.997701  0.0
H  H70  1  0.98929609  0.34475219  0.13638493  1  0.03692  0.000125  0.092321  0.123933  6.3e-05  0.983476  0.0
H  H71  1  0.05471443  0.49714405  0.18328247  1  0.059011  0.000171  0.085365  0.109106  7.2e-05  1.040024  0.0
H  H72  1  0.94616822  0.40640214  0.05843079  1  0.041191  -0.000147  0.08359  0.103822  -0.000135  1.033814  0.0
H  H73  1  0.20224901  0.27625963  0.39476318  1  0.048384  -0.000148  0.101344  0.110729  -0.000162  1.006326  0.0
H  H74  1  0.20666655  0.34218188  0.31152319  1  0.050899  -0.000401  0.101461  0.108471  -0.000366  0.961554  0.0
H  H75  1  0.37520504  0.52346267  0.45637516  1  0.051692  5.3e-05  0.088319  0.11941  3e-05  1.022837  0.0
H  H76  1  0.40832632  0.40022701  0.41536432  1  0.02608  -8.2e-05  0.083417  0.104397  -8.4e-05  1.03001  0.0
H  H77  1  0.37662125  0.45258103  0.53498077  1  0.00922  6.1e-05  0.084817  0.108823  8e-06  1.030227  0.0
H  H78  1  0.27622037  0.19806142  0.11314933  1  0.045035  -0.000317  0.105277  0.113893  -0.000314  0.968101  0.0
H  H79  1  0.41403908  0.30009333  0.20657330  1  0.033637  -9.4e-05  0.093694  0.091222  -9.9e-05  0.990031  0.0
H  H80  1  0.33637720  0.25245218  0.97556162  1  0.047628  0.000251  0.094835  0.130742  0.000153  0.990458  0.0
H  H81  1  0.46903018  0.36253266  0.07288035  1  0.007246  2.4e-05  0.084517  0.108849  2e-06  1.019245  0.0
H  H82  1  0.33629689  0.37128452  0.08357683  1  0.014855  -0.000144  0.085303  0.109453  -0.000126  1.030965  0.0
H  H83  1  0.34849213  0.81071625  0.18440109  1  0.080772  0.000102  0.099718  0.113215  0.000127  1.015264  0.0
H  H84  1  0.22824923  0.74619197  0.06819477  1  0.024725  -0.000201  0.098172  0.103752  -0.000216  0.99282  0.0
H  H85  1  0.43973000  0.68662509  0.09123597  1  0.015091  0.000166  0.089431  0.119745  9.1e-05  0.998395  0.0
H  H86  1  0.33016706  0.62725925  0.96941800  1  -0.006076  0.00018  0.084862  0.106255  9.2e-05  1.032157  0.0
H  H87  1  0.29576898  0.59630949  0.07153512  1  0.015725  -8.9e-05  0.086394  0.112337  -9.5e-05  1.012768  0.0
H  H88  1  0.65861043  0.81913212  0.64447605  1  0.022781  -0.000281  0.098585  0.106333  -0.000277  0.9732  0.0
H  H89  1  0.78642147  0.91429353  0.64109610  1  0.068494  0.0002  0.099218  0.109297  0.000175  1.02141  0.0
H  H90  1  0.67537024  0.97431586  0.81676817  1  0.065345  0.000591  0.08738  0.1241  0.000489  1.034605  0.0
H  H91  1  0.80423130  0.07108586  0.81533685  1  0.010167  6.6e-05  0.086613  0.113445  -6e-06  1.023396  0.0
H  H92  1  0.80157749  0.94608392  0.82465767  1  0.028056  1.5e-05  0.0908  0.118871  -2.6e-05  0.996052  0.0
H  H93  1  0.75674240  0.35665341  0.76418177  1  0.025507  -0.000426  0.098704  0.101451  -0.000398  0.990532  0.0
H  H94  1  0.75783740  0.38095539  0.65314774  1  0.079171  0.000148  0.104653  0.122065  0.000141  0.987743  0.0
H  H95  1  0.58071066  0.39628404  0.77315818  1  0.031062  4.1e-05  0.088014  0.112787  -3e-06  1.029049  0.0
H  H96  1  0.57539974  0.41621938  0.65920311  1  0.02207  -1e-06  0.08717  0.114911  -2.6e-05  1.016759  0.0
H  H97  1  0.69312525  0.51465480  0.77640089  1  0.055367  -9.1e-05  0.08662  0.111745  -9e-05  1.015377  0.0
Rh  Rh98  1  0.03476748  0.96805402  0.56108936  1  1.061898  0.341279  0.76605  0.714223  0.38867  3.867578  0.343
Rh  Rh99  1  0.06888577  0.59466869  0.51923281  1  1.056431  0.34138  0.765881  0.723361  0.388598  3.870914  0.343
Rh  Rh100  1  0.41899000  0.95088386  0.91954731  1  1.092139  0.342363  0.776036  0.747589  0.390189  3.875884  0.344
Rh  Rh101  1  0.44264833  0.00062734  0.55912900  1  1.058079  0.338977  0.767408  0.730281  0.386053  3.792513  0.34
Rh  Rh102  1  0.96523041  0.03194898  0.43890630  1  1.063077  0.3412  0.766051  0.714249  0.388567  3.867653  0.343
Rh  Rh103  1  0.93111222  0.40533084  0.48076779  1  1.057705  0.341363  0.765836  0.723212  0.38857  3.870907  0.343
Rh  Rh104  1  0.58100600  0.04911655  0.08045195  1  1.088958  0.342338  0.775941  0.747403  0.390186  3.876039  0.344
Rh  Rh105  1  0.55735318  0.99937305  0.44086829  1  1.064292  0.339006  0.767435  0.730381  0.38604  3.792382  0.34
C  C106  1  0.20097383  0.17987733  0.57303854  1  1.333132  -0.00516  0.21961  0.52412  -0.005576  4.079512  -0.006
C  C107  1  0.31282375  0.28693028  0.62324262  1  -0.013424  0.000155  -0.157858  -0.226404  -9.2e-05  3.931711  0.0
C  C108  1  0.29533143  0.39451276  0.68952740  1  -0.070226  0.000163  -0.24068  -0.333806  8.9e-05  3.929044  0.0
C  C109  1  0.05012296  0.85856746  0.34951272  1  1.335592  -0.007185  0.221112  0.533473  -0.007521  4.05512  -0.008
C  C110  1  0.06977080  0.76907061  0.26236164  1  -0.034359  0.000507  -0.159582  -0.224787  0.000149  3.921706  0.0
C  C111  1  0.98208254  0.72146503  0.15492548  1  -0.058568  -2.7e-05  -0.242994  -0.337827  -0.000119  3.972406  0.0
C  C112  1  0.08004475  0.53856426  0.69519576  1  1.320036  -0.005573  0.219818  0.538417  -0.005962  4.070973  -0.006
C  C113  1  0.12032131  0.56783866  0.80949625  1  -0.015783  8.9e-05  -0.161282  -0.23012  -0.00024  3.925863  0.0
C  C114  1  0.02676289  0.58046262  0.86070753  1  -0.104816  -0.000124  -0.240005  -0.3291  -0.000214  3.940286  0.0
C  C115  1  0.85264320  0.58632565  0.56181752  1  1.333578  -0.006416  0.220173  0.533784  -0.006798  4.066399  -0.007
C  C116  1  0.77395181  0.63979000  0.60545421  1  -0.00745  2.4e-05  -0.158037  -0.219745  -0.000348  3.932186  0.0
C  C117  1  0.64607915  0.56156594  0.54649595  1  -0.067227  4.5e-05  -0.246915  -0.350182  -3.9e-05  3.988558  0.0
C  C118  1  0.58708992  0.84891326  0.91909192  1  1.335204  -0.00685  0.221668  0.53088  -0.007411  4.092186  -0.007
C  C119  1  0.63235136  0.75730904  0.87777425  1  -0.010768  -9.8e-05  -0.155593  -0.221116  -0.000454  3.954159  0.0
C  C120  1  0.62195911  0.68842733  0.94005328  1  -0.0212  -0.000105  -0.241458  -0.338015  -0.000177  3.947471  0.0
C  C121  1  0.61708102  0.14212805  0.93543076  1  1.338816  -0.006743  0.221461  0.534934  -0.007049  4.073018  -0.007
C  C122  1  0.67861461  0.22934542  0.90176196  1  -0.006091  0.000608  -0.162798  -0.23452  9e-05  3.930792  0.001
C  C123  1  0.65168306  0.33612414  0.94514080  1  -0.008218  -0.000137  -0.240554  -0.333143  -0.000181  3.942371  0.0
C  C124  1  0.36321074  0.05081907  0.38797361  1  1.326468  -0.006312  0.219801  0.530665  -0.006747  4.064668  -0.007
C  C125  1  0.28860171  0.08907195  0.33117485  1  -0.025403  0.000556  -0.161642  -0.230288  0.000111  3.939483  0.0
C  C126  1  0.25008895  0.02040582  0.21158913  1  -0.041204  0.00053  -0.243039  -0.329007  0.000334  3.919936  0.0
C  C127  1  0.37599894  0.77714602  0.37559234  1  1.332391  -0.006154  0.218319  0.531698  -0.006519  4.071473  -0.007
C  C128  1  0.29906872  0.65025397  0.30593306  1  -0.028481  0.000154  -0.158306  -0.228191  -0.000219  3.932415  0.0
C  C129  1  0.36666349  0.57671438  0.27227557  1  -0.082478  -7e-05  -0.243358  -0.339732  -0.000169  3.959281  0.0
C  C130  1  0.79901952  0.82012048  0.42695872  1  1.333088  -0.005161  0.219595  0.524102  -0.005576  4.079594  -0.006
C  C131  1  0.68716953  0.71306927  0.37675525  1  -0.012954  0.000155  -0.157827  -0.226365  -9.2e-05  3.931795  0.0
C  C132  1  0.70466528  0.60548937  0.31047328  1  -0.07054  0.000163  -0.240748  -0.334029  8.9e-05  3.929193  0.0
C  C133  1  0.94987335  0.14143554  0.65048409  1  1.335571  -0.007186  0.221165  0.53362  -0.007523  4.054913  -0.008
C  C134  1  0.93023137  0.23093324  0.73763631  1  -0.034394  0.000506  -0.159535  -0.224821  0.000149  3.921628  0.0
C  C135  1  0.01792635  0.27853794  0.84506898  1  -0.05859  -2.7e-05  -0.24297  -0.337792  -0.00012  3.972574  0.0
C  C136  1  0.91995607  0.46143267  0.30480637  1  1.319821  -0.005575  0.219815  0.538339  -0.005964  4.071229  -0.006
C  C137  1  0.87967823  0.43216087  0.19050732  1  -0.015435  8.9e-05  -0.161272  -0.230085  -0.00024  3.925837  0.0
C  C138  1  0.97323509  0.41953691  0.13929307  1  -0.10494  -0.000125  -0.239963  -0.328985  -0.000214  3.940222  0.0
C  C139  1  0.14735907  0.41367474  0.43818400  1  1.333449  -0.006416  0.220188  0.533913  -0.006798  4.066253  -0.007
C  C140  1  0.22604895  0.36020866  0.39454647  1  -0.007492  2.4e-05  -0.158041  -0.219759  -0.000348  3.932199  0.0
C  C141  1  0.35391883  0.43843360  0.45350534  1  -0.067007  4.5e-05  -0.24695  -0.350266  -3.9e-05  3.988582  0.0
C  C142  1  0.41291149  0.15108886  0.08091217  1  1.335498  -0.00685  0.221801  0.531083  -0.007412  4.091966  -0.007
C  C143  1  0.36764964  0.24269395  0.12222597  1  -0.01044  -9.8e-05  -0.155566  -0.221039  -0.000454  3.954101  0.0
C  C144  1  0.37804167  0.31157133  0.05994397  1  -0.021338  -0.000105  -0.241537  -0.338161  -0.000177  3.947605  0.0
C  C145  1  0.38291845  0.85787321  0.06457480  1  1.338885  -0.006741  0.221455  0.534841  -0.007048  4.073301  -0.007
C  C146  1  0.32138373  0.77065498  0.09824038  1  -0.006135  0.000608  -0.162796  -0.234424  9e-05  3.930912  0.001
C  C147  1  0.34831564  0.66387712  0.05486122  1  -0.008144  -0.000137  -0.240554  -0.333155  -0.000181  3.942432  0.0
C  C148  1  0.63679076  0.94918132  0.61202574  1  1.326475  -0.006311  0.219798  0.53063  -0.006746  4.064672  -0.007
C  C149  1  0.71140093  0.91092930  0.66882566  1  -0.025433  0.000556  -0.16156  -0.230113  0.000111  3.939526  0.0
C  C150  1  0.74991098  0.97959457  0.78841000  1  -0.041265  0.00053  -0.243023  -0.329031  0.000335  3.920227  0.0
C  C151  1  0.62400256  0.22285437  0.62440701  1  1.332329  -0.006153  0.218335  0.531716  -0.006518  4.071434  -0.007
C  C152  1  0.70093199  0.34974642  0.69406549  1  -0.028325  0.000154  -0.158284  -0.228171  -0.000219  3.932487  0.0
C  C153  1  0.63333643  0.42328601  0.72772424  1  -0.08247  -7e-05  -0.24342  -0.339838  -0.000169  3.959362  0.0
N  N154  1  0.18289002  0.10342746  0.60902281  1  -1.205992  0.036794  -0.55989  -0.618071  0.026849  3.508857  0.023
N  N155  1  0.07003056  0.86444401  0.44362286  1  -1.21119  0.050821  -0.56282  -0.624537  0.037189  3.495069  0.033
N  N156  1  0.12670089  0.61416641  0.66289722  1  -1.200566  0.041112  -0.560926  -0.623147  0.030048  3.474243  0.025
N  N157  1  0.95115265  0.65148872  0.55923182  1  -1.184042  0.045688  -0.559556  -0.615925  0.033433  3.490216  0.029
N  N158  1  0.49044146  0.84145163  0.86396833  1  -1.175426  0.039095  -0.556742  -0.610466  0.028758  3.471258  0.025
N  N159  1  0.51298171  0.06078184  0.87694474  1  -1.217998  0.049036  -0.555958  -0.613463  0.035793  3.479188  0.032
N  N160  1  0.34398906  0.03666158  0.46943514  1  -1.195535  0.042532  -0.564492  -0.608082  0.031204  3.486731  0.027
N  N161  1  0.35717261  0.83360459  0.46256006  1  -1.200547  0.044717  -0.562444  -0.615542  0.032556  3.500259  0.028
N  N162  1  0.81710334  0.89657036  0.39097376  1  -1.205935  0.036783  -0.55978  -0.617899  0.02684  3.508624  0.023
N  N163  1  0.92996392  0.13555467  0.55637694  1  -1.211222  0.050786  -0.562777  -0.624593  0.037164  3.495135  0.033
N  N164  1  0.87330215  0.38583398  0.33710647  1  -1.200646  0.041117  -0.560892  -0.623071  0.030052  3.474499  0.025
N  N165  1  0.04884968  0.34850994  0.44077046  1  -1.183991  0.045679  -0.559581  -0.616054  0.033427  3.490206  0.029
N  N166  1  0.50955915  0.15855049  0.13603703  1  -1.175412  0.039099  -0.556825  -0.61065  0.028762  3.471492  0.025
N  N167  1  0.48701776  0.93921942  0.12306013  1  -1.217773  0.049033  -0.555893  -0.613441  0.035791  3.479352  0.032
N  N168  1  0.65601236  0.96334054  0.53056621  1  -1.195538  0.042524  -0.564529  -0.608147  0.031198  3.486724  0.027
N  N169  1  0.64282780  0.16639321  0.53743957  1  -1.200499  0.044712  -0.562473  -0.615515  0.032553  3.500302  0.028
O  O170  1  0.12514859  0.16746697  0.49475801  1  -1.084024  0.037502  -0.301022  -0.444993  0.028104  2.366017  0.031
O  O171  1  0.01493239  0.92776481  0.32783839  1  -1.06564  0.048249  -0.297871  -0.421881  0.035983  2.323593  0.041
O  O172  1  0.99666877  0.43781986  0.63288693  1  -1.082087  0.042935  -0.308974  -0.454917  0.032181  2.343015  0.036
O  O173  1  0.81968046  0.47651822  0.53032095  1  -1.074668  0.044115  -0.305336  -0.441693  0.033042  2.336899  0.037
O  O174  1  0.64691611  0.93244503  0.01217649  1  -1.07297  0.039026  -0.301782  -0.444297  0.029242  2.336151  0.033
O  O175  1  0.67040303  0.15470892  0.02530937  1  -1.071727  0.046949  -0.305108  -0.448264  0.035129  2.335351  0.039
O  O176  1  0.44756014  0.03634114  0.35521525  1  -1.069547  0.042629  -0.302688  -0.442384  0.03197  2.349515  0.036
O  O177  1  0.45754002  0.82573092  0.34472951  1  -1.079081  0.047504  -0.307386  -0.448622  0.035514  2.335032  0.041
O  O178  1  0.10208086  0.91586817  0.67793386  1  -0.946068  -0.002476  -0.561452  -0.740892  -0.00253  1.870296  -0.002
O  O179  1  0.19194641  0.76746871  0.54897830  1  -0.995522  -0.002342  -0.553842  -0.763286  -0.002548  2.047783  -0.002
O  O180  1  0.27094765  0.85710259  0.77447706  1  -0.961603  -0.002051  -0.554871  -0.742565  -0.002143  1.996775  -0.001
O  O181  1  0.34285969  0.01306713  0.68068690  1  -0.98903  -0.002548  -0.555648  -0.77154  -0.002643  1.896494  -0.002
O  O182  1  0.87484469  0.83253258  0.50524123  1  -1.084109  0.037489  -0.301036  -0.444997  0.028095  2.365997  0.031
O  O183  1  0.98506144  0.07223040  0.67216074  1  -1.065554  0.048259  -0.297927  -0.421945  0.03599  2.323108  0.041
O  O184  1  0.00333440  0.56217706  0.36711622  1  -1.08202  0.042951  -0.309003  -0.454912  0.032194  2.343137  0.036
O  O185  1  0.18032523  0.52348475  0.46968613  1  -1.074528  0.044106  -0.305323  -0.441746  0.033035  2.336867  0.037
O  O186  1  0.35308456  0.06755536  0.98782962  1  -1.07293  0.039024  -0.301927  -0.444466  0.029242  2.33611  0.033
O  O187  1  0.32959566  0.84529234  0.97469540  1  -1.071838  0.046942  -0.305158  -0.448294  0.035126  2.335406  0.039
O  O188  1  0.55244135  0.96365925  0.64478479  1  -1.069504  0.042626  -0.302749  -0.442409  0.031968  2.349369  0.036
O  O189  1  0.54246261  0.17427033  0.65527306  1  -1.07898  0.047506  -0.307392  -0.448651  0.035516  2.335035  0.041
O  O190  1  0.89792318  0.08413827  0.32206392  1  -0.946048  -0.002476  -0.561473  -0.740979  -0.00253  1.870361  -0.002
O  O191  1  0.80804887  0.23252997  0.45101817  1  -0.995497  -0.002343  -0.55385  -0.76327  -0.002549  2.047852  -0.002
O  O192  1  0.72905372  0.14290126  0.22552283  1  -0.961344  -0.002051  -0.554901  -0.742607  -0.002143  1.996695  -0.001
O  O193  1  0.65714152  0.98693066  0.31931009  1  -0.989048  -0.002548  -0.555636  -0.771556  -0.002643  1.896496  -0.002
