# generated using pymatgen
data_ZnH22C26NO6
_symmetry_space_group_name_H-M   'P 1'
_cell_length_a   13.87372756
_cell_length_b   15.37556506
_cell_length_c   19.69535514
_cell_angle_alpha   90.46225679
_cell_angle_beta   90.04168314
_cell_angle_gamma   90.01092273
_symmetry_Int_Tables_number   1
_chemical_formula_structural   ZnH22C26NO6
_chemical_formula_sum   'Zn2 H44 C52 N2 O12'
_cell_volume   4201.20434552
_cell_formula_units_Z   2
loop_
 _symmetry_equiv_pos_site_id
 _symmetry_equiv_pos_as_xyz
  1  'x, y, z'
loop_
 _atom_site_type_symbol
 _atom_site_label
 _atom_site_symmetry_multiplicity
 _atom_site_fract_x
 _atom_site_fract_y
 _atom_site_fract_z
 _atom_site_occupancy
 _atom_site_pbe_bader_charge
 _atom_site_pbe_bader_spin_density
 _atom_site_pbe_cm5_charge
 _atom_site_pbe_ddec_charge
 _atom_site_pbe_ddec_spin_density
 _atom_site_pbe_ddec_sum_bond_order
 _atom_site_pbe_magmom
Zn  Zn0  1  0.40483329  0.50053918  0.49987905  1  1.287977  0  0.665652  0.805969  0  2.434148  0
Zn  Zn1  1  0.59903501  0.49968478  0.49992249  1  1.278254  0  0.664467  0.8  0  2.426911  0
H  H2  1  0.65390491  0.48855468  0.71762468  1  0.054254  0  0.09949  0.099017  0  1.012341  0
H  H3  1  0.61200372  0.40289559  0.06211950  1  0.039537  0  0.100181  0.099151  0  1.003786  0
H  H4  1  0.38509457  0.59379286  0.06306600  1  0.037848  0  0.100258  0.099275  0  1.003488  0
H  H5  1  0.61179333  0.40240588  0.93682870  1  0.061212  0  0.100267  0.099123  0  1.003516  0
H  H6  1  0.35332571  0.05896559  0.47807484  1  0.046803  0  0.097524  0.104605  0  1.054625  0
H  H7  1  0.65239070  0.93928867  0.47253924  1  0.06107  0  0.102204  0.117733  0  1.013603  0
H  H8  1  0.35393418  0.94014622  0.53245292  1  0.045861  0  0.097758  0.105609  0  1.051255  0
H  H9  1  0.65231067  0.06227732  0.53690991  1  0.086947  0  0.102108  0.118502  0  1.011561  0
H  H10  1  0.93172731  0.49482324  0.39014797  1  0.068873  0  0.114878  0.118451  0  0.996175  0
H  H11  1  0.07220264  0.55079599  0.60287482  1  0.059504  0  0.113797  0.116192  0  0.99893  0
H  H12  1  0.93185545  0.50507763  0.61000100  1  0.068768  0  0.114694  0.118347  0  0.99595  0
H  H13  1  0.34580675  0.50022465  0.28321884  1  0.038547  0  0.099657  0.099248  0  1.009456  0
H  H14  1  0.07187743  0.44872845  0.39732638  1  0.058773  0  0.113859  0.116359  0  0.998304  0
H  H15  1  0.75157736  0.49335925  0.39547000  1  0.143067  0  0.13013  0.106297  0  0.988561  0
H  H16  1  0.25235497  0.54666367  0.59839411  1  0.15065  0  0.130963  0.108724  0  0.984153  0
H  H17  1  0.75167387  0.50662794  0.60455054  1  0.147313  0  0.130628  0.106968  0  0.987254  0
H  H18  1  0.25204489  0.45321954  0.40158815  1  0.1549  0  0.131319  0.109252  0  0.983273  0
H  H19  1  0.25024194  0.15270618  0.54311630  1  0.039239  0  0.099006  0.056281  0  0.968535  0
H  H20  1  0.22797114  0.13781348  0.45438130  1  0.036499  0  0.094497  0.049419  0  0.971153  0
H  H21  1  0.09678926  0.22652022  0.51196408  1  0.064308  0  0.089987  0.11936  0  1.006913  0
H  H22  1  0.18501084  0.30651487  0.53400781  1  0.055619  0  0.093118  0.132007  0  0.995858  0
H  H23  1  0.15648652  0.28601132  0.44716243  1  0.031329  0  0.086067  0.115465  0  1.015536  0
H  H24  1  0.65453178  0.49646062  0.28204314  1  0.078016  0  0.099406  0.098626  0  1.012694  0
H  H25  1  0.72402840  0.72225272  0.55106490  1  0.038845  0  0.092631  0.057034  0  0.991685  0
H  H26  1  0.75671939  0.83292437  0.53471831  1  0.020232  0  0.089274  0.041129  0  0.985074  0
H  H27  1  0.85610044  0.78435022  0.43473367  1  0.036869  0  0.088296  0.119867  0  0.998651  0
H  H28  1  0.89528179  0.73076918  0.50990153  1  0.011467  0  0.083994  0.11014  0  1.015446  0
H  H29  1  0.82203688  0.67462813  0.44944960  1  0.039623  0  0.084336  0.117692  0  1.029775  0
H  H30  1  0.25358461  0.84769866  0.46212920  1  0.053985  0  0.099332  0.057166  0  0.969794  0
H  H31  1  0.22648216  0.86057474  0.55036374  1  0.010706  0  0.094221  0.049231  0  0.970519  0
H  H32  1  0.09913449  0.77268726  0.48743994  1  -0.000601  0  0.090024  0.119428  0  1.006039  0
H  H33  1  0.18892175  0.69316739  0.46777175  1  0.059098  0  0.09329  0.132349  0  0.995832  0
H  H34  1  0.15457003  0.71251648  0.55369043  1  0.051365  0  0.085662  0.11485  0  1.01729  0
H  H35  1  0.34634894  0.51233161  0.71661121  1  0.048007  0  0.099318  0.098631  0  1.012069  0
H  H36  1  0.72198258  0.27459426  0.45047277  1  0.07791  0  0.092612  0.057471  0  0.990708  0
H  H37  1  0.75412055  0.16454874  0.46969557  1  0.009819  0  0.089525  0.041234  0  0.985784  0
H  H38  1  0.85750571  0.21741109  0.56654600  1  0.032529  0  0.088203  0.119809  0  0.998669  0
H  H39  1  0.89476661  0.26597888  0.48886561  1  0.025159  0  0.084101  0.110332  0  1.014237  0
H  H40  1  0.82464255  0.32657288  0.54843511  1  0.023684  0  0.083877  0.116908  0  1.032777  0
H  H41  1  0.65408080  0.48891729  0.84411711  1  0.066985  0  0.097908  0.095797  0  1.00941  0
H  H42  1  0.34395549  0.50220131  0.15664375  1  0.052713  0  0.097754  0.095699  0  1.008302  0
H  H43  1  0.65436022  0.49584415  0.15550825  1  0.062945  0  0.098042  0.096068  0  1.008229  0
H  H44  1  0.34423817  0.50819077  0.84305329  1  0.060565  0  0.097644  0.095073  0  1.010097  0
H  H45  1  0.38541247  0.59387112  0.93778380  1  0.044313  0  0.099857  0.098238  0  1.005278  0
C  C46  1  0.50294973  0.33163627  0.50368574  1  1.562245  0  0.213945  0.628247  0  4.146759  0
C  C47  1  0.50326663  0.95213756  0.50412006  1  -0.143707  0  -0.007346  0.122636  0  4.030424  0
C  C48  1  0.89587541  0.49604346  0.43928237  1  -0.106228  0  -0.073353  -0.171995  0  3.946593  0
C  C49  1  0.10807926  0.52701297  0.55723257  1  0.062964  0  -0.074747  -0.17395  0  3.954245  0
C  C50  1  0.89594363  0.50385641  0.56084104  1  -0.110016  0  -0.072955  -0.171677  0  3.946295  0
C  C51  1  0.10791298  0.47259084  0.44291985  1  0.063515  0  -0.074689  -0.173746  0  3.953235  0
C  C52  1  0.79581751  0.49578008  0.44126571  1  0.529176  0  0.067888  0.107517  0  3.911286  0
C  C53  1  0.20813807  0.52596131  0.55538861  1  0.408408  0  0.068027  0.106584  0  3.912031  0
C  C54  1  0.79586708  0.50414206  0.55879169  1  0.526706  0  0.067842  0.10724  0  3.91081  0
C  C55  1  0.20796616  0.47384241  0.44464977  1  0.406887  0  0.067571  0.105746  0  3.912668  0
C  C56  1  0.94868951  0.49991139  0.50007908  1  0.073507  0  0.01716  0.103271  0  3.983169  0
C  C57  1  0.50299914  0.66866227  0.49832069  1  1.559954  0  0.214235  0.629254  0  4.144579  0
C  C58  1  0.05518983  0.49982723  0.50008341  1  0.007569  0  0.015736  0.102415  0  3.980525  0
C  C59  1  0.50094994  0.49659008  0.36644739  1  1.583984  0  0.213879  0.595014  0  4.16705  0
C  C60  1  0.50107751  0.50316831  0.63333539  1  1.57532  0  0.214557  0.59409  0  4.165921  0
C  C61  1  0.58655027  0.49334149  0.74581314  1  -0.050013  0  -0.086491  -0.086597  0  4.000606  0
C  C62  1  0.41297696  0.49975345  0.25457325  1  -0.037821  0  -0.086716  -0.08737  0  3.998976  0
C  C63  1  0.58689199  0.49658101  0.25391628  1  -0.051298  0  -0.087072  -0.087973  0  4.001806  0
C  C64  1  0.41332199  0.50732133  0.74523829  1  -0.042411  0  -0.086669  -0.086434  0  4.000594  0
C  C65  1  0.58608338  0.49253413  0.81639355  1  -0.030687  0  -0.095202  -0.140247  0  3.999927  0
C  C66  1  0.41239792  0.50122059  0.18397289  1  -0.002697  0  -0.095245  -0.140626  0  3.999239  0
C  C67  1  0.58636502  0.49610546  0.18331669  1  -0.034062  0  -0.094594  -0.139606  0  3.999925  0
C  C68  1  0.41647140  0.18536059  0.49333037  1  0.416656  0  0.090577  0.264407  0  4.04989  0
C  C69  1  0.41265984  0.50570294  0.81583021  1  -0.004418  0  -0.095504  -0.140551  0  3.999461  0
C  C70  1  0.49911364  0.49872350  0.85281286  1  -0.07136  0  -0.006159  0.073832  0  4.008502  0
C  C71  1  0.49908521  0.49865493  0.14699262  1  -0.069665  0  -0.006539  0.073362  0  4.008948  0
C  C72  1  0.50027253  0.50126481  0.70937742  1  -0.035909  0  -0.01881  -0.031422  0  3.963332  0
C  C73  1  0.50023990  0.49760988  0.29038685  1  -0.041782  0  -0.018114  -0.030089  0  3.961759  0
C  C74  1  0.43415954  0.55064359  0.96487833  1  -0.041447  0  -0.093425  -0.128725  0  4.004064  0
C  C75  1  0.56312761  0.44596990  0.03495436  1  -0.114519  0  -0.093706  -0.130963  0  4.006478  0
C  C76  1  0.43404269  0.55066033  0.03550749  1  0.064977  0  -0.093801  -0.130676  0  4.006241  0
C  C77  1  0.56303401  0.44574959  0.96433667  1  0.007311  0  -0.093247  -0.128572  0  4.004282  0
C  C78  1  0.49868363  0.49847340  0.07207978  1  0.032834  0  -0.010069  0.064807  0  4.013512  0
C  C79  1  0.58604558  0.81480221  0.48522078  1  0.555152  0  0.086526  0.261819  0  4.056541  0
C  C80  1  0.49869790  0.49824854  0.92771623  1  -0.019682  0  -0.010541  0.06284  0  4.012627  0
C  C81  1  0.41817370  0.09450069  0.49219877  1  0.082329  0  -0.122804  -0.300813  0  4.012277  0
C  C82  1  0.58670510  0.90557669  0.48736769  1  -0.028659  0  -0.114696  -0.281495  0  3.99562  0
C  C83  1  0.41875087  0.90526593  0.51733265  1  0.076238  0  -0.121963  -0.299465  0  4.012346  0
C  C84  1  0.58641430  0.09539855  0.52166804  1  -0.033714  0  -0.11477  -0.283098  0  3.998496  0
C  C85  1  0.24392612  0.18675747  0.49418144  1  0.410728  0  -0.063291  0.095088  0  3.921138  0
C  C86  1  0.16587297  0.25563972  0.49694941  1  -0.089762  0  -0.245895  -0.395056  0  3.978655  0
C  C87  1  0.74536827  0.76828501  0.51112079  1  0.453678  0  -0.069477  0.095793  0  3.920665  0
C  C88  1  0.83499744  0.73781805  0.47406590  1  -0.05939  0  -0.24915  -0.392029  0  3.993757  0
C  C89  1  0.24480402  0.81257623  0.51038635  1  0.427688  0  -0.064059  0.092942  0  3.921318  0
C  C90  1  0.41702109  0.81448183  0.51395975  1  0.417942  0  0.089716  0.263479  0  4.049729  0
C  C91  1  0.16722981  0.74352751  0.50452675  1  -0.053127  0  -0.245927  -0.394345  0  3.978684  0
C  C92  1  0.74434725  0.23042505  0.49145151  1  0.432852  0  -0.069943  0.095371  0  3.920147  0
C  C93  1  0.83568683  0.26185082  0.52592524  1  -0.060419  0  -0.249032  -0.39198  0  3.993464  0
C  C94  1  0.58590050  0.18619350  0.52119071  1  0.50389  0  0.086624  0.262117  0  4.057774  0
C  C95  1  0.50181517  0.23399460  0.50593106  1  0.048327  0  -0.028091  -0.229227  0  3.870613  0
C  C96  1  0.50205593  0.76637359  0.49946065  1  0.057016  0  -0.028295  -0.229827  0  3.871072  0
C  C97  1  0.50297894  0.04822409  0.50598354  1  -0.001337  0  -0.007804  0.122716  0  4.031241  0
N  N98  1  0.74684896  0.49993907  0.50000858  1  -1.229642  0  -0.313214  -0.180418  0  3.499885  0
N  N99  1  0.25703027  0.50002371  0.49997896  1  -1.243005  0  -0.312099  -0.18022  0  3.502479  0
O  O100  1  0.42737810  0.37204699  0.52251656  1  -1.15509  0  -0.318595  -0.545571  0  2.333035  0
O  O101  1  0.66826019  0.77341025  0.46230732  1  -1.07772  0  -0.208368  -0.236883  0  2.485273  0
O  O102  1  0.33388997  0.76948879  0.52611106  1  -1.056977  0  -0.183419  -0.195252  0  2.520949  0
O  O103  1  0.66892211  0.22845658  0.54167393  1  -1.068525  0  -0.208687  -0.23736  0  2.483144  0
O  O104  1  0.57984771  0.63113642  0.51820804  1  -1.153484  0  -0.314911  -0.548433  0  2.327836  0
O  O105  1  0.42732732  0.62933748  0.47822220  1  -1.156304  0  -0.319029  -0.545217  0  2.328026  0
O  O106  1  0.57972047  0.36803727  0.48248675  1  -1.156443  0  -0.315461  -0.548009  0  2.326409  0
O  O107  1  0.42235977  0.47687421  0.39611972  1  -1.167884  0  -0.31774  -0.552722  0  2.312338  0
O  O108  1  0.57998565  0.48323228  0.60384384  1  -1.173841  0  -0.317028  -0.550026  0  2.318061  0
O  O109  1  0.42298358  0.52453172  0.60364482  1  -1.168228  0  -0.318284  -0.552205  0  2.312991  0
O  O110  1  0.58021135  0.51556423  0.39591463  1  -1.17423  0  -0.316705  -0.550217  0  2.317379  0
O  O111  1  0.33344342  0.23001080  0.48028967  1  -1.053736  0  -0.182364  -0.193623  0  2.528184  0
