# generated using pymatgen
data_Cu4H24C45N8
_symmetry_space_group_name_H-M   'P 1'
_cell_length_a   30.97955648
_cell_length_b   31.26855282
_cell_length_c   32.03474410
_cell_angle_alpha   90.26686453
_cell_angle_beta   89.89380401
_cell_angle_gamma   89.64240456
_symmetry_Int_Tables_number   1
_chemical_formula_structural   Cu4H24C45N8
_chemical_formula_sum   'Cu12 H72 C135 N24'
_cell_volume   31030.60890013
_cell_formula_units_Z   3
loop_
 _symmetry_equiv_pos_site_id
 _symmetry_equiv_pos_as_xyz
  1  'x, y, z'
loop_
 _atom_site_type_symbol
 _atom_site_label
 _atom_site_symmetry_multiplicity
 _atom_site_fract_x
 _atom_site_fract_y
 _atom_site_fract_z
 _atom_site_occupancy
 _atom_site_pbe_bader_charge
 _atom_site_pbe_bader_spin_density
 _atom_site_pbe_cm5_charge
 _atom_site_pbe_ddec_charge
 _atom_site_pbe_ddec_spin_density
 _atom_site_pbe_ddec_sum_bond_order
 _atom_site_pbe_magmom
Cu  Cu0  1  0.77368591  0.84586348  0.76986470  1  0.529757  0  0.486118  0.20411  0  2.116401  0
Cu  Cu1  1  0.76753700  0.76974109  0.83443972  1  0.557826  0  0.486726  0.207069  0  2.110971  0
Cu  Cu2  1  0.84902533  0.77720673  0.77452606  1  0.537407  0  0.486594  0.205335  0  2.11487  0
Cu  Cu3  1  0.22528621  0.15462380  0.77078290  1  0.531602  0  0.485993  0.205061  0  2.114447  0
Cu  Cu4  1  0.22924150  0.23248783  0.83448585  1  0.533243  0  0.486455  0.206437  0  2.110862  0
Cu  Cu5  1  0.14752755  0.22060898  0.77603352  1  0.546952  0  0.486753  0.20482  0  2.116831  0
Cu  Cu6  1  0.77064094  0.15875696  0.23226735  1  0.536575  0  0.486111  0.205189  0  2.115594  0
Cu  Cu7  1  0.76505514  0.23642711  0.16918637  1  0.552006  0  0.486793  0.207187  0  2.111795  0
Cu  Cu8  1  0.84793016  0.22407530  0.22617701  1  0.523369  0  0.486398  0.205105  0  2.113439  0
Cu  Cu9  1  0.23285510  0.83902022  0.22836188  1  0.539426  0  0.487019  0.205505  0  2.117941  0
Cu  Cu10  1  0.23274511  0.76867766  0.15670155  1  0.547758  0  0.485561  0.205372  0  2.10794  0
Cu  Cu11  1  0.16099401  0.76719494  0.22836147  1  0.538541  0  0.485722  0.205172  0  2.107959  0
H  H12  1  0.70061161  0.90749898  0.80514736  1  0.095196  0  0.119549  0.109081  0  0.99557  0
H  H13  1  0.68646471  0.79914777  0.88773915  1  0.079534  0  0.11986  0.109745  0  0.996925  0
H  H14  1  0.90768869  0.80700182  0.69897722  1  0.092591  0  0.119875  0.108763  0  0.996482  0
H  H15  1  0.80102562  0.89663796  0.68880974  1  0.074592  0  0.11983  0.109464  0  0.996677  0
H  H16  1  0.79163532  0.68526576  0.88361451  1  0.08379  0  0.119685  0.109341  0  0.995757  0
H  H17  1  0.90921577  0.70530796  0.81319020  1  0.104787  0  0.120178  0.109949  0  0.995246  0
H  H18  1  0.30056138  0.09628064  0.80625454  1  0.093677  0  0.12012  0.109436  0  0.995418  0
H  H19  1  0.31207479  0.20721871  0.88685616  1  0.093462  0  0.119629  0.109273  0  0.995608  0
H  H20  1  0.08953688  0.18789858  0.70133906  1  0.109917  0  0.119772  0.109117  0  0.996115  0
H  H21  1  0.19919535  0.10192258  0.68989023  1  0.093478  0  0.119798  0.109168  0  0.996512  0
H  H22  1  0.20263920  0.31729021  0.88286276  1  0.099285  0  0.120022  0.109875  0  0.995282  0
H  H23  1  0.08496984  0.29112570  0.81477124  1  0.07772  0  0.120201  0.109951  0  0.995347  0
H  H24  1  0.69649558  0.09984890  0.19654480  1  0.077649  0  0.120027  0.109763  0  0.995927  0
H  H25  1  0.68312500  0.21023727  0.11628317  1  0.064441  0  0.119581  0.109061  0  0.995334  0
H  H26  1  0.90821098  0.18996644  0.29871417  1  0.110984  0  0.119724  0.109348  0  0.996176  0
H  H27  1  0.79849009  0.10585536  0.31219988  1  0.104077  0  0.119878  0.109652  0  0.995872  0
H  H28  1  0.78986587  0.32162512  0.12177763  1  0.107057  0  0.119821  0.109022  0  0.99576  0
H  H29  1  0.90906264  0.29447185  0.18726640  1  0.073883  0  0.119895  0.109579  0  0.995287  0
H  H30  1  0.31013672  0.89697410  0.19883320  1  0.063826  0  0.119887  0.109338  0  0.996076  0
H  H31  1  0.31010568  0.80156262  0.10034305  1  0.057674  0  0.119876  0.109733  0  0.995065  0
H  H32  1  0.10485540  0.79671064  0.30636760  1  0.108215  0  0.120039  0.109502  0  0.995987  0
H  H33  1  0.20312451  0.89469894  0.30573704  1  0.069713  0  0.119819  0.109078  0  0.996836  0
H  H34  1  0.20167960  0.69154765  0.10050181  1  0.094703  0  0.119882  0.109512  0  0.995524  0
H  H35  1  0.10371165  0.69017016  0.19711566  1  0.0855  0  0.120031  0.109652  0  0.995969  0
H  H36  1  0.59379559  0.98388884  0.88338002  1  0.066954  0  0.106249  0.109437  0  0.986351  0
H  H37  1  0.64755741  0.94368078  0.84187772  1  0.052755  0  0.100045  0.099906  0  1.004145  0
H  H38  1  0.63262008  0.83535568  0.92352234  1  0.050382  0  0.100101  0.099934  0  1.004519  0
H  H39  1  0.57890756  0.87579079  0.96491867  1  0.073615  0  0.106126  0.10886  0  0.987606  0
H  H40  1  0.41129419  0.12764692  0.97197053  1  0.077496  0  0.10631  0.109433  0  0.986973  0
H  H41  1  0.35649179  0.16639215  0.93079153  1  0.047855  0  0.100115  0.099976  0  1.003844  0
H  H42  1  0.36545518  0.06988939  0.83440331  1  0.061598  0  0.100274  0.099999  0  1.00261  0
H  H43  1  0.41946484  0.03073149  0.87621419  1  0.085999  0  0.106639  0.110372  0  0.986528  0
H  H44  1  0.57959462  0.03284736  0.12564732  1  0.081712  0  0.106482  0.109681  0  0.986114  0
H  H45  1  0.63226195  0.07292987  0.16794501  1  0.011503  0  0.100186  0.100073  0  1.003097  0
H  H46  1  0.64099013  0.16794514  0.07112570  1  0.050081  0  0.100164  0.100207  0  1.003633  0
H  H47  1  0.58747595  0.12831086  0.02943968  1  0.071694  0  0.106081  0.109157  0  0.986988  0
H  H48  1  0.42746865  0.87357008  0.03447966  1  0.074988  0  0.106041  0.109356  0  0.987375  0
H  H49  1  0.37437727  0.83178371  0.07448493  1  0.028182  0  0.100002  0.099642  0  1.003016  0
H  H50  1  0.35407521  0.93946672  0.15705728  1  0.057695  0  0.10008  0.100046  0  1.003689  0
H  H51  1  0.40792916  0.98068937  0.11755260  1  0.049741  0  0.106258  0.109418  0  0.98692  0
H  H52  1  0.87243779  0.96531733  0.57568585  1  0.060948  0  0.106268  0.109263  0  0.987379  0
H  H53  1  0.83399206  0.92758576  0.63183259  1  0.061947  0  0.100082  0.099913  0  1.003633  0
H  H54  1  0.94053520  0.83874001  0.64236150  1  0.028776  0  0.100424  0.100148  0  1.003701  0
H  H55  1  0.97880713  0.87666618  0.58623431  1  0.073587  0  0.10649  0.109673  0  0.986466  0
H  H56  1  0.03106003  0.87138928  0.41581286  1  0.064125  0  0.106699  0.110056  0  0.986268  0
H  H57  1  0.07095414  0.83116649  0.36162339  1  0.044116  0  0.100111  0.099751  0  1.003038  0
H  H58  1  0.16859106  0.92900591  0.36024972  1  0.036305  0  0.09999  0.100071  0  1.003847  0
H  H59  1  0.12852105  0.96904909  0.41441419  1  0.061033  0  0.106163  0.109022  0  0.987162  0
H  H60  1  0.02049385  0.11615020  0.58846012  1  0.062264  0  0.106824  0.109959  0  0.986255  0
H  H61  1  0.05774477  0.15528443  0.64469762  1  0.042102  0  0.100261  0.100012  0  1.003655  0
H  H62  1  0.16668998  0.06929428  0.63327181  1  0.048612  0  0.100099  0.100333  0  1.003311  0
H  H63  1  0.12921358  0.03027435  0.57708862  1  0.071991  0  0.106143  0.108886  0  0.987851  0
H  H64  1  0.98080354  0.11603077  0.40776288  1  0.085387  0  0.106302  0.109063  0  0.987007  0
H  H65  1  0.94181953  0.15619020  0.35343482  1  0.054614  0  0.100073  0.099834  0  1.003826  0
H  H66  1  0.83260451  0.07246360  0.36770948  1  0.045447  0  0.100038  0.099929  0  1.003336  0
H  H67  1  0.87180585  0.03246912  0.42206551  1  0.055745  0  0.106008  0.109021  0  0.986928  0
H  H68  1  0.86962069  0.58543966  0.96960965  1  0.111343  0  0.106418  0.109448  0  0.986802  0
H  H69  1  0.83167617  0.64090923  0.92890945  1  0.048514  0  0.100181  0.100049  0  1.003201  0
H  H70  1  0.93498470  0.63931304  0.83842481  1  0.055727  0  0.100231  0.100033  0  1.003649  0
H  H71  1  0.97331405  0.58461730  0.87981305  1  0.09668  0  0.106745  0.110313  0  0.985834  0
H  H72  1  0.86800949  0.42064834  0.03579134  1  0.057696  0  0.10598  0.109061  0  0.987131  0
H  H73  1  0.82970721  0.36572223  0.07637327  1  0.048711  0  0.099957  0.099972  0  1.003776  0
H  H74  1  0.93596730  0.36021321  0.16304609  1  0.041434  0  0.100173  0.100156  0  1.003642  0
H  H75  1  0.97466622  0.41427539  0.12168387  1  0.078913  0  0.106326  0.108982  0  0.986899  0
H  H76  1  0.03583389  0.57229520  0.12884817  1  0.073412  0  0.106301  0.10983  0  0.986671  0
H  H77  1  0.07782066  0.62558298  0.16842516  1  0.063415  0  0.10013  0.099897  0  1.003185  0
H  H78  1  0.15671984  0.64808801  0.05969950  1  0.042758  0  0.100135  0.100075  0  1.003484  0
H  H79  1  0.11528938  0.59405813  0.02057975  1  0.063584  0  0.106505  0.109451  0  0.986892  0
H  H80  1  0.12325786  0.41755782  0.96778496  1  0.060966  0  0.106423  0.109693  0  0.98632  0
H  H81  1  0.16224292  0.36201790  0.92746278  1  0.060083  0  0.099988  0.099665  0  1.003661  0
H  H82  1  0.05655327  0.35619807  0.84014497  1  0.07115  0  0.100385  0.100686  0  1.003781  0
H  H83  1  0.01725230  0.41097088  0.88120399  1  0.082918  0  0.106525  0.109691  0  0.986148  0
C  C84  1  0.70230761  0.87746877  0.82189154  1  0.377799  0  0.007258  -0.050515  0  3.956919  0
C  C85  1  0.67818851  0.86326654  0.85631538  1  0.041717  0  -0.035675  -0.035769  0  4.08208  0
C  C86  1  0.69508634  0.82221269  0.86401227  1  0.443665  0  0.006483  -0.051841  0  3.95842  0
C  C87  1  0.87839158  0.82594875  0.70195327  1  0.371486  0  0.007105  -0.04952  0  3.956673  0
C  C88  1  0.86334589  0.86027595  0.67764230  1  0.046259  0  -0.035374  -0.037077  0  4.08272  0
C  C89  1  0.82399330  0.87167108  0.69676067  1  0.424215  0  0.006697  -0.051282  0  3.958046  0
C  C90  1  0.81731203  0.69572227  0.86306714  1  0.3749  0  0.006692  -0.050693  0  3.958857  0
C  C91  1  0.85940894  0.67947258  0.85790792  1  0.093689  0  -0.035638  -0.037156  0  4.0866  0
C  C92  1  0.87712854  0.70567355  0.82679631  1  0.350036  0  0.006445  -0.051022  0  3.959856  0
C  C93  1  0.29816448  0.12681389  0.82232823  1  0.399156  0  0.006571  -0.05042  0  3.958296  0
C  C94  1  0.32202407  0.14261356  0.85629639  1  0.051091  0  -0.035556  -0.03746  0  4.085883  0
C  C95  1  0.30374850  0.18321620  0.86373019  1  0.391985  0  0.006057  -0.051734  0  3.958325  0
C  C96  1  0.11950363  0.17000678  0.70398214  1  0.349967  0  0.006758  -0.050661  0  3.957259  0
C  C97  1  0.13558440  0.13605980  0.67943200  1  0.058439  0  -0.035453  -0.036901  0  4.081482  0
C  C98  1  0.17542033  0.12613951  0.69814829  1  0.422594  0  0.007199  -0.04943  0  3.956078  0
C  C99  1  0.17709452  0.30534025  0.86294443  1  0.379839  0  0.006183  -0.051808  0  3.959564  0
C  C100  1  0.13435556  0.31990375  0.85825718  1  0.042854  0  -0.035481  -0.037299  0  4.084258  0
C  C101  1  0.11721986  0.29228297  0.82783341  1  0.40211  0  0.006318  -0.051166  0  3.957986  0
C  C102  1  0.69829013  0.13033767  0.18064091  1  0.434778  0  0.007089  -0.050457  0  3.958818  0
C  C103  1  0.67446744  0.14565426  0.14644841  1  0.026459  0  -0.035577  -0.037283  0  4.084338  0
C  C104  1  0.69177501  0.18645529  0.13939459  1  0.40946  0  0.006483  -0.050322  0  3.957427  0
C  C105  1  0.87806664  0.17262696  0.29672182  1  0.382797  0  0.006881  -0.051596  0  3.958301  0
C  C106  1  0.86258256  0.13881914  0.32126008  1  0.051372  0  -0.035585  -0.036705  0  4.082025  0
C  C107  1  0.82212251  0.12970720  0.30359064  1  0.360419  0  0.00721  -0.050653  0  3.956671  0
C  C108  1  0.81588714  0.30945265  0.14106184  1  0.363874  0  0.006053  -0.050443  0  3.957996  0
C  C109  1  0.85859262  0.32379389  0.14517841  1  0.052028  0  -0.035659  -0.037525  0  4.085895  0
C  C110  1  0.87652970  0.29591837  0.17487408  1  0.413183  0  0.006889  -0.051102  0  3.959458  0
C  C111  1  0.30469482  0.87019857  0.17789489  1  0.456479  0  0.006254  -0.050735  0  3.959717  0
C  C112  1  0.32565049  0.85912528  0.14037722  1  0.03954  0  -0.035677  -0.037382  0  4.08581  0
C  C113  1  0.30492791  0.82130109  0.12785419  1  0.446517  0  0.006616  -0.051819  0  3.956315  0
C  C114  1  0.13223171  0.81741452  0.30092788  1  0.399061  0  0.007094  -0.050643  0  3.95547  0
C  C115  1  0.14471413  0.85498928  0.32185754  1  0.009294  0  -0.035918  -0.03675  0  4.083219  0
C  C116  1  0.18234585  0.86738865  0.30062483  1  0.420114  0  0.00664  -0.051123  0  3.959352  0
C  C117  1  0.18098400  0.69664865  0.12743806  1  0.348425  0  0.006368  -0.051727  0  3.959479  0
C  C118  1  0.14310141  0.67534994  0.13936373  1  0.090894  0  -0.035488  -0.036937  0  4.0849  0
C  C119  1  0.13126910  0.69566456  0.17695828  1  0.406111  0  0.006015  -0.051656  0  3.959952  0
C  C120  1  0.99610710  0.50029190  0.00108972  1  0.308236  0  0.065457  0.321539  0  4.10002  0
C  C121  1  0.50046874  0.00462696  0.00058372  1  0.351972  0  0.065976  0.322126  0  4.099244  0
C  C122  1  0.00163387  0.99655735  0.49761567  1  0.348497  0  0.065637  0.321744  0  4.099301  0
C  C123  1  0.58281229  0.93288082  0.92735735  1  0.077204  0  -0.006214  0.129095  0  4.124971  0
C  C124  1  0.60242612  0.95125826  0.89202534  1  -0.022082  0  -0.083904  -0.120128  0  3.97128  0
C  C125  1  0.63267535  0.92839686  0.86878689  1  -0.01208  0  -0.09465  -0.136682  0  4.005079  0
C  C126  1  0.64479399  0.88639021  0.87959938  1  -0.020584  0  -0.008018  0.087488  0  4.047298  0
C  C127  1  0.62432357  0.86792712  0.91438410  1  -0.035922  0  -0.094994  -0.137334  0  4.004484  0
C  C128  1  0.59404387  0.89051007  0.93784846  1  -0.042585  0  -0.084497  -0.120264  0  3.972673  0
C  C129  1  0.55334579  0.95684133  0.95219922  1  -0.254553  0  -0.042939  -0.09698  0  4.136738  0
C  C130  1  0.52891744  0.97791958  0.97387171  1  -0.043108  0  -0.042045  -0.112743  0  3.963277  0
C  C131  1  0.41884820  0.07613230  0.92729296  1  0.076315  0  -0.005738  0.131593  0  4.121472  0
C  C132  1  0.40112551  0.11512640  0.94176189  1  -0.060207  0  -0.084137  -0.121204  0  3.970057  0
C  C133  1  0.37042651  0.13685416  0.91834434  1  -0.033823  0  -0.094774  -0.136377  0  4.00308  0
C  C134  1  0.35617810  0.12094456  0.87956348  1  -0.00233  0  -0.008207  0.08771  0  4.046739  0
C  C135  1  0.37504162  0.08266843  0.86471598  1  -0.032447  0  -0.094757  -0.136296  0  4.003007  0
C  C136  1  0.40560702  0.06057585  0.88799034  1  -0.019038  0  -0.084106  -0.122082  0  3.971424  0
C  C137  1  0.44819315  0.05240454  0.95217236  1  -0.378442  0  -0.043882  -0.098885  0  4.138437  0
C  C138  1  0.47232152  0.03135760  0.97390726  1  0.080804  0  -0.042195  -0.112545  0  3.963225  0
C  C139  1  0.58007584  0.07750185  0.07434067  1  0.116497  0  -0.005257  0.131092  0  4.121425  0
C  C140  1  0.59305582  0.06259618  0.11389255  1  -0.031328  0  -0.083731  -0.119903  0  3.968567  0
C  C141  1  0.62286246  0.08521561  0.13745495  1  -0.008297  0  -0.094993  -0.137802  0  4.004018  0
C  C142  1  0.64120545  0.12339803  0.12270598  1  0.009453  0  -0.007829  0.088876  0  4.045762  0
C  C143  1  0.62735601  0.13856982  0.08359436  1  0.003472  0  -0.094673  -0.136801  0  4.002719  0
C  C144  1  0.59740590  0.11631282  0.05986419  1  -0.089092  0  -0.084479  -0.121491  0  3.970937  0
C  C145  1  0.55130118  0.05339954  0.04929274  1  -0.519678  0  -0.043765  -0.097802  0  4.136245  0
C  C146  1  0.52763942  0.03198938  0.02748815  1  0.216258  0  -0.042301  -0.113637  0  3.963829  0
C  C147  1  0.42107659  0.93030972  0.07281259  1  0.171092  0  -0.005873  0.131726  0  4.121411  0
C  C148  1  0.41133461  0.88783225  0.06147102  1  -0.022676  0  -0.085175  -0.12319  0  3.972677  0
C  C149  1  0.38127369  0.86456527  0.08401249  1  -0.090785  0  -0.094389  -0.136069  0  4.003642  0
C  C150  1  0.35941437  0.88253400  0.11853448  1  0.02824  0  -0.007831  0.088725  0  4.046304  0
C  C151  1  0.37028305  0.92453578  0.13043084  1  -0.033716  0  -0.09477  -0.136512  0  4.003581  0
C  C152  1  0.40044986  0.94799402  0.10823671  1  -0.091771  0  -0.083823  -0.121046  0  3.971244  0
C  C153  1  0.44975921  0.95514961  0.04848286  1  -0.065549  0  -0.043158  -0.098976  0  4.137637  0
C  C154  1  0.47313266  0.97708508  0.02700681  1  -0.238085  0  -0.042501  -0.111784  0  3.963983  0
C  C155  1  0.92869911  0.92413782  0.57744302  1  0.092088  0  -0.005754  0.130857  0  4.123298  0
C  C156  1  0.88720174  0.93747461  0.59037725  1  -0.021357  0  -0.084742  -0.121292  0  3.9728  0
C  C157  1  0.86576225  0.91609151  0.62206806  1  -0.034088  0  -0.095374  -0.137698  0  4.003777  0
C  C158  1  0.88454648  0.88063946  0.64224356  1  0.058374  0  -0.007632  0.088352  0  4.046747  0
C  C159  1  0.92523606  0.86646338  0.62794204  1  -0.09293  0  -0.095162  -0.136751  0  4.004142  0
C  C160  1  0.94696800  0.88763094  0.59631780  1  0.003134  0  -0.084004  -0.120885  0  3.970372  0
C  C161  1  0.95247379  0.94793955  0.54777738  1  -0.267409  0  -0.043043  -0.097563  0  4.137246  0
C  C162  1  0.97404885  0.96929164  0.52408216  1  -0.056687  0  -0.042531  -0.113159  0  3.961348  0
C  C163  1  0.07658786  0.92341485  0.41857817  1  0.194764  0  -0.006037  0.129167  0  4.124515  0
C  C164  1  0.06130042  0.88384811  0.40354682  1  -0.024759  0  -0.084436  -0.121751  0  3.971906  0
C  C165  1  0.08393408  0.86138853  0.37299455  1  -0.128284  0  -0.094397  -0.135041  0  4.001877  0
C  C166  1  0.12264902  0.87718051  0.35604515  1  0.085613  0  -0.008125  0.08729  0  4.047941  0
C  C167  1  0.13845955  0.91599278  0.37225112  1  -0.100896  0  -0.095099  -0.137619  0  4.003454  0
C  C168  1  0.11606469  0.93872572  0.40278961  1  -0.033439  0  -0.084427  -0.120417  0  3.971689  0
C  C169  1  0.05194592  0.94792430  0.44751024  1  -0.223111  0  -0.043414  -0.096671  0  4.135637  0
C  C170  1  0.02971244  0.96950220  0.47086880  1  -0.073897  0  -0.04229  -0.11375  0  3.963528  0
C  C171  1  0.07187923  0.06995113  0.57930725  1  0.040694  0  -0.005555  0.128585  0  4.125789  0
C  C172  1  0.05258090  0.10603136  0.59843580  1  -0.028054  0  -0.084288  -0.119792  0  3.969707  0
C  C173  1  0.07374765  0.12787466  0.63010830  1  0.022698  0  -0.094798  -0.13672  0  4.001936  0
C  C174  1  0.11485103  0.11488148  0.64411265  1  -0.022884  0  -0.007761  0.087974  0  4.046483  0
C  C175  1  0.13459403  0.07985536  0.62371120  1  -0.096513  0  -0.095381  -0.138335  0  4.004918  0
C  C176  1  0.11370646  0.05775232  0.59203052  1  0.028022  0  -0.084345  -0.119666  0  3.973635  0
C  C177  1  0.04894684  0.04555300  0.54934471  1  -0.223509  0  -0.043685  -0.097526  0  4.136997  0
C  C178  1  0.02824293  0.02374781  0.52520256  1  -0.07664  0  -0.042133  -0.112541  0  3.962912  0
C  C179  1  0.92938492  0.07093513  0.41828192  1  0.13712  0  -0.005899  0.130152  0  4.123934  0
C  C180  1  0.94825244  0.10664039  0.39885306  1  -0.04105  0  -0.083799  -0.119705  0  3.970776  0
C  C181  1  0.92609920  0.12908688  0.36826343  1  -0.06485  0  -0.094346  -0.136111  0  4.003517  0
C  C182  1  0.88438147  0.11703152  0.35556715  1  -0.009402  0  -0.007942  0.087915  0  4.047204  0
C  C183  1  0.86512942  0.08232386  0.37624381  1  0.033018  0  -0.094471  -0.136862  0  4.003917  0
C  C184  1  0.88698690  0.05967179  0.40690568  1  -0.095359  0  -0.084858  -0.121276  0  3.973393  0
C  C185  1  0.95321706  0.04607020  0.44722049  1  -0.222241  0  -0.043377  -0.098208  0  4.13772  0
C  C186  1  0.97453954  0.02394297  0.47059724  1  -0.066271  0  -0.042503  -0.112656  0  3.963863  0
C  C187  1  0.92443322  0.58154474  0.92790447  1  0.216877  0  -0.005872  0.130116  0  4.124522  0
C  C188  1  0.88379244  0.59735170  0.94077202  1  -0.12626  0  -0.08462  -0.121476  0  3.972129  0
C  C189  1  0.86252854  0.62843028  0.91762371  1  -0.019184  0  -0.094307  -0.135456  0  4.003378  0
C  C190  1  0.88060156  0.64494221  0.88072309  1  0.035385  0  -0.008013  0.087288  0  4.048409  0
C  C191  1  0.92052599  0.62793135  0.86734506  1  -0.021916  0  -0.094685  -0.136494  0  4.005872  0
C  C192  1  0.94215826  0.59701297  0.89035461  1  -0.158954  0  -0.084488  -0.121378  0  3.970625  0
C  C193  1  0.94781861  0.55203330  0.95274820  1  -0.083645  0  -0.043872  -0.098584  0  4.138155  0
C  C194  1  0.96886553  0.52805658  0.97457741  1  -0.228091  0  -0.041483  -0.111765  0  3.962669  0
C  C195  1  0.92436444  0.42088803  0.07545588  1  0.06191  0  -0.005448  0.13018  0  4.122687  0
C  C196  1  0.88279253  0.40726823  0.06373080  1  -0.020427  0  -0.084214  -0.120798  0  3.971643  0
C  C197  1  0.86133310  0.37647603  0.08681755  1  0.00763  0  -0.094914  -0.137057  0  4.004677  0
C  C198  1  0.88007158  0.35810349  0.12258561  1  -0.043875  0  -0.007361  0.089692  0  4.046406  0
C  C199  1  0.92094351  0.37300609  0.13494313  1  -0.036087  0  -0.095076  -0.138794  0  4.005783  0
C  C200  1  0.94278569  0.40359630  0.11195091  1  -0.010803  0  -0.083956  -0.118643  0  3.970054  0
C  C201  1  0.94785234  0.44995085  0.05041943  1  -0.390229  0  -0.044064  -0.099545  0  4.138439  0
C  C202  1  0.96890973  0.47348141  0.02833125  1  0.125697  0  -0.041911  -0.111506  0  3.963156  0
C  C203  1  0.07219986  0.57979964  0.07171623  1  0.104532  0  -0.005811  0.130476  0  4.122159  0
C  C204  1  0.06245712  0.58895267  0.11384788  1  -0.010694  0  -0.084493  -0.122217  0  3.972051  0
C  C205  1  0.08607932  0.61914075  0.13587888  1  -0.090051  0  -0.094582  -0.136507  0  4.002659  0
C  C206  1  0.12017852  0.64161301  0.11702223  1  -0.027862  0  -0.007525  0.089096  0  4.044327  0
C  C207  1  0.13050248  0.63135585  0.07530483  1  -0.029818  0  -0.094768  -0.13723  0  4.004018  0
C  C208  1  0.10720560  0.60112062  0.05303259  1  0.01389  0  -0.084564  -0.120379  0  3.970364  0
C  C209  1  0.04671326  0.55097304  0.04812256  1  -0.402664  0  -0.043338  -0.097827  0  4.136338  0
C  C210  1  0.02428883  0.52752961  0.02710424  1  0.091857  0  -0.041988  -0.112787  0  3.963813  0
C  C211  1  0.06724529  0.41779441  0.92767424  1  0.105729  0  -0.005896  0.130113  0  4.124266  0
C  C212  1  0.10877494  0.40397533  0.93975463  1  -0.030898  0  -0.084713  -0.121609  0  3.972049  0
C  C213  1  0.13061453  0.37285382  0.91681250  1  -0.01452  0  -0.094439  -0.136531  0  4.003449  0
C  C214  1  0.11227133  0.35429850  0.88088406  1  0.006384  0  -0.00789  0.089548  0  4.045418  0
C  C215  1  0.07134754  0.36923566  0.86828922  1  -0.122516  0  -0.094848  -0.138763  0  4.005401  0
C  C216  1  0.04913600  0.40018850  0.89113409  1  -0.014874  0  -0.08409  -0.11987  0  3.969559  0
C  C217  1  0.04364554  0.44759372  0.95236802  1  -0.220974  0  -0.043609  -0.098321  0  4.138034  0
C  C218  1  0.02268311  0.47196142  0.97415096  1  -0.075298  0  -0.041886  -0.112073  0  3.96415  0
N  N219  1  0.72673449  0.81293217  0.83643203  1  -0.791119  0  -0.337806  -0.139924  0  3.768389  0
N  N220  1  0.73118694  0.84728545  0.81021891  1  -0.782413  0  -0.337664  -0.137509  0  3.770994  0
N  N221  1  0.81644342  0.84621343  0.72977165  1  -0.767592  0  -0.337821  -0.137989  0  3.771317  0
N  N222  1  0.85024069  0.81777691  0.73297923  1  -0.765192  0  -0.338098  -0.138307  0  3.771367  0
N  N223  1  0.84788872  0.73511270  0.81458301  1  -0.778909  0  -0.33796  -0.138434  0  3.774427  0
N  N224  1  0.81067946  0.72893830  0.83712019  1  -0.777874  0  -0.338355  -0.140268  0  3.766273  0
N  N225  1  0.27158804  0.19079944  0.83638600  1  -0.762408  0  -0.337199  -0.138499  0  3.763614  0
N  N226  1  0.26810583  0.15569606  0.81067013  1  -0.785011  0  -0.337825  -0.138545  0  3.771141  0
N  N227  1  0.18226523  0.15206371  0.73117678  1  -0.770167  0  -0.337736  -0.13943  0  3.77125  0
N  N228  1  0.14751289  0.17934320  0.73477773  1  -0.758498  0  -0.338493  -0.138064  0  3.77367  0
N  N229  1  0.14738161  0.26361272  0.81557496  1  -0.781305  0  -0.337561  -0.137547  0  3.77236  0
N  N230  1  0.18462321  0.27173059  0.83738132  1  -0.758368  0  -0.338374  -0.140013  0  3.768221  0
N  N231  1  0.72340901  0.19457082  0.16712591  1  -0.787758  0  -0.338135  -0.140375  0  3.766752  0
N  N232  1  0.72747422  0.15964795  0.19273449  1  -0.759569  0  -0.338123  -0.138925  0  3.773205  0
N  N233  1  0.81438662  0.15591683  0.27113480  1  -0.775717  0  -0.337854  -0.138945  0  3.77041  0
N  N234  1  0.84915813  0.18261414  0.26688912  1  -0.767948  0  -0.338171  -0.137576  0  3.771629  0
N  N235  1  0.84684775  0.26729961  0.18724526  1  -0.765595  0  -0.337827  -0.137137  0  3.771544  0
N  N236  1  0.80912053  0.27571170  0.16624471  1  -0.760569  0  -0.338095  -0.141058  0  3.767199  0
N  N237  1  0.27406444  0.81092220  0.15568602  1  -0.763219  0  -0.336235  -0.136624  0  3.767442  0
N  N238  1  0.27398623  0.84129196  0.18681213  1  -0.795385  0  -0.338755  -0.140259  0  3.775117  0
N  N239  1  0.19131420  0.83947433  0.26958645  1  -0.796841  0  -0.338507  -0.138222  0  3.77655  0
N  N240  1  0.16016922  0.80840558  0.26975182  1  -0.725339  0  -0.336935  -0.138033  0  3.770075  0
N  N241  1  0.15975284  0.72662628  0.18642118  1  -0.79135  0  -0.337076  -0.137484  0  3.77046  0
N  N242  1  0.19070283  0.72719164  0.15566574  1  -0.773226  0  -0.337555  -0.138799  0  3.773129  0
