# generated using pymatgen
data_TmH12C11O8
_symmetry_space_group_name_H-M   'P 1'
_cell_length_a   5.75338438
_cell_length_b   13.26560914
_cell_length_c   15.51390000
_cell_angle_alpha   94.49910449
_cell_angle_beta   90.00000000
_cell_angle_gamma   90.00000000
_symmetry_Int_Tables_number   1
_chemical_formula_structural   TmH12C11O8
_chemical_formula_sum   'Tm4 H48 C44 O32'
_cell_volume   1180.40558562
_cell_formula_units_Z   4
loop_
 _symmetry_equiv_pos_site_id
 _symmetry_equiv_pos_as_xyz
  1  'x, y, z'
loop_
 _atom_site_type_symbol
 _atom_site_label
 _atom_site_symmetry_multiplicity
 _atom_site_fract_x
 _atom_site_fract_y
 _atom_site_fract_z
 _atom_site_occupancy
 _atom_site_hle17_bader_spin_density
 _atom_site_hle17_ddec_charge
 _atom_site_hle17_ddec_spin_density
 _atom_site_hle17_ddec_sum_bond_order
 _atom_site_hle17_magmom
 _atom_site_hse06_10hf_bader_spin_density
 _atom_site_hse06_10hf_ddec_charge
 _atom_site_hse06_10hf_ddec_spin_density
 _atom_site_hse06_10hf_ddec_sum_bond_order
 _atom_site_hse06_10hf_magmom
 _atom_site_hse06_bader_spin_density
 _atom_site_hse06_ddec_charge
 _atom_site_hse06_ddec_spin_density
 _atom_site_hse06_ddec_sum_bond_order
 _atom_site_hse06_magmom
 _atom_site_pbe_bader_charge
 _atom_site_pbe_bader_spin_density
 _atom_site_pbe_cm5_charge
 _atom_site_pbe_ddec_charge
 _atom_site_pbe_ddec_spin_density
 _atom_site_pbe_ddec_sum_bond_order
 _atom_site_pbe_magmom
Tm  Tm0  1  0.44085704  0.36476051  0.41536881  1  0  2.174884  0  1.721283  0  0  2.097862  0  2.070074  0  0  2.156807  0  2.022725  0  2.175517  0  1.534293  2.060512  0  2.100627  0
Tm  Tm1  1  0.94086361  0.13523677  0.08462975  1  0  2.17484  0  1.721305  0  0  2.097761  0  2.07017  0  0  2.15674  0  2.022765  0  2.175546  0  1.534236  2.060415  0  2.100728  0
Tm  Tm2  1  0.55912830  0.63522875  0.58462989  1  0  2.174809  0  1.721399  0  0  2.097751  0  2.070274  0  0  2.156766  0  2.022809  0  2.175391  0  1.534256  2.060403  0  2.10083  0
Tm  Tm3  1  0.05913910  0.86476913  0.91536813  1  0  2.174808  0  1.721379  0  0  2.097733  0  2.070291  0  0  2.156755  0  2.022813  0  2.175255  0  1.534254  2.060382  0  2.100842  0
H  H4  1  0.87374486  0.28087601  0.33381354  1  0  0.45071  0  0.842151  0  0  0.421017  0  0.902606  0  0  0.433364  0  0.884703  0  0.667815  0  0.305561  0.412966  0  0.914322  0
H  H5  1  0.37374697  0.21912202  0.16618443  1  0  0.450722  0  0.84213  0  0  0.420998  0  0.902648  0  0  0.433347  0  0.88474  0  0.667768  0  0.305524  0.412944  0  0.914372  0
H  H6  1  0.12625091  0.71911703  0.66618477  1  0  0.450706  0  0.842157  0  0  0.420979  0  0.902682  0  0  0.43333  0  0.88477  0  0.667836  0  0.305525  0.412922  0  0.914411  0
H  H7  1  0.62625574  0.78088237  0.83381400  1  0  0.450669  0  0.842194  0  0  0.420957  0  0.90269  0  0  0.433307  0  0.88478  0  0.667821  0  0.305517  0.412902  0  0.914415  0
H  H8  1  0.68870768  0.28534189  0.25714276  1  0  0.450469  0  0.837711  0  0  0.423617  0  0.892939  0  0  0.434743  0  0.876884  0  0.65129  0  0.31085  0.41642  0  0.903409  0
H  H9  1  0.18870980  0.21465766  0.24285660  1  0  0.45046  0  0.837718  0  0  0.423622  0  0.892918  0  0  0.434747  0  0.876866  0  0.651306  0  0.310851  0.416428  0  0.903383  0
H  H10  1  0.31129156  0.71465721  0.74285660  1  0  0.450421  0  0.837777  0  0  0.423588  0  0.89297  0  0  0.434714  0  0.876917  0  0.651266  0  0.310849  0.416393  0  0.903436  0
H  H11  1  0.81129292  0.78534219  0.75714152  1  0  0.450377  0  0.837834  0  0  0.423541  0  0.893034  0  0  0.434668  0  0.876979  0  0.65124  0  0.310829  0.416345  0  0.903501  0
H  H12  1  0.89694859  0.31240028  0.50308137  1  0  0.450221  0  0.824558  0  0  0.428435  0  0.878008  0  0  0.43866  0  0.863313  0  0.645305  0  0.319426  0.421856  0  0.887564  0
H  H13  1  0.39695940  0.18760229  0.99692141  1  0  0.450215  0  0.824687  0  0  0.428466  0  0.878009  0  0  0.438695  0  0.863304  0  0.645208  0  0.319422  0.421884  0  0.887563  0
H  H14  1  0.10304022  0.68759352  0.49691570  1  0  0.450155  0  0.824689  0  0  0.428387  0  0.87809  0  0  0.438612  0  0.863396  0  0.645339  0  0.3194  0.421806  0  0.887647  0
H  H15  1  0.60305375  0.81240361  0.00308227  1  0  0.450248  0  0.824557  0  0  0.428449  0  0.878007  0  0  0.438677  0  0.863307  0  0.645368  0  0.319444  0.421869  0  0.887564  0
H  H16  1  0.79168185  0.41336036  0.53969880  1  0  0.440171  0  0.865551  0  0  0.407849  0  0.932349  0  0  0.419436  0  0.915664  0  0.666812  0  0.304274  0.400228  0  0.943362  0
H  H17  1  0.29169614  0.08664145  0.96030200  1  0  0.440183  0  0.865527  0  0  0.40782  0  0.932382  0  0  0.41941  0  0.915697  0  0.666581  0  0.304263  0.400194  0  0.943403  0
H  H18  1  0.20830522  0.58662966  0.46030317  1  0  0.440166  0  0.865548  0  0  0.407739  0  0.93247  0  0  0.419328  0  0.915785  0  0.666744  0  0.304266  0.400115  0  0.943488  0
H  H19  1  0.70831874  0.91336596  0.03969663  1  0  0.440258  0  0.865425  0  0  0.407827  0  0.932342  0  0  0.419416  0  0.915658  0  0.666786  0  0.304316  0.400207  0  0.943354  0
H  H20  1  0.08819505  0.03613381  0.35377248  1  0  0.117881  0  0.934307  0  0  0.132819  0  0.995354  0  0  0.134135  0  0.996381  0  0.067524  0  0.107511  0.131982  0  0.994555  0
H  H21  1  0.58822074  0.46387103  0.14623303  1  0  0.117849  0  0.934337  0  0  0.132799  0  0.995402  0  0  0.134115  0  0.996432  0  0.067158  0  0.10751  0.131963  0  0.994595  0
H  H22  1  0.91177638  0.96385923  0.64622970  1  0  0.117918  0  0.934124  0  0  0.132789  0  0.995241  0  0  0.134106  0  0.996267  0  0.06734  0  0.107462  0.131954  0  0.994445  0
H  H23  1  0.41178024  0.53613714  0.85377274  1  0  0.117875  0  0.934218  0  0  0.132815  0  0.995284  0  0  0.134132  0  0.996309  0  0.067337  0  0.107487  0.131981  0  0.994487  0
H  H24  1  0.88390757  0.11918502  0.40398636  1  0  0.117406  0  0.919855  0  0  0.133873  0  0.975156  0  0  0.136642  0  0.973185  0  0.085545  0  0.107727  0.132107  0  0.976246  0
H  H25  1  0.38392881  0.38082133  0.09601990  1  0  0.117379  0  0.91983  0  0  0.133866  0  0.975134  0  0  0.136638  0  0.973163  0  0.085694  0  0.107718  0.132074  0  0.976251  0
H  H26  1  0.11607429  0.88081105  0.59601859  1  0  0.117391  0  0.919888  0  0  0.133836  0  0.97519  0  0  0.136605  0  0.973223  0  0.085663  0  0.107711  0.132084  0  0.976267  0
H  H27  1  0.61607912  0.61918684  0.90398072  1  0  0.117359  0  0.919839  0  0  0.133808  0  0.975182  0  0  0.136577  0  0.973213  0  0.085648  0  0.1077  0.132055  0  0.976259  0
H  H28  1  0.21055259  0.52405221  0.15848235  1  0  0.097511  0  0.980864  0  0  0.10624  0  1.049105  0  0  0.109286  0  1.047341  0  0.097179  0  0.106074  0.104033  0  1.050504  0
H  H29  1  0.71054700  0.97594946  0.34151657  1  0  0.097467  0  0.980826  0  0  0.106211  0  1.049058  0  0  0.10925  0  1.047297  0  0.09721  0  0.106077  0.104003  0  1.050459  0
H  H30  1  0.78946750  0.47595445  0.84152332  1  0  0.097447  0  0.98096  0  0  0.106239  0  1.049136  0  0  0.109239  0  1.047424  0  0.097325  0  0.106078  0.104029  0  1.050538  0
H  H31  1  0.28946267  0.02405266  0.65847976  1  0  0.097493  0  0.980787  0  0  0.106264  0  1.048978  0  0  0.109286  0  1.047238  0  0.097362  0  0.106092  0.104054  0  1.050382  0
H  H32  1  0.08765623  0.09770482  0.54906837  1  0  0.061723  0  0.947825  0  0  0.081626  0  1.009125  0  0  0.081836  0  1.010193  0  0.029952  0  0.089692  0.081475  0  1.008384  0
H  H33  1  0.58767150  0.40229549  0.95093620  1  0  0.061786  0  0.947767  0  0  0.081685  0  1.009067  0  0  0.081895  0  1.010135  0  0.030088  0  0.089717  0.081534  0  1.008328  0
H  H34  1  0.91233432  0.90228445  0.45093356  1  0  0.061802  0  0.947783  0  0  0.081701  0  1.009052  0  0  0.081908  0  1.01013  0  0.030066  0  0.089763  0.081549  0  1.00831  0
H  H35  1  0.41232427  0.59771344  0.04906769  1  0  0.061776  0  0.947689  0  0  0.08169  0  1.008949  0  0  0.081897  0  1.010025  0  0.030084  0  0.089751  0.081538  0  1.008208  0
H  H36  1  0.26668825  0.00515474  0.49563192  1  0  0.067387  0  0.945283  0  0  0.086149  0  1.008836  0  0  0.08676  0  1.009388  0  0.036421  0  0.091772  0.08562  0  1.008659  0
H  H37  1  0.76670177  0.49485011  0.00437037  1  0  0.067348  0  0.945426  0  0  0.086138  0  1.008951  0  0  0.086749  0  1.009507  0  0.037036  0  0.091785  0.085607  0  1.008778  0
H  H38  1  0.73329709  0.99483604  0.50436753  1  0  0.067391  0  0.94544  0  0  0.086126  0  1.009005  0  0  0.086729  0  1.009563  0  0.036619  0  0.091815  0.085597  0  1.008826  0
H  H39  1  0.23330616  0.50515731  0.99563083  1  0  0.067363  0  0.945319  0  0  0.086105  0  1.008902  0  0  0.086708  0  1.009464  0  0.036422  0  0.09177  0.085576  0  1.008724  0
H  H40  1  0.61097952  0.71599788  0.13867423  1  0  0.093672  0  0.956071  0  0  0.101959  0  1.02056  0  0  0.105416  0  1.018167  0  0.074072  0  0.102746  0.099602  0  1.022053  0
H  H41  1  0.11096773  0.78400379  0.36132534  1  0  0.093656  0  0.956081  0  0  0.101928  0  1.020585  0  0  0.105395  0  1.018179  0  0.074038  0  0.102724  0.099568  0  1.022086  0
H  H42  1  0.38903884  0.28400500  0.86133183  1  0  0.093627  0  0.956147  0  0  0.102016  0  1.020518  0  0  0.105429  0  1.018177  0  0.074163  0  0.102689  0.099647  0  1.022035  0
H  H43  1  0.88903846  0.21600060  0.63866987  1  0  0.093644  0  0.956134  0  0  0.101945  0  1.020612  0  0  0.105349  0  1.018281  0  0.07405  0  0.102694  0.099581  0  1.022119  0
H  H44  1  0.51368374  0.69186053  0.29076833  1  0  0.094499  0  0.979832  0  0  0.105942  0  1.039524  0  0  0.108017  0  1.040666  0  0.095879  0  0.101236  0.104313  0  1.039181  0
H  H45  1  0.01369107  0.80813509  0.20922761  1  0  0.094492  0  0.979918  0  0  0.105893  0  1.039645  0  0  0.107963  0  1.040786  0  0.095741  0  0.10124  0.104267  0  1.039296  0
H  H46  1  0.48631202  0.30813252  0.70923385  1  0  0.094534  0  0.97985  0  0  0.105951  0  1.03956  0  0  0.108022  0  1.040701  0  0.095758  0  0.101264  0.104322  0  1.039216  0
H  H47  1  0.98631338  0.19187005  0.79076700  1  0  0.09455  0  0.979781  0  0  0.105965  0  1.039496  0  0  0.108036  0  1.040636  0  0.095706  0  0.101284  0.104336  0  1.039153  0
H  H48  1  0.96855340  0.63602121  0.07168051  1  0  0.11035  0  0.96301  0  0  0.11826  0  1.026428  0  0  0.122477  0  1.02357  0  0.125669  0  0.107019  0.115399  0  1.028331  0
H  H49  1  0.46853814  0.86398424  0.42831995  1  0  0.11035  0  0.962973  0  0  0.118265  0  1.026391  0  0  0.122483  0  1.023533  0  0.125692  0  0.10704  0.115401  0  1.028307  0
H  H50  1  0.03146843  0.36398772  0.92832402  1  0  0.110288  0  0.963011  0  0  0.118235  0  1.026418  0  0  0.122453  0  1.023559  0  0.125682  0  0.106976  0.115343  0  1.028365  0
H  H51  1  0.53146805  0.13601637  0.57167629  1  0  0.110308  0  0.962993  0  0  0.118223  0  1.026411  0  0  0.122442  0  1.023552  0  0.125689  0  0.106986  0.11532  0  1.028373  0
C  C52  1  0.15804784  0.48225779  0.32141679  1  0  0.649028  0  3.888423  0  0  0.60067  0  4.184423  0  0  0.635987  0  4.176088  0  1.534304  0  0.198339  0.577373  0  4.189723  0
C  C53  1  0.65806137  0.01773873  0.17858365  1  0  0.649213  0  3.888104  0  0  0.600807  0  4.184144  0  0  0.636123  0  4.175808  0  1.533689  0  0.198393  0.577515  0  4.189442  0
C  C54  1  0.84193749  0.51773601  0.67858737  1  0  0.649207  0  3.887918  0  0  0.600916  0  4.183831  0  0  0.636231  0  4.1755  0  1.532913  0  0.198436  0.577631  0  4.189135  0
C  C55  1  0.34194482  0.98226641  0.82141418  1  0  0.64925  0  3.887954  0  0  0.600903  0  4.183928  0  0  0.636218  0  4.175595  0  1.533203  0  0.198389  0.577604  0  4.189246  0
C  C56  1  0.22613994  0.17698279  0.40012946  1  0  0.716153  0  3.795175  0  0  0.668219  0  4.099594  0  0  0.702354  0  4.091551  0  1.509767  0  0.207868  0.645576  0  4.104868  0
C  C57  1  0.72615520  0.32301675  0.09987247  1  0  0.715943  0  3.795318  0  0  0.668058  0  4.099702  0  0  0.702195  0  4.091666  0  1.509816  0  0.207828  0.645413  0  4.10497  0
C  C58  1  0.77384192  0.82300723  0.59986993  1  0  0.716232  0  3.795235  0  0  0.668355  0  4.099556  0  0  0.702491  0  4.091518  0  1.509962  0  0.207953  0.645712  0  4.104833  0
C  C59  1  0.27384751  0.67698990  0.90012868  1  0  0.716039  0  3.79531  0  0  0.668205  0  4.099605  0  0  0.702339  0  4.091573  0  1.509719  0  0.207896  0.645564  0  4.104879  0
C  C60  1  0.73897896  0.59149025  0.40395035  1  0  0.739284  0  3.828196  0  0  0.690817  0  4.124151  0  0  0.729839  0  4.108483  0  1.596068  0  0.235177  0.665652  0  4.133823  0
C  C61  1  0.23898803  0.90850461  0.09604618  1  0  0.739526  0  3.828136  0  0  0.690883  0  4.124327  0  0  0.729902  0  4.108661  0  1.596144  0  0.235111  0.665708  0  4.133995  0
C  C62  1  0.26100811  0.40849675  0.59605078  1  0  0.73911  0  3.828358  0  0  0.690416  0  4.124616  0  0  0.729435  0  4.108953  0  1.596552  0  0.234951  0.665272  0  4.134241  0
C  C63  1  0.76101990  0.09150204  0.90394853  1  0  0.739235  0  3.828261  0  0  0.69055  0  4.124501  0  0  0.729568  0  4.108841  0  1.595984  0  0.235038  0.665386  0  4.134135  0
C  C64  1  0.81026570  0.59759245  0.31145007  1  0  -0.043822  0  3.684771  0  0  -0.030488  0  3.914872  0  0  -0.031922  0  3.931552  0  -0.052523  0  0.002022  -0.028985  0  3.902546  0
C  C65  1  0.31028172  0.90240014  0.18854695  1  0  -0.044099  0  3.685015  0  0  -0.030752  0  3.915178  0  0  -0.032187  0  3.931859  0  -0.052424  0  0.001951  -0.029196  0  3.902783  0
C  C66  1  0.18972311  0.40239757  0.68855125  1  0  -0.0439  0  3.684927  0  0  -0.030525  0  3.915091  0  0  -0.031959  0  3.931777  0  -0.052321  0  0.002017  -0.028999  0  3.902714  0
C  C67  1  0.68972969  0.09760500  0.81144831  1  0  -0.043847  0  3.684855  0  0  -0.030481  0  3.91502  0  0  -0.031912  0  3.931703  0  -0.052422  0  0.002041  -0.028897  0  3.902564  0
C  C68  1  0.00507180  0.54826140  0.27286764  1  0  -0.081918  0  3.732705  0  0  -0.066248  0  3.962933  0  0  -0.072752  0  3.98324  0  -0.032244  0  -0.01298  -0.06142  0  3.948608  0
C  C69  1  0.50507663  0.95173422  0.22713151  1  0  -0.082001  0  3.732763  0  0  -0.066298  0  3.962967  0  0  -0.072802  0  3.983273  0  -0.031678  0  -0.012975  -0.061487  0  3.948632  0
C  C70  1  0.99493092  0.45173468  0.72713345  1  0  -0.082  0  3.732848  0  0  -0.066325  0  3.963039  0  0  -0.072825  0  3.983336  0  -0.031483  0  -0.012959  -0.061506  0  3.948705  0
C  C71  1  0.49492608  0.04827168  0.77286766  1  0  -0.082071  0  3.732705  0  0  -0.066363  0  3.96289  0  0  -0.072866  0  3.983193  0  -0.032086  0  -0.01301  -0.061555  0  3.948534  0
C  C72  1  0.06215124  0.09073303  0.41035438  1  0  -0.271668  0  3.664225  0  0  -0.305682  0  3.908415  0  0  -0.310452  0  3.914798  0  -0.037467  0  -0.162663  -0.301816  0  3.903023  0
C  C73  1  0.56217172  0.40927105  0.08965043  1  0  -0.271505  0  3.664119  0  0  -0.305601  0  3.908399  0  0  -0.310373  0  3.914786  0  -0.037177  0  -0.162677  -0.301705  0  3.902993  0
C  C74  1  0.93783061  0.90926077  0.58964849  1  0  -0.271637  0  3.664102  0  0  -0.305555  0  3.908154  0  0  -0.310325  0  3.914536  0  -0.037309  0  -0.162616  -0.301708  0  3.902776  0
C  C75  1  0.43783273  0.59073711  0.91035147  1  0  -0.271468  0  3.664027  0  0  -0.305504  0  3.908188  0  0  -0.310273  0  3.914574  0  -0.037261  0  -0.162632  -0.301659  0  3.902809  0
C  C76  1  0.05788071  0.56214750  0.18636263  1  0  -0.056966  0  3.71394  0  0  -0.083549  0  3.964352  0  0  -0.082763  0  3.984244  0  -0.054769  0  -0.077258  -0.083815  0  3.951006  0
C  C77  1  0.55787686  0.93785114  0.31363802  1  0  -0.056873  0  3.713847  0  0  -0.083464  0  3.964265  0  0  -0.08267  0  3.984159  0  -0.054688  0  -0.077254  -0.083728  0  3.950924  0
C  C78  1  0.94212895  0.43785462  0.81364338  1  0  -0.056928  0  3.713929  0  0  -0.083545  0  3.964337  0  0  -0.082722  0  3.984256  0  -0.054861  0  -0.077275  -0.083809  0  3.950987  0
C  C79  1  0.44212933  0.06215098  0.68635832  1  0  -0.056891  0  3.71376  0  0  -0.083518  0  3.96417  0  0  -0.082716  0  3.984086  0  -0.05437  0  -0.077257  -0.083785  0  3.950819  0
C  C80  1  0.09323208  0.03980270  0.49430116  1  0  -0.085  0  3.688744  0  0  -0.127487  0  3.947534  0  0  -0.127766  0  3.962142  0  -0.037533  0  -0.166774  -0.126904  0  3.937087  0
C  C81  1  0.59325256  0.46019912  0.00570286  1  0  -0.085101  0  3.688789  0  0  -0.127574  0  3.947583  0  0  -0.127855  0  3.962193  0  -0.038274  0  -0.166795  -0.126996  0  3.937132  0
C  C82  1  0.90674978  0.96018732  0.50570017  1  0  -0.085349  0  3.689052  0  0  -0.127797  0  3.947804  0  0  -0.128073  0  3.962407  0  -0.007745  0  -0.166945  -0.127212  0  3.937363  0
C  C83  1  0.40675885  0.53981132  0.99429983  1  0  -0.085253  0  3.688663  0  0  -0.127693  0  3.947466  0  0  -0.12797  0  3.962071  0  -0.007563  0  -0.166868  -0.12711  0  3.937029  0
C  C84  1  0.72223229  0.66865552  0.17562532  1  0  -0.051296  0  3.741605  0  0  -0.065447  0  3.994919  0  0  -0.064956  0  4.012718  0  -0.084691  0  -0.080354  -0.065404  0  3.982715  0
C  C85  1  0.22222746  0.83134464  0.32437415  1  0  -0.051311  0  3.741431  0  0  -0.065442  0  3.994732  0  0  -0.064959  0  4.012531  0  -0.084539  0  -0.080324  -0.065399  0  3.98253  0
C  C86  1  0.27778259  0.33134736  0.82438074  1  0  -0.051363  0  3.741804  0  0  -0.065567  0  3.99513  0  0  -0.065044  0  4.012943  0  -0.08488  0  -0.080354  -0.065524  0  3.982918  0
C  C87  1  0.77778221  0.16865899  0.67562101  1  0  -0.051397  0  3.741708  0  0  -0.065542  0  3.995  0  0  -0.065012  0  4.012815  0  -0.084796  0  -0.080389  -0.065499  0  3.982791  0
C  C88  1  0.66758446  0.65579250  0.26164783  1  0  -0.086157  0  3.720026  0  0  -0.108739  0  3.966741  0  0  -0.111841  0  3.988129  0  -0.016154  0  -0.084559  -0.106547  0  3.952329  0
C  C89  1  0.16758832  0.84420388  0.23834686  1  0  -0.086061  0  3.720053  0  0  -0.108584  0  3.966729  0  0  -0.111677  0  3.988114  0  -0.016403  0  -0.084549  -0.106409  0  3.952302  0
C  C90  1  0.33241478  0.34420055  0.73835434  1  0  -0.086072  0  3.720166  0  0  -0.108634  0  3.966896  0  0  -0.111725  0  3.988266  0  -0.016273  0  -0.084536  -0.106453  0  3.952475  0
C  C91  1  0.83241788  0.15580127  0.76164581  1  0  -0.086147  0  3.72011  0  0  -0.108716  0  3.966831  0  0  -0.111807  0  3.988196  0  -0.01614  0  -0.084567  -0.106554  0  3.952398  0
C  C92  1  0.92074502  0.62312567  0.13794888  1  0  -0.071362  0  3.734042  0  0  -0.086138  0  3.988339  0  0  -0.088564  0  4.006749  0  0.006219  0  -0.08394  -0.084559  0  3.975698  0
C  C93  1  0.42073845  0.87687448  0.36204993  1  0  -0.071295  0  3.733934  0  0  -0.086102  0  3.988266  0  0  -0.08853  0  4.006679  0  0.006266  0  -0.083958  -0.084519  0  3.97561  0
C  C94  1  0.07927508  0.37687947  0.86205475  1  0  -0.071257  0  3.734009  0  0  -0.086114  0  3.988374  0  0  -0.088541  0  4.006771  0  0.006148  0  -0.083899  -0.084509  0  3.975727  0
C  C95  1  0.57926948  0.12312612  0.63794630  1  0  -0.071256  0  3.73393  0  0  -0.086032  0  3.988203  0  0  -0.088458  0  4.006595  0  0.006182  0  -0.083873  -0.084421  0  3.975561  0
O  O96  1  0.13128447  0.48033261  0.40428677  1  0  -0.709986  0  2.059811  0  0  -0.656125  0  2.295157  0  0  -0.682714  0  2.286024  0  -1.198257  0  -0.375456  -0.638373  0  2.301333  0
O  O97  1  0.63130321  0.01966467  0.09571114  1  0  -0.710085  0  2.059693  0  0  -0.656118  0  2.294975  0  0  -0.682707  0  2.285834  0  -1.198179  0  -0.375389  -0.63841  0  2.301216  0
O  O98  1  0.86869392  0.51966195  0.59571486  1  0  -0.710022  0  2.059503  0  0  -0.656191  0  2.2948  0  0  -0.682787  0  2.285661  0  -1.198092  0  -0.375469  -0.638453  0  2.300944  0
O  O99  1  0.36870472  0.98033972  0.90428471  1  0  -0.710107  0  2.059559  0  0  -0.656247  0  2.294894  0  0  -0.682846  0  2.285758  0  -1.197976  0  -0.375451  -0.638456  0  2.300975  0
O  O100  1  0.61306177  0.51859350  0.42466749  1  0  -0.776205  0  2.174497  0  0  -0.735238  0  2.438699  0  0  -0.767726  0  2.432504  0  -1.214246  0  -0.410803  -0.715805  0  2.445042  0
O  O101  1  0.11307432  0.98140363  0.07533500  1  0  -0.776226  0  2.174442  0  0  -0.735193  0  2.43873  0  0  -0.767686  0  2.432531  0  -1.21413  0  -0.410711  -0.715763  0  2.445082  0
O  O102  1  0.38691661  0.48139804  0.57533781  1  0  -0.776005  0  2.17451  0  0  -0.734949  0  2.438801  0  0  -0.767443  0  2.432601  0  -1.214337  0  -0.410614  -0.71553  0  2.445132  0
O  O103  1  0.88693014  0.01860076  0.92465827  1  0  -0.776073  0  2.174436  0  0  -0.735027  0  2.438741  0  0  -0.767522  0  2.43254  0  -1.213879  0  -0.410683  -0.715612  0  2.445087  0
O  O104  1  0.78491714  0.66515601  0.45909294  1  0  -0.708254  0  2.007738  0  0  -0.66612  0  2.24984  0  0  -0.693734  0  2.239898  0  -1.195217  0  -0.36639  -0.648133  0  2.256616  0
O  O105  1  0.28492795  0.83484263  0.04090384  1  0  -0.708333  0  2.007822  0  0  -0.666132  0  2.250034  0  0  -0.693747  0  2.240093  0  -1.195356  0  -0.366377  -0.648149  0  2.256818  0
O  O106  1  0.21507862  0.33483250  0.54090635  1  0  -0.708265  0  2.007816  0  0  -0.66604  0  2.250014  0  0  -0.693645  0  2.240072  0  -1.195465  0  -0.366366  -0.648056  0  2.256762  0
O  O107  1  0.71509041  0.16516478  0.95909221  1  0  -0.708303  0  2.007851  0  0  -0.666087  0  2.250083  0  0  -0.693697  0  2.24014  0  -1.195376  0  -0.36639  -0.648094  0  2.256822  0
O  O108  1  0.71812862  0.30772949  0.31845916  1  0  -0.918199  0  1.846917  0  0  -0.883  0  2.043824  0  0  -0.905292  0  2.00982  0  -1.300448  0  -0.659036  -0.869502  0  2.066777  0
O  O109  1  0.21813248  0.19227006  0.18153955  1  0  -0.918182  0  1.846903  0  0  -0.882963  0  2.043807  0  0  -0.90526  0  2.009804  0  -1.300449  0  -0.658991  -0.869464  0  2.066762  0
O  O110  1  0.28186888  0.69226885  0.68154015  1  0  -0.918144  0  1.846939  0  0  -0.882918  0  2.043817  0  0  -0.90522  0  2.009806  0  -1.300506  0  -0.65901  -0.869418  0  2.066773  0
O  O111  1  0.78187371  0.80773206  0.81845808  1  0  -0.918065  0  1.847028  0  0  -0.882836  0  2.04391  0  0  -0.90514  0  2.009899  0  -1.300467  0  -0.658976  -0.86934  0  2.066865  0
O  O112  1  0.74611389  0.34647129  0.50972537  1  0  -0.89619  0  1.859506  0  0  -0.857466  0  2.051329  0  0  -0.880176  0  2.021694  0  -1.287815  0  -0.649137  -0.843175  0  2.071191  0
O  O113  1  0.24612470  0.15353052  0.99027543  1  0  -0.8962  0  1.859604  0  0  -0.857489  0  2.051337  0  0  -0.880207  0  2.021696  0  -1.28748  0  -0.649113  -0.843193  0  2.071213  0
O  O114  1  0.25387492  0.65352024  0.49027542  1  0  -0.896166  0  1.859598  0  0  -0.857351  0  2.051558  0  0  -0.880081  0  2.02193  0  -1.287723  0  -0.649105  -0.843064  0  2.071441  0
O  O115  1  0.75389192  0.84647689  0.00972513  1  0  -0.896313  0  1.859353  0  0  -0.857484  0  2.051411  0  0  -0.880213  0  2.021774  0  -1.287788  0  -0.649218  -0.843198  0  2.071286  0
O  O116  1  0.42555300  0.18312583  0.43339785  1  0  -0.643816  0  1.947027  0  0  -0.604384  0  2.184523  0  0  -0.630771  0  2.177998  0  -1.184149  0  -0.346936  -0.587435  0  2.189406  0
O  O117  1  0.92556827  0.31687372  0.06660280  1  0  -0.643702  0  1.947141  0  0  -0.604271  0  2.184601  0  0  -0.630661  0  2.178076  0  -1.184329  0  -0.346911  -0.587322  0  2.189485  0
O  O118  1  0.57443755  0.81686268  0.56659886  1  0  -0.643899  0  1.947171  0  0  -0.604483  0  2.184637  0  0  -0.630875  0  2.178107  0  -1.184349  0  -0.346995  -0.587536  0  2.189529  0
O  O119  1  0.07443271  0.68313369  0.93339583  1  0  -0.643837  0  1.947045  0  0  -0.604462  0  2.18455  0  0  -0.630854  0  2.178024  0  -1.184296  0  -0.346987  -0.587511  0  2.18943  0
O  O120  1  0.15441346  0.25162703  0.35586367  1  0  -0.775424  0  2.048176  0  0  -0.712344  0  2.274421  0  0  -0.741252  0  2.264676  0  -1.214652  0  -0.388923  -0.693212  0  2.281064  0
O  O121  1  0.65441830  0.24837252  0.14413569  1  0  -0.775404  0  2.04814  0  0  -0.71231  0  2.274357  0  0  -0.741224  0  2.264616  0  -1.214665  0  -0.388911  -0.693174  0  2.281  0
O  O122  1  0.84557535  0.74836451  0.64413647  1  0  -0.77541  0  2.048186  0  0  -0.712372  0  2.274437  0  0  -0.741292  0  2.264692  0  -1.214801  0  -0.38895  -0.693232  0  2.281076  0
O  O123  1  0.34558268  0.75163338  0.85586348  1  0  -0.775319  0  2.048275  0  0  -0.71228  0  2.274494  0  0  -0.741199  0  2.264748  0  -1.214603  0  -0.388898  -0.693149  0  2.281139  0
O  O124  1  0.31454008  0.42817276  0.28320906  1  0  -0.654939  0  1.968428  0  0  -0.616749  0  2.210357  0  0  -0.642932  0  2.204287  0  -1.170201  0  -0.366319  -0.599872  0  2.214818  0
O  O125  1  0.81455013  0.07182225  0.21679322  1  0  -0.65496  0  1.968254  0  0  -0.616796  0  2.210246  0  0  -0.642982  0  2.204174  0  -1.170276  0  -0.366389  -0.599915  0  2.214704  0
O  O126  1  0.68544004  0.57181802  0.71679426  1  0  -0.654957  0  1.968179  0  0  -0.616823  0  2.210095  0  0  -0.643009  0  2.204016  0  -1.169566  0  -0.366376  -0.599945  0  2.21455  0
O  O127  1  0.18545258  0.92818138  0.78320580  1  0  -0.654973  0  1.968199  0  0  -0.616806  0  2.21012  0  0  -0.642993  0  2.204043  0  -1.169805  0  -0.366355  -0.599932  0  2.214586  0
