# generated using pymatgen
data_NaH5C5N2O5
_symmetry_space_group_name_H-M   'P 1'
_cell_length_a   3.62738947
_cell_length_b   13.73616245
_cell_length_c   14.63397905
_cell_angle_alpha   90.00010203
_cell_angle_beta   95.72805973
_cell_angle_gamma   90.00041630
_symmetry_Int_Tables_number   1
_chemical_formula_structural   NaH5C5N2O5
_chemical_formula_sum   'Na4 H20 C20 N8 O20'
_cell_volume   725.51782706
_cell_formula_units_Z   4
loop_
 _symmetry_equiv_pos_site_id
 _symmetry_equiv_pos_as_xyz
  1  'x, y, z'
loop_
 _atom_site_type_symbol
 _atom_site_label
 _atom_site_symmetry_multiplicity
 _atom_site_fract_x
 _atom_site_fract_y
 _atom_site_fract_z
 _atom_site_occupancy
 _atom_site_hle17_bader_spin_density
 _atom_site_hle17_ddec_charge
 _atom_site_hle17_ddec_spin_density
 _atom_site_hle17_ddec_sum_bond_order
 _atom_site_hle17_magmom
 _atom_site_hse06_10hf_bader_spin_density
 _atom_site_hse06_10hf_ddec_charge
 _atom_site_hse06_10hf_ddec_spin_density
 _atom_site_hse06_10hf_ddec_sum_bond_order
 _atom_site_hse06_10hf_magmom
 _atom_site_hse06_bader_spin_density
 _atom_site_hse06_ddec_charge
 _atom_site_hse06_ddec_spin_density
 _atom_site_hse06_ddec_sum_bond_order
 _atom_site_hse06_magmom
 _atom_site_pbe_bader_spin_density
 _atom_site_pbe_cm5_charge
 _atom_site_pbe_ddec_charge
 _atom_site_pbe_ddec_spin_density
 _atom_site_pbe_ddec_sum_bond_order
 _atom_site_pbe_magmom
Na  Na0  1  0.73003877  0.12333588  0.11503989  1  0  0.888827  0  0.396477  0  0  0.833818  0  0.56187  0  0  0.845399  0  0.538991  0  0  0.68796  0.825405  0  0.578142  0
Na  Na1  1  0.26995104  0.62333848  0.38495927  1  0  0.888819  0  0.396489  0  0  0.833825  0  0.561855  0  0  0.845405  0  0.538977  0  0  0.687953  0.825413  0  0.578131  0
Na  Na2  1  0.26997381  0.87666296  0.88496045  1  0  0.88885  0  0.396456  0  0  0.833839  0  0.561854  0  0  0.845415  0  0.538974  0  0  0.687962  0.825434  0  0.578131  0
Na  Na3  1  0.73005049  0.37666109  0.61504286  1  0  0.888822  0  0.396503  0  0  0.833798  0  0.561897  0  0  0.845392  0  0.539019  0  0  0.687969  0.825392  0  0.578177  0
H  H4  1  0.13171944  0.23280316  0.01173250  1  0  0.422093  0  0.873832  0  0  0.390893  0  0.938386  0  0  0.401823  0  0.921999  0  0  0.291414  0.383088  0  0.950081  0
H  H5  1  0.86827613  0.73280352  0.48827110  1  0  0.42216  0  0.873756  0  0  0.390926  0  0.938358  0  0  0.401862  0  0.921967  0  0  0.291442  0.383113  0  0.950053  0
H  H6  1  0.86828761  0.76719714  0.98826840  1  0  0.422145  0  0.87378  0  0  0.390909  0  0.938391  0  0  0.401844  0  0.922002  0  0  0.29146  0.383103  0  0.950073  0
H  H7  1  0.13172818  0.26719823  0.51173178  1  0  0.422154  0  0.873749  0  0  0.390955  0  0.938298  0  0  0.401886  0  0.921909  0  0  0.29143  0.383146  0  0.949991  0
H  H8  1  0.23573704  0.13260147  0.96206106  1  0  0.428465  0  0.870868  0  0  0.398552  0  0.932588  0  0  0.409524  0  0.91633  0  0  0.292547  0.390756  0  0.94414  0
H  H9  1  0.76425019  0.63260008  0.53793752  1  0  0.42851  0  0.870807  0  0  0.398597  0  0.932525  0  0  0.409569  0  0.916265  0  0  0.292588  0.390799  0  0.944078  0
H  H10  1  0.76427000  0.86739882  0.03793984  1  0  0.428381  0  0.870977  0  0  0.398527  0  0.932587  0  0  0.409493  0  0.91634  0  0  0.292563  0.39073  0  0.944139  0
H  H11  1  0.23574857  0.36740240  0.46206454  1  0  0.428491  0  0.870842  0  0  0.398558  0  0.932594  0  0  0.409531  0  0.916334  0  0  0.292543  0.390759  0  0.944149  0
H  H12  1  0.71046555  0.69363710  0.15535526  1  0  0.101775  0  0.946695  0  0  0.110723  0  1.006098  0  0  0.114319  0  1.001906  0  0  0.140683  0.108051  0  1.009182  0
H  H13  1  0.28952055  0.19363912  0.34464052  1  0  0.101761  0  0.946744  0  0  0.110677  0  1.006176  0  0  0.114272  0  1.001984  0  0  0.140682  0.108006  0  1.009256  0
H  H14  1  0.28952762  0.30636101  0.84464394  1  0  0.101761  0  0.946725  0  0  0.11068  0  1.006158  0  0  0.114274  0  1.001966  0  0  0.140675  0.108009  0  1.00924  0
H  H15  1  0.71046710  0.80636190  0.65535923  1  0  0.101783  0  0.946764  0  0  0.110691  0  1.006206  0  0  0.114289  0  1.002007  0  0  0.140673  0.108022  0  1.009288  0
H  H16  1  0.70967234  0.30523904  0.24449342  1  0  0.387287  0  0.926462  0  0  0.35506  0  1.006295  0  0  0.368191  0  0.990381  0  0  0.297104  0.345959  0  1.014576  0
H  H17  1  0.29032240  0.80523926  0.25551028  1  0  0.387376  0  0.9264  0  0  0.35515  0  1.006235  0  0  0.368281  0  0.99027  0  0  0.297152  0.346048  0  1.014515  0
H  H18  1  0.29034023  0.69475980  0.75550623  1  0  0.387272  0  0.926514  0  0  0.355089  0  1.006253  0  0  0.368221  0  0.990335  0  0  0.297097  0.345991  0  1.014535  0
H  H19  1  0.70968467  0.19476322  0.74449199  1  0  0.387365  0  0.92639  0  0  0.355135  0  1.006235  0  0  0.368265  0  0.990291  0  0  0.297147  0.346035  0  1.014515  0
H  H20  1  0.90378191  0.56061824  0.05162840  1  0  0.318744  0  0.916497  0  0  0.292544  0  0.988712  0  0  0.302597  0  0.979627  0  0  0.311212  0.285455  0  0.995138  0
H  H21  1  0.09620617  0.06062224  0.44836787  1  0  0.318764  0  0.916484  0  0  0.292626  0  0.988625  0  0  0.302679  0  0.979536  0  0  0.311242  0.28553  0  0.995052  0
H  H22  1  0.09620848  0.43938059  0.94837004  1  0  0.318732  0  0.916515  0  0  0.292588  0  0.988666  0  0  0.302641  0  0.979583  0  0  0.311225  0.285493  0  0.995096  0
H  H23  1  0.90378975  0.93937805  0.55163002  1  0  0.318738  0  0.916524  0  0  0.292586  0  0.988683  0  0  0.302638  0  0.979596  0  0  0.311215  0.285491  0  0.995108  0
C  C24  1  0.77405600  0.45761418  0.15722891  1  0  -0.007167  0  3.702303  0  0  -0.023557  0  3.965528  0  0  -0.025493  0  3.985947  0  0  0.083239  -0.022345  0  3.951935  0
C  C25  1  0.22591785  0.95761589  0.34277114  1  0  -0.007241  0  3.702583  0  0  -0.023608  0  3.965781  0  0  -0.02555  0  3.986204  0  0  0.083234  -0.022391  0  3.952183  0
C  C26  1  0.22592614  0.54238465  0.84277276  1  0  -0.007217  0  3.702497  0  0  -0.023576  0  3.965689  0  0  -0.025522  0  3.986115  0  0  0.083263  -0.022361  0  3.95209  0
C  C27  1  0.77407531  0.04238731  0.65722669  1  0  -0.007134  0  3.702388  0  0  -0.023524  0  3.965582  0  0  -0.025463  0  3.986002  0  0  0.083291  -0.022302  0  3.951978  0
C  C28  1  0.53488659  0.41645485  0.31601779  1  0  0.64697  0  3.878879  0  0  0.589752  0  4.190156  0  0  0.623645  0  4.180881  0  0  0.230299  0.566768  0  4.195898  0
C  C29  1  0.46511381  0.91645238  0.18397941  1  0  0.646953  0  3.879022  0  0  0.5897  0  4.19037  0  0  0.623591  0  4.181092  0  0  0.230292  0.56672  0  4.196116  0
C  C30  1  0.46511489  0.58354399  0.68398092  1  0  0.646732  0  3.879204  0  0  0.589449  0  4.190592  0  0  0.623345  0  4.181319  0  0  0.230202  0.566469  0  4.196328  0
C  C31  1  0.53488487  0.08355009  0.81601719  1  0  0.647016  0  3.878918  0  0  0.589698  0  4.190346  0  0  0.623589  0  4.181068  0  0  0.230244  0.566719  0  4.196087  0
C  C32  1  0.70874689  0.61668403  0.17216615  1  0  0.261847  0  3.635764  0  0  0.200922  0  3.922317  0  0  0.214247  0  3.930961  0  0  0.16015  0.192362  0  3.916164  0
C  C33  1  0.29124269  0.11668675  0.32782958  1  0  0.261871  0  3.635778  0  0  0.200981  0  3.922321  0  0  0.21431  0  3.930954  0  0  0.16017  0.192422  0  3.916164  0
C  C34  1  0.29124905  0.38331335  0.82783311  1  0  0.261832  0  3.635863  0  0  0.200942  0  3.922403  0  0  0.214268  0  3.93104  0  0  0.160178  0.192382  0  3.916248  0
C  C35  1  0.70875601  0.88331500  0.67216838  1  0  0.261857  0  3.63584  0  0  0.200965  0  3.922362  0  0  0.214293  0  3.931001  0  0  0.160171  0.192403  0  3.916208  0
C  C36  1  0.63962401  0.48015535  0.24139136  1  0  -0.03686  0  3.814246  0  0  -0.037821  0  4.079431  0  0  -0.041733  0  4.101107  0  0  0.074082  -0.035182  0  4.064902  0
C  C37  1  0.36036707  0.98015645  0.25860983  1  0  -0.036965  0  3.814369  0  0  -0.037904  0  4.079533  0  0  -0.041811  0  4.101208  0  0  0.074006  -0.03527  0  4.065004  0
C  C38  1  0.36036918  0.51984203  0.75860852  1  0  -0.036817  0  3.81417  0  0  -0.037772  0  4.079363  0  0  -0.04168  0  4.101035  0  0  0.074068  -0.035138  0  4.064835  0
C  C39  1  0.63962608  0.01984602  0.74138800  1  0  -0.036841  0  3.814194  0  0  -0.037777  0  4.079401  0  0  -0.041684  0  4.101077  0  0  0.074086  -0.035144  0  4.06487  0
C  C40  1  0.86968591  0.36421188  0.11521286  1  0  0.645653  0  3.936234  0  0  0.590948  0  4.246254  0  0  0.624686  0  4.237965  0  0  0.218874  0.568125  0  4.251239  0
C  C41  1  0.13031591  0.86421711  0.38478769  1  0  0.645582  0  3.936324  0  0  0.590846  0  4.246366  0  0  0.624584  0  4.238072  0  0  0.218778  0.568025  0  4.251348  0
C  C42  1  0.13031560  0.63578331  0.88478790  1  0  0.645517  0  3.936363  0  0  0.590809  0  4.246376  0  0  0.624548  0  4.238087  0  0  0.218754  0.56799  0  4.251358  0
C  C43  1  0.86969113  0.13578464  0.61521252  1  0  0.645489  0  3.93625  0  0  0.590837  0  4.246194  0  0  0.624573  0  4.237902  0  0  0.218772  0.568014  0  4.251172  0
N  N44  1  0.60217639  0.57956227  0.24931481  1  0  -0.446956  0  3.071781  0  0  -0.416302  0  3.363191  0  0  -0.427626  0  3.375272  0  0  -0.402008  -0.40864  0  3.354895  0
N  N45  1  0.39780390  0.07956288  0.25068199  1  0  -0.446921  0  3.071934  0  0  -0.416266  0  3.363295  0  0  -0.427598  0  3.375393  0  0  -0.401949  -0.408606  0  3.355002  0
N  N46  1  0.39781680  0.42043511  0.75068507  1  0  -0.446879  0  3.071855  0  0  -0.41621  0  3.363205  0  0  -0.427549  0  3.375318  0  0  -0.401953  -0.408549  0  3.354912  0
N  N47  1  0.60218371  0.92043959  0.74931570  1  0  -0.446986  0  3.071815  0  0  -0.416337  0  3.363216  0  0  -0.427655  0  3.375277  0  0  -0.401988  -0.408689  0  3.354961  0
N  N48  1  0.81090197  0.54601296  0.11521009  1  0  -0.289004  0  3.421181  0  0  -0.227681  0  3.663376  0  0  -0.243586  0  3.677984  0  0  -0.365638  -0.217063  0  3.653518  0
N  N49  1  0.18908851  0.04601776  0.38478690  1  0  -0.288922  0  3.421246  0  0  -0.227675  0  3.663389  0  0  -0.24357  0  3.677984  0  0  -0.365681  -0.217054  0  3.653532  0
N  N50  1  0.18908842  0.45398514  0.88478767  1  0  -0.288956  0  3.421429  0  0  -0.227699  0  3.663555  0  0  -0.243601  0  3.678166  0  0  -0.365693  -0.217074  0  3.653692  0
N  N51  1  0.81090742  0.95398544  0.61521099  1  0  -0.288985  0  3.421354  0  0  -0.22771  0  3.663489  0  0  -0.243615  0  3.678101  0  0  -0.36567  -0.217081  0  3.653619  0
O  O52  1  0.83162210  0.28689772  0.16308555  1  0  -0.628763  0  2.034921  0  0  -0.573665  0  2.27039  0  0  -0.598492  0  2.258758  0  0  -0.360676  -0.556513  0  2.277032  0
O  O53  1  0.16836106  0.78689857  0.33691716  1  0  -0.628728  0  2.034867  0  0  -0.573635  0  2.270358  0  0  -0.598459  0  2.258709  0  0  -0.36064  -0.556484  0  2.277002  0
O  O54  1  0.16838498  0.71310112  0.83691740  1  0  -0.628711  0  2.034874  0  0  -0.573652  0  2.270316  0  0  -0.598477  0  2.25868  0  0  -0.360629  -0.556501  0  2.276962  0
O  O55  1  0.83164600  0.21310245  0.66308442  1  0  -0.628698  0  2.03487  0  0  -0.573628  0  2.270335  0  0  -0.598453  0  2.258696  0  0  -0.360646  -0.556476  0  2.276979  0
O  O56  1  0.38348533  0.45160140  0.38162214  1  0  -0.603406  0  1.958305  0  0  -0.55086  0  2.179437  0  0  -0.572314  0  2.167943  0  0  -0.325282  -0.536021  0  2.18699  0
O  O57  1  0.61651052  0.95159766  0.11837911  1  0  -0.60331  0  1.958463  0  0  -0.550796  0  2.179622  0  0  -0.572245  0  2.168128  0  0  -0.325272  -0.535966  0  2.187182  0
O  O58  1  0.61650230  0.54839744  0.61837693  1  0  -0.603222  0  1.958425  0  0  -0.550664  0  2.179586  0  0  -0.572114  0  2.168086  0  0  -0.325217  -0.535828  0  2.187135  0
O  O59  1  0.38347711  0.04840263  0.88161995  1  0  -0.603442  0  1.958284  0  0  -0.550859  0  2.179449  0  0  -0.57232  0  2.167968  0  0  -0.325278  -0.536025  0  2.187006  0
O  O60  1  0.98674895  0.36350213  0.03681467  1  0  -0.607193  0  1.965314  0  0  -0.552479  0  2.187116  0  0  -0.575494  0  2.176374  0  0  -0.302498  -0.536462  0  2.194024  0
O  O61  1  0.01324456  0.86350799  0.46318705  1  0  -0.607207  0  1.965325  0  0  -0.552421  0  2.187067  0  0  -0.57545  0  2.176375  0  0  -0.302454  -0.536407  0  2.193964  0
O  O62  1  0.01324149  0.63649307  0.96318651  1  0  -0.607152  0  1.965291  0  0  -0.552389  0  2.187067  0  0  -0.575404  0  2.176342  0  0  -0.302447  -0.536382  0  2.193963  0
O  O63  1  0.98676243  0.13649376  0.53680974  1  0  -0.607191  0  1.965176  0  0  -0.552469  0  2.186902  0  0  -0.575498  0  2.176206  0  0  -0.302484  -0.536451  0  2.193798  0
O  O64  1  0.18750125  0.16307123  0.02112941  1  0  -0.93295  0  1.793458  0  0  -0.886355  0  1.972497  0  0  -0.90173  0  1.935453  0  0  -0.717454  -0.875456  0  1.998573  0
O  O65  1  0.81249240  0.66307365  0.47887059  1  0  -0.933047  0  1.793316  0  0  -0.886439  0  1.97241  0  0  -0.901823  0  1.935345  0  0  -0.717513  -0.875537  0  1.998557  0
O  O66  1  0.81251132  0.83692688  0.97887025  1  0  -0.932951  0  1.79352  0  0  -0.886347  0  1.972568  0  0  -0.901729  0  1.935506  0  0  -0.717516  -0.875441  0  1.998693  0
O  O67  1  0.18750912  0.33693101  0.52113085  1  0  -0.933023  0  1.79335  0  0  -0.886406  0  1.972396  0  0  -0.901789  0  1.935362  0  0  -0.717466  -0.875519  0  1.998539  0
O  O68  1  0.60096591  0.32305764  0.31032826  1  0  -0.549376  0  2.096848  0  0  -0.494521  0  2.318685  0  0  -0.517985  0  2.303519  0  0  -0.314009  -0.47831  0  2.326996  0
O  O69  1  0.39903761  0.82305578  0.18967500  1  0  -0.549424  0  2.096893  0  0  -0.494584  0  2.318788  0  0  -0.518046  0  2.303592  0  0  -0.314039  -0.478373  0  2.327102  0
O  O70  1  0.39903837  0.67694046  0.68967257  1  0  -0.549318  0  2.097033  0  0  -0.494461  0  2.318843  0  0  -0.51793  0  2.303676  0  0  -0.313994  -0.478251  0  2.327155  0
O  O71  1  0.60096946  0.17694597  0.81032726  1  0  -0.549429  0  2.09694  0  0  -0.494544  0  2.318822  0  0  -0.518001  0  2.303637  0  0  -0.313999  -0.478335  0  2.327135  0
