# generated using pymatgen
data_SmH6C6(NO4)2
_symmetry_space_group_name_H-M   'P 1'
_cell_length_a   7.59536658
_cell_length_b   7.99096265
_cell_length_c   17.23260319
_cell_angle_alpha   90.00001859
_cell_angle_beta   89.99975903
_cell_angle_gamma   108.24772482
_symmetry_Int_Tables_number   1
_chemical_formula_structural   SmH6C6(NO4)2
_chemical_formula_sum   'Sm4 H24 C24 N8 O32'
_cell_volume   993.32291151
_cell_formula_units_Z   4
loop_
 _symmetry_equiv_pos_site_id
 _symmetry_equiv_pos_as_xyz
  1  'x, y, z'
loop_
 _atom_site_type_symbol
 _atom_site_label
 _atom_site_symmetry_multiplicity
 _atom_site_fract_x
 _atom_site_fract_y
 _atom_site_fract_z
 _atom_site_occupancy
 _atom_site_hle17_bader_spin_density
 _atom_site_hle17_ddec_charge
 _atom_site_hle17_ddec_spin_density
 _atom_site_hle17_ddec_sum_bond_order
 _atom_site_hle17_magmom
 _atom_site_hse06_10hf_bader_spin_density
 _atom_site_hse06_10hf_ddec_charge
 _atom_site_hse06_10hf_ddec_spin_density
 _atom_site_hse06_10hf_ddec_sum_bond_order
 _atom_site_hse06_10hf_magmom
 _atom_site_hse06_bader_spin_density
 _atom_site_hse06_ddec_charge
 _atom_site_hse06_ddec_spin_density
 _atom_site_hse06_ddec_sum_bond_order
 _atom_site_hse06_magmom
 _atom_site_pbe_bader_spin_density
 _atom_site_pbe_cm5_charge
 _atom_site_pbe_ddec_charge
 _atom_site_pbe_ddec_spin_density
 _atom_site_pbe_ddec_sum_bond_order
 _atom_site_pbe_magmom
Sm  Sm0  1  0.31439957  0.26063079  0.91498859  1  0  2.267975  0  1.612073  0  0  2.096859  0  2.089804  0  0  2.212324  0  1.912772  0  0  1.480051  2.063317  0  2.120684  0
Sm  Sm1  1  0.68560382  0.23937056  0.41498601  1  0  2.267949  0  1.612136  0  0  2.096902  0  2.089734  0  0  2.212289  0  1.912838  0  0  1.480063  2.063313  0  2.120707  0
Sm  Sm2  1  0.68559793  0.73936171  0.08500805  1  0  2.268039  0  1.61216  0  0  2.09697  0  2.089872  0  0  2.212404  0  1.912884  0  0  1.480248  2.06343  0  2.120763  0
Sm  Sm3  1  0.31439809  0.76063779  0.58500946  1  0  2.268017  0  1.612067  0  0  2.096864  0  2.089866  0  0  2.212361  0  1.912777  0  0  1.480204  2.063337  0  2.120739  0
H  H4  1  0.94770933  0.40046715  0.71626122  1  0  0.140844  0  0.967646  0  0  0.147718  0  1.028899  0  0  0.152926  0  1.023278  0  0  0.135489  0.144043  0  1.03268  0
H  H5  1  0.05229966  0.09953722  0.21626618  1  0  0.140836  0  0.96759  0  0  0.147755  0  1.028783  0  0  0.152963  0  1.023162  0  0  0.135479  0.144076  0  1.032573  0
H  H6  1  0.05228782  0.59952802  0.28373774  1  0  0.140877  0  0.967453  0  0  0.147645  0  1.028841  0  0  0.152853  0  1.023224  0  0  0.135452  0.14397  0  1.032618  0
H  H7  1  0.94770723  0.90047762  0.78373336  1  0  0.140913  0  0.96764  0  0  0.147764  0  1.028899  0  0  0.152972  0  1.023278  0  0  0.135489  0.14409  0  1.032676  0
H  H8  1  0.82204250  0.38590370  0.85394221  1  0  0.309954  0  0.829745  0  0  0.29733  0  0.875562  0  0  0.304218  0  0.870772  0  0  0.362755  0.292498  0  0.878857  0
H  H9  1  0.17797063  0.11409750  0.35394579  1  0  0.309973  0  0.829609  0  0  0.297349  0  0.875442  0  0  0.304256  0  0.87062  0  0  0.36276  0.292525  0  0.878732  0
H  H10  1  0.17796071  0.61410460  0.14605849  1  0  0.310016  0  0.829694  0  0  0.297443  0  0.875451  0  0  0.304293  0  0.870723  0  0  0.362795  0.292602  0  0.878773  0
H  H11  1  0.82203859  0.88589462  0.64605434  1  0  0.310055  0  0.829623  0  0  0.297355  0  0.875548  0  0  0.304267  0  0.870714  0  0  0.362775  0.292526  0  0.878834  0
H  H12  1  0.93228191  0.16386333  0.97408297  1  0  0.441699  0  0.828521  0  0  0.416241  0  0.895529  0  0  0.426138  0  0.881006  0  0  0.315734  0.409135  0  0.905925  0
H  H13  1  0.06771116  0.33613286  0.47408330  1  0  0.441621  0  0.828573  0  0  0.416147  0  0.895653  0  0  0.426044  0  0.881131  0  0  0.315702  0.40904  0  0.906016  0
H  H14  1  0.06770425  0.83614152  0.02591831  1  0  0.441657  0  0.828624  0  0  0.4162  0  0.895599  0  0  0.426094  0  0.88108  0  0  0.3157  0.409098  0  0.906013  0
H  H15  1  0.93228361  0.66385573  0.52592031  1  0  0.441603  0  0.828686  0  0  0.416157  0  0.895653  0  0  0.42605  0  0.881135  0  0  0.315708  0.409046  0  0.906057  0
H  H16  1  0.90697017  0.00225497  0.92020023  1  0  0.443465  0  0.852781  0  0  0.413079  0  0.915294  0  0  0.42454  0  0.898793  0  0  0.301498  0.405102  0  0.92689  0
H  H17  1  0.09303412  0.49774900  0.42020054  1  0  0.443446  0  0.852796  0  0  0.41306  0  0.915312  0  0  0.424524  0  0.898806  0  0  0.301496  0.405085  0  0.926904  0
H  H18  1  0.09302581  0.99774424  0.07979989  1  0  0.443454  0  0.852802  0  0  0.413079  0  0.915295  0  0  0.424537  0  0.898799  0  0  0.301506  0.405102  0  0.92689  0
H  H19  1  0.90696624  0.50225139  0.57979784  1  0  0.443424  0  0.852837  0  0  0.413045  0  0.915338  0  0  0.424506  0  0.898838  0  0  0.301491  0.405069  0  0.926931  0
H  H20  1  0.25040369  0.58709429  0.98342871  1  0  0.439256  0  0.858786  0  0  0.40883  0  0.921086  0  0  0.42063  0  0.903923  0  0  0.299952  0.400581  0  0.933186  0
H  H21  1  0.74958575  0.91290833  0.48342604  1  0  0.439365  0  0.858639  0  0  0.408932  0  0.920947  0  0  0.420728  0  0.903789  0  0  0.299982  0.400684  0  0.933046  0
H  H22  1  0.74958294  0.41291189  0.01657141  1  0  0.439326  0  0.858687  0  0  0.408928  0  0.920947  0  0  0.420727  0  0.903783  0  0  0.299965  0.400678  0  0.933048  0
H  H23  1  0.25041495  0.08708939  0.51657408  1  0  0.439362  0  0.858655  0  0  0.40888  0  0.92104  0  0  0.420681  0  0.903875  0  0  0.299948  0.400629  0  0.933143  0
H  H24  1  0.16286753  0.52730245  0.90226404  1  0  0.417969  0  0.859745  0  0  0.397511  0  0.917458  0  0  0.406588  0  0.904236  0  0  0.307833  0.390842  0  0.927323  0
H  H25  1  0.83712866  0.97269485  0.40226237  1  0  0.417888  0  0.859826  0  0  0.397431  0  0.917561  0  0  0.406506  0  0.904342  0  0  0.307767  0.390763  0  0.927426  0
H  H26  1  0.83713283  0.47269795  0.09773725  1  0  0.417817  0  0.859944  0  0  0.397382  0  0.917615  0  0  0.406457  0  0.904397  0  0  0.307732  0.390713  0  0.92748  0
H  H27  1  0.16286709  0.02731103  0.59773833  1  0  0.417939  0  0.859856  0  0  0.397492  0  0.917496  0  0  0.406566  0  0.904279  0  0  0.307793  0.390821  0  0.927362  0
C  C28  1  0.80592280  0.32753193  0.73313169  1  0  0.074513  0  3.560463  0  0  0.013663  0  3.829097  0  0  0.025127  0  3.837308  0  0  0.046364  0.006709  0  3.822322  0
C  C29  1  0.19408268  0.17246318  0.23313118  1  0  0.074513  0  3.560228  0  0  0.013679  0  3.828818  0  0  0.025136  0  3.837038  0  0  0.046402  0.006734  0  3.822044  0
C  C30  1  0.19408867  0.67246278  0.26686901  1  0  0.074586  0  3.560269  0  0  0.01393  0  3.828886  0  0  0.025393  0  3.83709  0  0  0.046589  0.006975  0  3.822107  0
C  C31  1  0.80592679  0.82753693  0.76687242  1  0  0.074511  0  3.560713  0  0  0.013705  0  3.829214  0  0  0.025167  0  3.837432  0  0  0.046392  0.006747  0  3.822437  0
C  C32  1  0.65614403  0.21863941  0.69128092  1  0  -0.184436  0  3.724814  0  0  -0.173917  0  3.986412  0  0  -0.186527  0  4.005986  0  0  -0.025547  -0.165436  0  3.97207  0
C  C33  1  0.34385632  0.28135864  0.19128305  1  0  -0.184479  0  3.724571  0  0  -0.174035  0  3.986138  0  0  -0.186648  0  4.005704  0  0  -0.025573  -0.16555  0  3.97179  0
C  C34  1  0.34387315  0.78137110  0.30872443  1  0  -0.184408  0  3.724977  0  0  -0.173978  0  3.986823  0  0  -0.186589  0  4.006382  0  0  -0.02562  -0.165499  0  3.972485  0
C  C35  1  0.65614511  0.71864838  0.80872056  1  0  -0.184569  0  3.72496  0  0  -0.173876  0  3.98642  0  0  -0.186489  0  4.005989  0  0  -0.02554  -0.16539  0  3.972074  0
C  C36  1  0.50975300  0.16165391  0.74673292  1  0  0.036104  0  3.718827  0  0  0.026232  0  3.983638  0  0  0.028255  0  4.003003  0  0  0.104411  0.02478  0  3.972492  0
C  C37  1  0.49026491  0.33835409  0.24673710  1  0  0.035827  0  3.719147  0  0  0.026285  0  3.983528  0  0  0.028306  0  4.002888  0  0  0.104489  0.024833  0  3.972378  0
C  C38  1  0.49022481  0.83832057  0.25327243  1  0  0.036372  0  3.718905  0  0  0.026479  0  3.983919  0  0  0.028502  0  4.003288  0  0  0.104473  0.025026  0  3.972769  0
C  C39  1  0.50975738  0.66166692  0.75326882  1  0  0.036383  0  3.71851  0  0  0.026417  0  3.983425  0  0  0.028445  0  4.002789  0  0  0.104472  0.024965  0  3.972282  0
C  C40  1  0.31030659  0.05024631  0.74514599  1  0  0.697316  0  3.880331  0  0  0.64947  0  4.17774  0  0  0.684915  0  4.167719  0  0  0.236816  0.625786  0  4.185814  0
C  C41  1  0.68969641  0.44975684  0.24514460  1  0  0.697376  0  3.880439  0  0  0.649463  0  4.177788  0  0  0.684905  0  4.167764  0  0  0.236794  0.625792  0  4.185846  0
C  C42  1  0.68970060  0.94973654  0.25484601  1  0  0.696721  0  3.880241  0  0  0.648738  0  4.178005  0  0  0.68419  0  4.167988  0  0  0.236532  0.625046  0  4.186081  0
C  C43  1  0.31029724  0.55026509  0.75484566  1  0  0.697024  0  3.880667  0  0  0.64905  0  4.178346  0  0  0.684495  0  4.168326  0  0  0.236598  0.625359  0  4.186429  0
C  C44  1  0.65931948  0.17879950  0.60739689  1  0  0.728264  0  3.891269  0  0  0.678667  0  4.185345  0  0  0.71487  0  4.178375  0  0  0.22865  0.65424  0  4.192444  0
C  C45  1  0.34067926  0.32120283  0.10739729  1  0  0.728255  0  3.89127  0  0  0.678531  0  4.185537  0  0  0.714754  0  4.178537  0  0  0.228535  0.654101  0  4.192644  0
C  C46  1  0.34068088  0.82120090  0.39260729  1  0  0.728246  0  3.891549  0  0  0.678449  0  4.186007  0  0  0.714679  0  4.178995  0  0  0.228595  0.654022  0  4.193112  0
C  C47  1  0.65931909  0.67880296  0.89260747  1  0  0.728169  0  3.891463  0  0  0.67843  0  4.185682  0  0  0.714644  0  4.178707  0  0  0.228605  0.654001  0  4.192788  0
C  C48  1  0.41309539  0.92131963  0.99043623  1  0  0.56793  0  3.909997  0  0  0.521774  0  4.209187  0  0  0.551551  0  4.205356  0  0  0.221491  0.501388  0  4.215202  0
C  C49  1  0.58689136  0.57866841  0.49044020  1  0  0.568055  0  3.909396  0  0  0.521732  0  4.208803  0  0  0.551511  0  4.204965  0  0  0.221461  0.501346  0  4.214818  0
C  C50  1  0.58690316  0.07866484  0.00956737  1  0  0.56827  0  3.910042  0  0  0.521984  0  4.209391  0  0  0.551759  0  4.205556  0  0  0.22157  0.501599  0  4.215408  0
C  C51  1  0.41309325  0.42132851  0.50957037  1  0  0.567819  0  3.90988  0  0  0.521692  0  4.209038  0  0  0.551467  0  4.205202  0  0  0.221442  0.501309  0  4.21505  0
N  N52  1  0.74640549  0.32995873  0.80668477  1  0  -0.097837  0  3.501968  0  0  -0.0367  0  3.750615  0  0  -0.047934  0  3.768408  0  0  -0.25478  -0.029202  0  3.739798  0
N  N53  1  0.25361416  0.17004106  0.30668530  1  0  -0.097885  0  3.501966  0  0  -0.036825  0  3.750758  0  0  -0.048073  0  3.768545  0  0  -0.25492  -0.029347  0  3.739967  0
N  N54  1  0.25358480  0.67003933  0.19331710  1  0  -0.097803  0  3.501991  0  0  -0.03672  0  3.750596  0  0  -0.047927  0  3.768395  0  0  -0.254847  -0.029225  0  3.739767  0
N  N55  1  0.74641341  0.82995446  0.69331656  1  0  -0.097929  0  3.50181  0  0  -0.03675  0  3.750476  0  0  -0.048  0  3.768263  0  0  -0.254821  -0.029244  0  3.739654  0
N  N56  1  0.56787309  0.23462570  0.81616405  1  0  -0.326401  0  3.136866  0  0  -0.309947  0  3.424983  0  0  -0.324966  0  3.443325  0  0  -0.285113  -0.30484  0  3.413372  0
N  N57  1  0.43212870  0.26537597  0.31616195  1  0  -0.326191  0  3.137348  0  0  -0.30983  0  3.425373  0  0  -0.324835  0  3.443719  0  0  -0.285072  -0.304718  0  3.413774  0
N  N58  1  0.43212996  0.76536395  0.18382447  1  0  -0.326788  0  3.136594  0  0  -0.310316  0  3.424775  0  0  -0.32534  0  3.443105  0  0  -0.285208  -0.305203  0  3.41316  0
N  N59  1  0.56786597  0.73462328  0.68382831  1  0  -0.326683  0  3.136643  0  0  -0.310201  0  3.424784  0  0  -0.325234  0  3.443136  0  0  -0.285179  -0.305097  0  3.413176  0
O  O60  1  0.21266087  0.06984817  0.80229183  1  0  -0.676265  0  2.01878  0  0  -0.625523  0  2.260951  0  0  -0.658245  0  2.247872  0  0  -0.369792  -0.608158  0  2.267418  0
O  O61  1  0.78733527  0.43014839  0.30229141  1  0  -0.676248  0  2.018799  0  0  -0.625526  0  2.261004  0  0  -0.65824  0  2.247931  0  0  -0.36979  -0.608158  0  2.267467  0
O  O62  1  0.78734407  0.93013209  0.19770017  1  0  -0.675777  0  2.018895  0  0  -0.624988  0  2.261116  0  0  -0.657709  0  2.24805  0  0  -0.369616  -0.60762  0  2.267579  0
O  O63  1  0.21266134  0.56987078  0.69770697  1  0  -0.675981  0  2.01931  0  0  -0.625163  0  2.261514  0  0  -0.657887  0  2.24844  0  0  -0.3697  -0.607797  0  2.267981  0
O  O64  1  0.28581208  0.95058586  0.95108072  1  0  -0.651393  0  2.052355  0  0  -0.60234  0  2.289804  0  0  -0.631859  0  2.277414  0  0  -0.352059  -0.586913  0  2.296186  0
O  O65  1  0.71419816  0.54940419  0.45107922  1  0  -0.651532  0  2.0518  0  0  -0.602453  0  2.289325  0  0  -0.631968  0  2.276941  0  0  -0.352108  -0.58701  0  2.295701  0
O  O66  1  0.71418117  0.04940944  0.04891998  1  0  -0.651501  0  2.05238  0  0  -0.60242  0  2.289901  0  0  -0.631931  0  2.277511  0  0  -0.35206  -0.586991  0  2.296282  0
O  O67  1  0.28580858  0.45059201  0.54892380  1  0  -0.651333  0  2.052348  0  0  -0.602285  0  2.289787  0  0  -0.631805  0  2.277398  0  0  -0.352005  -0.586854  0  2.296164  0
O  O68  1  0.97776104  0.13067910  0.92502185  1  0  -0.892322  0  1.825691  0  0  -0.849067  0  2.028807  0  0  -0.875094  0  1.990569  0  0  -0.642815  -0.836536  0  2.051264  0
O  O69  1  0.02224225  0.36932222  0.42501821  1  0  -0.89223  0  1.825715  0  0  -0.848963  0  2.028867  0  0  -0.874981  0  1.990636  0  0  -0.642796  -0.836436  0  2.051318  0
O  O70  1  0.02224110  0.86932257  0.07497537  1  0  -0.892271  0  1.825777  0  0  -0.849032  0  2.028905  0  0  -0.875049  0  1.990672  0  0  -0.642809  -0.836507  0  2.051399  0
O  O71  1  0.97774982  0.63067711  0.57497611  1  0  -0.892211  0  1.825818  0  0  -0.848954  0  2.028933  0  0  -0.874985  0  1.990697  0  0  -0.642827  -0.836427  0  2.051442  0
O  O72  1  0.16639822  0.48361756  0.95517536  1  0  -0.867102  0  1.862563  0  0  -0.821835  0  2.05319  0  0  -0.846567  0  2.016094  0  0  -0.638291  -0.809  0  2.075523  0
O  O73  1  0.83359291  0.01638008  0.45517654  1  0  -0.867105  0  1.862539  0  0  -0.821847  0  2.053206  0  0  -0.846567  0  2.016114  0  0  -0.638243  -0.809  0  2.075536  0
O  O74  1  0.83359445  0.51638709  0.04482128  1  0  -0.866982  0  1.862701  0  0  -0.821765  0  2.053326  0  0  -0.846492  0  2.016225  0  0  -0.638181  -0.808929  0  2.075667  0
O  O75  1  0.16639230  0.98362214  0.54482649  1  0  -0.86715  0  1.862584  0  0  -0.821836  0  2.053204  0  0  -0.846573  0  2.016105  0  0  -0.638222  -0.809013  0  2.075567  0
O  O76  1  0.24730187  0.94356932  0.68978419  1  0  -0.728264  0  2.056148  0  0  -0.674743  0  2.302799  0  0  -0.706789  0  2.286244  0  0  -0.378272  -0.6579  0  2.310991  0
O  O77  1  0.75270645  0.55642683  0.18978088  1  0  -0.728202  0  2.055969  0  0  -0.674696  0  2.302621  0  0  -0.706731  0  2.286065  0  0  -0.378214  -0.657856  0  2.310807  0
O  O78  1  0.75270001  0.05642437  0.31021709  1  0  -0.728257  0  2.055972  0  0  -0.674688  0  2.302708  0  0  -0.706729  0  2.286154  0  0  -0.378277  -0.657833  0  2.310904  0
O  O79  1  0.24730801  0.44357978  0.81021402  1  0  -0.728301  0  2.055991  0  0  -0.674741  0  2.302719  0  0  -0.706789  0  2.286164  0  0  -0.378202  -0.657891  0  2.310912  0
O  O80  1  0.55726381  0.03187746  0.58202762  1  0  -0.754061  0  2.145443  0  0  -0.70644  0  2.417303  0  0  -0.741705  0  2.40493  0  0  -0.399884  -0.68987  0  2.425623  0
O  O81  1  0.44273389  0.46812498  0.08202612  1  0  -0.754132  0  2.145478  0  0  -0.706451  0  2.417371  0  0  -0.741717  0  2.404996  0  0  -0.399892  -0.689876  0  2.425691  0
O  O82  1  0.44271524  0.96812230  0.41797772  1  0  -0.754144  0  2.145733  0  0  -0.706295  0  2.417363  0  0  -0.741558  0  2.404991  0  0  -0.399909  -0.689724  0  2.425697  0
O  O83  1  0.55727736  0.53187640  0.91797807  1  0  -0.754018  0  2.145548  0  0  -0.706256  0  2.417245  0  0  -0.741523  0  2.404877  0  0  -0.399857  -0.689691  0  2.425575  0
O  O84  1  0.76626772  0.29404163  0.56232584  1  0  -0.715046  0  2.007502  0  0  -0.651713  0  2.235845  0  0  -0.685156  0  2.223692  0  0  -0.343955  -0.632937  0  2.242266  0
O  O85  1  0.23373065  0.20596217  0.06232991  1  0  -0.714946  0  2.007544  0  0  -0.651571  0  2.235928  0  0  -0.685027  0  2.223765  0  0  -0.343843  -0.632802  0  2.242349  0
O  O86  1  0.23373421  0.70598137  0.43767602  1  0  -0.714965  0  2.007552  0  0  -0.651551  0  2.235983  0  0  -0.685017  0  2.223814  0  0  -0.343863  -0.632783  0  2.242404  0
O  O87  1  0.76626615  0.79403568  0.93767370  1  0  -0.714971  0  2.007602  0  0  -0.651594  0  2.235977  0  0  -0.685044  0  2.223819  0  0  -0.343924  -0.632826  0  2.242401  0
O  O88  1  0.41170198  0.77253217  0.01687641  1  0  -0.672193  0  2.166317  0  0  -0.615218  0  2.4065  0  0  -0.647298  0  2.396835  0  0  -0.35059  -0.597692  0  2.411559  0
O  O89  1  0.58829970  0.72745933  0.51687557  1  0  -0.672134  0  2.166329  0  0  -0.615096  0  2.406556  0  0  -0.64718  0  2.396894  0  0  -0.350542  -0.597574  0  2.411617  0
O  O90  1  0.58830308  0.22745209  0.98312662  1  0  -0.672373  0  2.166396  0  0  -0.615383  0  2.406631  0  0  -0.647469  0  2.396965  0  0  -0.350709  -0.597857  0  2.411689  0
O  O91  1  0.41169580  0.27253856  0.48312456  1  0  -0.672176  0  2.166147  0  0  -0.615192  0  2.406276  0  0  -0.647268  0  2.396614  0  0  -0.35058  -0.597657  0  2.411331  0
