# generated using pymatgen
data_AgH10C12N4Cl(OF)4
_symmetry_space_group_name_H-M   'P 1'
_cell_length_a   6.43596348
_cell_length_b   14.78799471
_cell_length_c   16.12830000
_cell_angle_alpha   90.00000000
_cell_angle_beta   90.00000000
_cell_angle_gamma   101.44933809
_symmetry_Int_Tables_number   1
_chemical_formula_structural   AgH10C12N4Cl(OF)4
_chemical_formula_sum   'Ag4 H40 C48 N16 Cl4 O16 F16'
_cell_volume   1504.46506718
_cell_formula_units_Z   4
loop_
 _symmetry_equiv_pos_site_id
 _symmetry_equiv_pos_as_xyz
  1  'x, y, z'
loop_
 _atom_site_type_symbol
 _atom_site_label
 _atom_site_symmetry_multiplicity
 _atom_site_fract_x
 _atom_site_fract_y
 _atom_site_fract_z
 _atom_site_occupancy
 _atom_site_hle17_bader_spin_density
 _atom_site_hle17_ddec_charge
 _atom_site_hle17_ddec_spin_density
 _atom_site_hle17_ddec_sum_bond_order
 _atom_site_hle17_magmom
 _atom_site_hse06_10hf_bader_spin_density
 _atom_site_hse06_10hf_ddec_charge
 _atom_site_hse06_10hf_ddec_spin_density
 _atom_site_hse06_10hf_ddec_sum_bond_order
 _atom_site_hse06_10hf_magmom
 _atom_site_hse06_bader_spin_density
 _atom_site_hse06_ddec_charge
 _atom_site_hse06_ddec_spin_density
 _atom_site_hse06_ddec_sum_bond_order
 _atom_site_hse06_magmom
 _atom_site_pbe_bader_charge
 _atom_site_pbe_bader_spin_density
 _atom_site_pbe_cm5_charge
 _atom_site_pbe_ddec_charge
 _atom_site_pbe_ddec_spin_density
 _atom_site_pbe_ddec_sum_bond_order
 _atom_site_pbe_magmom
Ag  Ag0  1  0.48710508  0.41731446  0.35789823  1  0  0.585976  0  1.33454  0  0  0.451122  0  1.763776  0  0  0.47959  0  1.719118  0  0.615444  0  0.479203  0.430145  0  1.795609  0
Ag  Ag1  1  0.51289509  0.08268752  0.85790381  1  0  0.586065  0  1.334437  0  0  0.451175  0  1.763696  0  0  0.479642  0  1.719032  0  0.615411  0  0.479261  0.4302  0  1.795528  0
Ag  Ag2  1  0.51290449  0.58268812  0.64209867  1  0  0.586075  0  1.334419  0  0  0.451214  0  1.76365  0  0  0.479681  0  1.718987  0  0.615476  0  0.479258  0.43024  0  1.795486  0
Ag  Ag3  1  0.48710859  0.91731575  0.14210115  1  0  0.585959  0  1.334584  0  0  0.451115  0  1.763807  0  0  0.479581  0  1.719149  0  0.615452  0  0.479237  0.430141  0  1.795635  0
H  H4  1  0.13392302  0.42906506  0.46068774  1  0  0.345345  0  0.896532  0  0  0.325244  0  0.964409  0  0  0.332426  0  0.958482  0  0.507677  0  0.304378  0.320122  0  0.968647  0
H  H5  1  0.86607654  0.07093899  0.96069394  1  0  0.345412  0  0.89642  0  0  0.325332  0  0.964273  0  0  0.332513  0  0.958345  0  0.507579  0  0.304476  0.320211  0  0.968508  0
H  H6  1  0.86609119  0.57093407  0.53930730  1  0  0.345445  0  0.896589  0  0  0.325349  0  0.964461  0  0  0.332528  0  0.958537  0  0.507844  0  0.30444  0.320229  0  0.968692  0
H  H7  1  0.13392495  0.92906291  0.03931102  1  0  0.345349  0  0.896451  0  0  0.325263  0  0.964324  0  0  0.332445  0  0.958396  0  0.507619  0  0.304418  0.320142  0  0.968561  0
H  H8  1  0.85827780  0.40205406  0.46496407  1  0  0.351893  0  0.889572  0  0  0.331932  0  0.954782  0  0  0.33958  0  0.948207  0  0.519528  0  0.3072  0.326493  0  0.959462  0
H  H9  1  0.14171926  0.09794792  0.96496903  1  0  0.351838  0  0.889662  0  0  0.331822  0  0.954923  0  0  0.339465  0  0.948363  0  0.51945  0  0.307217  0.326385  0  0.959596  0
H  H10  1  0.14172149  0.59794300  0.53503345  1  0  0.351844  0  0.889793  0  0  0.33189  0  0.954968  0  0  0.339532  0  0.948405  0  0.519428  0  0.30725  0.326453  0  0.959641  0
H  H11  1  0.85828441  0.90205535  0.03503593  1  0  0.351874  0  0.889581  0  0  0.331972  0  0.954713  0  0  0.33962  0  0.948138  0  0.519578  0  0.307237  0.326534  0  0.959389  0
H  H12  1  0.31102707  0.42582711  0.18822877  1  0  0.086648  0  0.941767  0  0  0.091215  0  1.014896  0  0  0.094503  0  1.009253  0  0.145429  0  0.116861  0.088685  0  1.019197  0
H  H13  1  0.68896596  0.07417625  0.68823559  1  0  0.086793  0  0.941773  0  0  0.091352  0  1.014901  0  0  0.094641  0  1.009259  0  0.145455  0  0.116911  0.088816  0  1.01921  0
H  H14  1  0.68897534  0.57417340  0.81176503  1  0  0.086714  0  0.941903  0  0  0.091284  0  1.015015  0  0  0.094574  0  1.009373  0  0.145537  0  0.116931  0.088753  0  1.019316  0
H  H15  1  0.31102806  0.92582288  0.31177185  1  0  0.086746  0  0.941707  0  0  0.0913  0  1.014855  0  0  0.09459  0  1.009211  0  0.145371  0  0.116883  0.088767  0  1.01916  0
H  H16  1  0.63119325  0.35747200  0.19920016  1  0  0.089685  0  0.938783  0  0  0.097087  0  1.007149  0  0  0.100097  0  1.001968  0  0.138524  0  0.119025  0.094813  0  1.010983  0
H  H17  1  0.36880098  0.14252377  0.69920512  1  0  0.0898  0  0.938717  0  0  0.097159  0  1.007138  0  0  0.10018  0  1.001927  0  0.13859  0  0.119025  0.094904  0  1.010955  0
H  H18  1  0.36881135  0.64252989  0.80079488  1  0  0.089717  0  0.938708  0  0  0.097099  0  1.007096  0  0  0.100105  0  1.001927  0  0.138498  0  0.118997  0.094855  0  1.010893  0
H  H19  1  0.63119335  0.85747605  0.30079798  1  0  0.089753  0  0.938708  0  0  0.097124  0  1.007093  0  0  0.10013  0  1.001923  0  0.13856  0  0.119034  0.094836  0  1.010942  0
H  H20  1  0.23972886  0.40700448  0.80302202  1  0  0.097592  0  0.948795  0  0  0.113715  0  1.019245  0  0  0.114587  0  1.018459  0  0.074616  0  0.097264  0.11295  0  1.02002  0
H  H21  1  0.76026478  0.09299681  0.30302450  1  0  0.097593  0  0.948754  0  0  0.113673  0  1.01925  0  0  0.114542  0  1.01847  0  0.074756  0  0.097261  0.112908  0  1.020028  0
H  H22  1  0.76026112  0.59299603  0.19697426  1  0  0.097588  0  0.948772  0  0  0.113663  0  1.01928  0  0  0.114532  0  1.018499  0  0.074729  0  0.097279  0.112898  0  1.020055  0
H  H23  1  0.23973673  0.90700853  0.69697612  1  0  0.097609  0  0.948809  0  0  0.113687  0  1.019292  0  0  0.114557  0  1.018511  0  0.074703  0  0.097272  0.112921  0  1.020069  0
H  H24  1  0.07186006  0.40532927  0.71509025  1  0  0.100634  0  0.933835  0  0  0.122866  0  0.992538  0  0  0.122689  0  0.993792  0  0.058677  0  0.097717  0.12295  0  0.991723  0
H  H25  1  0.92813419  0.09466995  0.21509397  1  0  0.100663  0  0.933784  0  0  0.122854  0  0.992554  0  0  0.122673  0  0.993811  0  0.058639  0  0.097706  0.122934  0  0.991743  0
H  H26  1  0.92813179  0.59467193  0.28490479  1  0  0.100688  0  0.933836  0  0  0.122904  0  0.992558  0  0  0.122722  0  0.993817  0  0.058698  0  0.09773  0.122983  0  0.991747  0
H  H27  1  0.07186793  0.90533332  0.78490727  1  0  0.10065  0  0.933895  0  0  0.122839  0  0.992648  0  0  0.122666  0  0.993897  0  0.058567  0  0.097692  0.122923  0  0.991836  0
H  H28  1  0.14386461  0.30183826  0.74889046  1  0  0.091327  0  0.960242  0  0  0.107267  0  1.029664  0  0  0.107227  0  1.030894  0  0.05978  0  0.087869  0.107264  0  1.028866  0
H  H29  1  0.85613804  0.19816234  0.24889542  1  0  0.091357  0  0.960248  0  0  0.10727  0  1.029704  0  0  0.107229  0  1.030933  0  0.059827  0  0.087898  0.107265  0  1.028908  0
H  H30  1  0.85613315  0.69816225  0.25110334  1  0  0.091352  0  0.960287  0  0  0.107262  0  1.029745  0  0  0.107221  0  1.030974  0  0.059823  0  0.087883  0.107259  0  1.028947  0
H  H31  1  0.14387124  0.80184300  0.75110644  1  0  0.091395  0  0.960308  0  0  0.107325  0  1.029734  0  0  0.107284  0  1.030965  0  0.059804  0  0.087902  0.107321  0  1.028937  0
H  H32  1  0.58919970  0.29530785  0.82475214  1  0  0.102856  0  0.951874  0  0  0.117345  0  1.024724  0  0  0.118733  0  1.023119  0  0.07994  0  0.097907  0.116195  0  1.026127  0
H  H33  1  0.41079485  0.20468862  0.32475648  1  0  0.102878  0  0.95184  0  0  0.117361  0  1.0247  0  0  0.118754  0  1.023076  0  0.079926  0  0.097892  0.116209  0  1.02611  0
H  H34  1  0.41079898  0.70469129  0.17524724  1  0  0.102934  0  0.951788  0  0  0.117394  0  1.024683  0  0  0.118787  0  1.023065  0  0.079952  0  0.097922  0.116243  0  1.026091  0
H  H35  1  0.58920536  0.79530707  0.67524724  1  0  0.102813  0  0.951859  0  0  0.117303  0  1.024728  0  0  0.118695  0  1.023113  0  0.07999  0  0.097881  0.116148  0  1.026142  0
H  H36  1  0.72619654  0.27750359  0.73198105  1  0  0.09448  0  0.946046  0  0  0.11195  0  1.014973  0  0  0.112039  0  1.015385  0  0.071657  0  0.095105  0.111864  0  1.014676  0
H  H37  1  0.27379800  0.22249287  0.23198725  1  0  0.094509  0  0.946057  0  0  0.111946  0  1.01503  0  0  0.112041  0  1.015437  0  0.071718  0  0.095095  0.111854  0  1.014745  0
H  H38  1  0.27378502  0.72249210  0.26801647  1  0  0.094592  0  0.945954  0  0  0.112033  0  1.014921  0  0  0.112127  0  1.015329  0  0.071694  0  0.095136  0.111941  0  1.014633  0
H  H39  1  0.72621216  0.77750419  0.76801709  1  0  0.094527  0  0.945932  0  0  0.111985  0  1.014872  0  0  0.112077  0  1.015281  0  0.07162  0  0.095119  0.111892  0  1.014581  0
H  H40  1  0.66397176  0.38677641  0.75159316  1  0  0.08659  0  0.950811  0  0  0.099997  0  1.026561  0  0  0.100519  0  1.026255  0  0.040852  0  0.086357  0.099512  0  1.026947  0
H  H41  1  0.33602497  0.11322143  0.25159688  1  0  0.086595  0  0.950821  0  0  0.100027  0  1.02653  0  0  0.10055  0  1.026223  0  0.040843  0  0.086347  0.099544  0  1.026916  0
H  H42  1  0.33601354  0.61322065  0.24840560  1  0  0.08657  0  0.950887  0  0  0.10002  0  1.026586  0  0  0.100542  0  1.026281  0  0.04088  0  0.086351  0.099536  0  1.026973  0
H  H43  1  0.66397742  0.88677563  0.74840808  1  0  0.086619  0  0.950752  0  0  0.100009  0  1.026512  0  0  0.100532  0  1.026208  0  0.040883  0  0.086371  0.099526  0  1.026898  0
C  C44  1  0.98576670  0.40690306  0.34774899  1  0  0.646066  0  3.780801  0  0  0.595608  0  4.048723  0  0  0.623687  0  4.056288  0  1.564811  0  0.351573  0.576604  0  4.043237  0
C  C45  1  0.01422786  0.09309686  0.84774899  1  0  0.645652  0  3.781135  0  0  0.595211  0  4.048983  0  0  0.623287  0  4.056557  0  1.564543  0  0.351476  0.576208  0  4.043493  0
C  C46  1  0.01423974  0.59309608  0.65225845  1  0  0.645883  0  3.780917  0  0  0.595441  0  4.048779  0  0  0.623521  0  4.056343  0  1.564445  0  0.351536  0.576436  0  4.043293  0
C  C47  1  0.98577176  0.90690435  0.15225287  1  0  0.645817  0  3.780997  0  0  0.595361  0  4.048916  0  0  0.623438  0  4.056488  0  1.564762  0  0.35145  0.576357  0  4.043428  0
C  C48  1  0.16046478  0.41216188  0.22116962  1  0  0.152549  0  3.673334  0  0  0.10357  0  3.933967  0  0  0.119496  0  3.945902  0  0.434758  0  0.063741  0.093028  0  3.925993  0
C  C49  1  0.83953665  0.08784286  0.72117396  1  0  0.152053  0  3.673439  0  0  0.103048  0  3.934099  0  0  0.11897  0  3.946039  0  0.434766  0  0.063546  0.092513  0  3.926117  0
C  C50  1  0.83953484  0.58783932  0.77882418  1  0  0.15216  0  3.673155  0  0  0.103181  0  3.933849  0  0  0.119102  0  3.945786  0  0.434852  0  0.063522  0.092638  0  3.925874  0
C  C51  1  0.16046329  0.91215904  0.27882976  1  0  0.152395  0  3.673319  0  0  0.103381  0  3.933938  0  0  0.119304  0  3.945873  0  0.43498  0  0.0637  0.092841  0  3.925964  0
C  C52  1  0.96938809  0.39049250  0.17737083  1  0  -0.030773  0  3.787224  0  0  -0.011856  0  4.032562  0  0  -0.023048  0  4.057348  0  0.059275  0  -0.018206  -0.005198  0  4.01653  0
C  C53  1  0.03060274  0.10950603  0.67737827  1  0  -0.030529  0  3.787279  0  0  -0.011552  0  4.032513  0  0  -0.022737  0  4.057296  0  0.059398  0  -0.018101  -0.0049  0  4.016486  0
C  C54  1  0.03061493  0.60950594  0.82262235  1  0  -0.030687  0  3.787231  0  0  -0.011777  0  4.032604  0  0  -0.022961  0  4.057383  0  0.059275  0  -0.018135  -0.005124  0  4.016584  0
C  C55  1  0.96938847  0.89049034  0.32262793  1  0  -0.030737  0  3.78743  0  0  -0.011703  0  4.032531  0  0  -0.022894  0  4.057317  0  0.059158  0  -0.018155  -0.005047  0  4.016495  0
C  C56  1  0.78734980  0.37801676  0.22703757  1  0  0.157235  0  3.672031  0  0  0.110038  0  3.929878  0  0  0.126299  0  3.940721  0  0.5043  0  0.064817  0.099256  0  3.922705  0
C  C57  1  0.21264321  0.12198315  0.72703819  1  0  0.157112  0  3.671699  0  0  0.109874  0  3.929493  0  0  0.126136  0  3.940338  0  0.504165  0  0.064765  0.099077  0  3.922315  0
C  C58  1  0.21264608  0.62198307  0.77296057  1  0  0.157265  0  3.671969  0  0  0.110058  0  3.929789  0  0  0.126315  0  3.940629  0  0.504152  0  0.064835  0.099255  0  3.92261  0
C  C59  1  0.78735423  0.87801667  0.27296181  1  0  0.157176  0  3.671949  0  0  0.109956  0  3.929731  0  0  0.126218  0  3.940569  0  0.504166  0  0.064784  0.099186  0  3.922561  0
C  C60  1  0.95834498  0.38130715  0.08697879  1  0  -0.133564  0  3.87318  0  0  -0.148097  0  4.144443  0  0  -0.150787  0  4.167753  0  0.119283  0  -0.040742  -0.14603  0  4.128913  0
C  C61  1  0.04165674  0.11869483  0.58698251  1  0  -0.133634  0  3.873227  0  0  -0.148136  0  4.144404  0  0  -0.15083  0  4.167713  0  0.119051  0  -0.040715  -0.146058  0  4.128878  0
C  C62  1  0.04165991  0.61869199  0.91301873  1  0  -0.133523  0  3.873215  0  0  -0.148054  0  4.144388  0  0  -0.150746  0  4.167696  0  0.118961  0  -0.040756  -0.145985  0  4.128857  0
C  C63  1  0.95834660  0.88130430  0.41301997  1  0  -0.133622  0  3.873259  0  0  -0.148079  0  4.144297  0  0  -0.150769  0  4.167606  0  0.119306  0  -0.040753  -0.146005  0  4.12877  0
C  C64  1  0.10499513  0.34373916  0.04051202  1  0  0.18917  0  3.77377  0  0  0.151666  0  4.083167  0  0  0.162352  0  4.089876  0  0.51857  0  0.083439  0.144084  0  4.079019  0
C  C65  1  0.89499912  0.15626006  0.54051822  1  0  0.189187  0  3.773702  0  0  0.15164  0  4.083098  0  0  0.162329  0  4.089814  0  0.518307  0  0.08353  0.144038  0  4.078974  0
C  C66  1  0.89500074  0.65625721  0.95947806  1  0  0.189115  0  3.773494  0  0  0.151672  0  4.082843  0  0  0.162362  0  4.089554  0  0.518461  0  0.083616  0.14409  0  4.078694  0
C  C67  1  0.10499956  0.84373907  0.45948550  1  0  0.189135  0  3.77379  0  0  0.1516  0  4.083181  0  0  0.162284  0  4.089896  0  0.518395  0  0.083476  0.144004  0  4.07905  0
C  C68  1  0.09269133  0.33395975  0.95504486  1  0  0.128521  0  3.758687  0  0  0.089764  0  4.072305  0  0  0.095831  0  4.079983  0  0.552631  0  0.07473  0.085237  0  4.067657  0
C  C69  1  0.90730727  0.16603878  0.45504672  1  0  0.128655  0  3.758535  0  0  0.089907  0  4.072128  0  0  0.095966  0  4.079811  0  0.552704  0  0.074805  0.085386  0  4.067486  0
C  C70  1  0.90730641  0.66603731  0.04495266  1  0  0.128668  0  3.758412  0  0  0.089879  0  4.072072  0  0  0.095937  0  4.079757  0  0.552864  0  0.074745  0.085351  0  4.067425  0
C  C71  1  0.09269670  0.83396173  0.54495452  1  0  0.128683  0  3.758505  0  0  0.08987  0  4.072205  0  0  0.095936  0  4.079882  0  0.552741  0  0.074729  0.085348  0  4.06756  0
C  C72  1  0.93087437  0.36152479  0.90789048  1  0  0.041769  0  3.864045  0  0  0.01279  0  4.133444  0  0  0.020507  0  4.153746  0  0.523094  0  0.0895  0.007611  0  4.119679  0
C  C73  1  0.06912112  0.13847374  0.40789668  1  0  0.041681  0  3.864015  0  0  0.012735  0  4.133366  0  0  0.020453  0  4.153666  0  0.52297  0  0.089343  0.007552  0  4.119609  0
C  C74  1  0.06911778  0.63847365  0.09210332  1  0  0.041791  0  3.863886  0  0  0.012761  0  4.13333  0  0  0.020479  0  4.153635  0  0.523026  0  0.089379  0.007582  0  4.119569  0
C  C75  1  0.93087879  0.86152470  0.59210766  1  0  0.041764  0  3.863976  0  0  0.01275  0  4.133401  0  0  0.020465  0  4.153702  0  0.523139  0  0.08944  0.007571  0  4.119633  0
C  C76  1  0.78422747  0.39973236  0.95483591  1  0  0.121101  0  3.775977  0  0  0.08785  0  4.083888  0  0  0.092785  0  4.093733  0  0.545745  0  0.074384  0.084134  0  4.077684  0
C  C77  1  0.21577020  0.10026755  0.45484149  1  0  0.121086  0  3.775687  0  0  0.087805  0  4.083668  0  0  0.09274  0  4.093513  0  0.546222  0  0.07441  0.084087  0  4.077469  0
C  C78  1  0.21577183  0.60026815  0.04516223  1  0  0.121081  0  3.775623  0  0  0.087794  0  4.083608  0  0  0.092729  0  4.093451  0  0.546105  0  0.07437  0.084075  0  4.077407  0
C  C79  1  0.78422567  0.89972883  0.54516161  1  0  0.121112  0  3.775867  0  0  0.087847  0  4.083814  0  0  0.092782  0  4.09366  0  0.54591  0  0.074446  0.084131  0  4.077613  0
C  C80  1  0.79745451  0.40847339  0.04016914  1  0  0.183715  0  3.800873  0  0  0.14549  0  4.112907  0  0  0.154906  0  4.123067  0  0.536805  0  0.08356  0.138819  0  4.106339  0
C  C81  1  0.20253539  0.09152652  0.54017720  1  0  0.18381  0  3.800683  0  0  0.14553  0  4.112801  0  0  0.154951  0  4.122956  0  0.536779  0  0.083502  0.138857  0  4.106235  0
C  C82  1  0.20253948  0.59152229  0.95982280  1  0  0.183605  0  3.800781  0  0  0.145392  0  4.11288  0  0  0.154811  0  4.123037  0  0.537065  0  0.0835  0.138721  0  4.106313  0
C  C83  1  0.79745676  0.90847192  0.45982900  1  0  0.183788  0  3.800848  0  0  0.14554  0  4.112871  0  0  0.154957  0  4.123031  0  0.536821  0  0.083574  0.138869  0  4.106303  0
C  C84  1  0.10301522  0.36661389  0.77044140  1  0  -0.168033  0  3.676329  0  0  -0.269052  0  3.933538  0  0  -0.264928  0  3.944396  0  0.265427  0  -0.14613  -0.271667  0  3.925934  0
C  C85  1  0.89698027  0.13338464  0.27044636  1  0  -0.167939  0  3.676343  0  0  -0.268902  0  3.933584  0  0  -0.264771  0  3.944443  0  0.264864  0  -0.146141  -0.271518  0  3.925984  0
C  C86  1  0.89697880  0.63338524  0.22955302  1  0  -0.168048  0  3.676566  0  0  -0.269043  0  3.933776  0  0  -0.264911  0  3.944635  0  0.265167  0  -0.146208  -0.271655  0  3.926169  0
C  C87  1  0.10302185  0.86661863  0.72955612  1  0  -0.168051  0  3.676655  0  0  -0.269029  0  3.933818  0  0  -0.264905  0  3.944675  0  0.265403  0  -0.146128  -0.271649  0  3.92622  0
C  C88  1  0.71301364  0.32735827  0.78134893  1  0  -0.171271  0  3.683853  0  0  -0.272564  0  3.944246  0  0  -0.26795  0  3.953943  0  0.267436  0  -0.146665  -0.275479  0  3.937525  0
C  C89  1  0.28698246  0.17263819  0.28135389  1  0  -0.171202  0  3.683898  0  0  -0.272532  0  3.944289  0  0  -0.267919  0  3.953985  0  0.267398  0  -0.146608  -0.275426  0  3.93752  0
C  C90  1  0.28698037  0.67264086  0.21864797  1  0  -0.171355  0  3.683866  0  0  -0.272703  0  3.944252  0  0  -0.26809  0  3.953946  0  0.267361  0  -0.146695  -0.27561  0  3.937516  0
C  C91  1  0.71302149  0.82735887  0.71865107  1  0  -0.171183  0  3.683725  0  0  -0.272487  0  3.944085  0  0  -0.267876  0  3.953784  0  0.26735  0  -0.146667  -0.275383  0  3.937329  0
N  N92  1  0.79278103  0.38949552  0.30939839  1  0  -0.454325  0  3.219503  0  0  -0.376253  0  3.512871  0  0  -0.401537  0  3.521964  0  -1.183401  0  -0.351018  -0.358837  0  3.506457  0
N  N93  1  0.20721135  0.11050301  0.80940707  1  0  -0.454363  0  3.219364  0  0  -0.376121  0  3.512541  0  0  -0.401401  0  3.52163  0  -1.183241  0  -0.350927  -0.358709  0  3.506138  0
N  N94  1  0.20722481  0.61050568  0.69059479  1  0  -0.454501  0  3.219665  0  0  -0.376285  0  3.512902  0  0  -0.401562  0  3.521982  0  -1.183469  0  -0.351023  -0.358875  0  3.506508  0
N  N95  1  0.79278548  0.88949888  0.19059913  1  0  -0.454295  0  3.219428  0  0  -0.376164  0  3.512724  0  0  -0.401445  0  3.521815  0  -1.183257  0  -0.35097  -0.358748  0  3.506305  0
N  N96  1  0.99305823  0.41377017  0.43003044  1  0  -0.656256  0  3.080116  0  0  -0.620431  0  3.315835  0  0  -0.642032  0  3.311625  0  -1.296054  0  -0.559677  -0.605404  0  3.318536  0
N  N97  1  0.00694226  0.08623250  0.93004036  1  0  -0.656287  0  3.079861  0  0  -0.620416  0  3.315662  0  0  -0.642022  0  3.311464  0  -1.295897  0  -0.559884  -0.605386  0  3.318359  0
N  N98  1  0.00695225  0.58622759  0.56995344  1  0  -0.656504  0  3.079733  0  0  -0.620728  0  3.315557  0  0  -0.642337  0  3.311346  0  -1.295957  0  -0.559927  -0.605697  0  3.318267  0
N  N99  1  0.99306204  0.91377215  0.06996708  1  0  -0.656264  0  3.079917  0  0  -0.620504  0  3.315596  0  0  -0.642105  0  3.311384  0  -1.296063  0  -0.559788  -0.605476  0  3.3183  0
N  N100  1  0.17108967  0.41710540  0.30416845  1  0  -0.452904  0  3.223082  0  0  -0.368894  0  3.512478  0  0  -0.394943  0  3.522361  0  -1.163095  0  -0.351239  -0.350983  0  3.50548  0
N  N101  1  0.82890926  0.08289727  0.80417651  1  0  -0.452455  0  3.223024  0  0  -0.368481  0  3.512417  0  0  -0.394526  0  3.522309  0  -1.163117  0  -0.351141  -0.350571  0  3.505408  0
N  N102  1  0.82891896  0.58289511  0.69582225  1  0  -0.452403  0  3.223063  0  0  -0.368439  0  3.512469  0  0  -0.39448  0  3.522357  0  -1.163206  0  -0.351094  -0.350531  0  3.505466  0
N  N103  1  0.17109254  0.91710531  0.19583093  1  0  -0.452714  0  3.223169  0  0  -0.36874  0  3.512585  0  0  -0.394786  0  3.522469  0  -1.163198  0  -0.351203  -0.35083  0  3.505582  0
N  N104  1  0.91629421  0.35205862  0.82337382  1  0  -0.09769  0  3.474891  0  0  -0.005279  0  3.715865  0  0  -0.025408  0  3.743692  0  -1.17758  0  -0.30671  0.008867  0  3.696039  0
N  N105  1  0.08370250  0.14793577  0.32337754  1  0  -0.09794  0  3.474995  0  0  -0.005478  0  3.715851  0  0  -0.025609  0  3.743674  0  -1.17719  0  -0.30671  0.008672  0  3.69603  0
N  N106  1  0.08370010  0.64793775  0.17662308  1  0  -0.097874  0  3.474998  0  0  -0.005324  0  3.715797  0  0  -0.025452  0  3.743619  0  -1.177541  0  -0.306669  0.008825  0  3.695971  0
N  N107  1  0.91629960  0.85206405  0.67662370  1  0  -0.097902  0  3.475121  0  0  -0.005363  0  3.715906  0  0  -0.025492  0  3.743731  0  -1.177687  0  -0.306696  0.008785  0  3.696081  0
Cl  Cl108  1  0.54816163  0.63887521  0.43771631  1  0  1.389848  0  6.164503  0  0  1.322515  0  6.726987  0  0  1.375417  0  6.704352  0  3.035734  0  0.727733  1.286093  0  6.741123  0
Cl  Cl109  1  0.45185237  0.86112729  0.93772189  1  0  1.389774  0  6.164646  0  0  1.322487  0  6.727033  0  0  1.375406  0  6.704381  0  3.035591  0  0.727772  1.286066  0  6.741166  0
Cl  Cl110  1  0.45184112  0.36112945  0.56228307  1  0  1.389585  0  6.165251  0  0  1.32224  0  6.727698  0  0  1.375168  0  6.705046  0  3.035534  0  0.727614  1.285821  0  6.741826  0
Cl  Cl111  1  0.54815907  0.13887599  0.06228431  1  0  1.389816  0  6.164378  0  0  1.322428  0  6.726893  0  0  1.375351  0  6.704242  0  3.035838  0  0.727712  1.286008  0  6.741027  0
O  O112  1  0.66954070  0.56358192  0.43200213  1  0  -0.586009  0  1.911177  0  0  -0.545792  0  2.183118  0  0  -0.562908  0  2.165668  0  -0.94866  0  -0.32894  -0.533646  0  2.194724  0
O  O113  1  0.33048856  0.93642678  0.93201887  1  0  -0.586016  0  1.911444  0  0  -0.545845  0  2.183463  0  0  -0.562973  0  2.166011  0  -0.948614  0  -0.328958  -0.533699  0  2.195069  0
O  O114  1  0.33046423  0.43642411  0.56799477  1  0  -0.585972  0  1.911369  0  0  -0.545766  0  2.18334  0  0  -0.562894  0  2.165888  0  -0.948731  0  -0.328931  -0.533621  0  2.194944  0
O  O115  1  0.66953285  0.06358132  0.06799849  1  0  -0.586032  0  1.91122  0  0  -0.545823  0  2.183199  0  0  -0.562949  0  2.165746  0  -0.948637  0  -0.328973  -0.533678  0  2.194804  0
O  O116  1  0.59889126  0.68569755  0.51762740  1  0  -0.554796  0  1.936063  0  0  -0.524267  0  2.221896  0  0  -0.542539  0  2.206833  0  -0.958298  0  -0.316957  -0.511432  0  2.231897  0
O  O117  1  0.40111743  0.81430012  0.01763174  1  0  -0.554825  0  1.935885  0  0  -0.524232  0  2.22165  0  0  -0.542514  0  2.206589  0  -0.958305  0  -0.316961  -0.511395  0  2.231644  0
O  O118  1  0.40110962  0.31430642  0.48237012  1  0  -0.554728  0  1.936127  0  0  -0.524186  0  2.221991  0  0  -0.542468  0  2.206929  0  -0.958122  0  -0.316891  -0.511346  0  2.231978  0
O  O119  1  0.59889462  0.18570108  0.98237322  1  0  -0.554709  0  1.935832  0  0  -0.524177  0  2.221674  0  0  -0.542456  0  2.206608  0  -0.958271  0  -0.316911  -0.511337  0  2.231661  0
O  O120  1  0.32151627  0.59883304  0.43392174  1  0  -0.54578  0  1.879944  0  0  -0.515222  0  2.127827  0  0  -0.530758  0  2.113943  0  -0.987578  0  -0.307717  -0.504353  0  2.136883  0
O  O121  1  0.67849490  0.90116324  0.93392670  1  0  -0.545807  0  1.879869  0  0  -0.515354  0  2.127853  0  0  -0.530897  0  2.113964  0  -0.987792  0  -0.307847  -0.504486  0  2.136912  0
O  O122  1  0.67848335  0.40116816  0.56607764  1  0  -0.545773  0  1.880121  0  0  -0.515232  0  2.128062  0  0  -0.530772  0  2.114169  0  -0.987577  0  -0.307751  -0.504363  0  2.137118  0
O  O123  1  0.32151468  0.09883934  0.06608074  1  0  -0.545675  0  1.879868  0  0  -0.515178  0  2.127868  0  0  -0.53072  0  2.113981  0  -0.987709  0  -0.307683  -0.504316  0  2.136936  0
O  O124  1  0.60798783  0.70317201  0.37037133  1  0  -0.506452  0  1.906227  0  0  -0.470733  0  2.15104  0  0  -0.490041  0  2.142424  0  -1.007432  0  -0.286138  -0.457325  0  2.156504  0
O  O125  1  0.39200725  0.79683670  0.87037319  1  0  -0.506275  0  1.906181  0  0  -0.470617  0  2.15105  0  0  -0.489915  0  2.142429  0  -1.007068  0  -0.286041  -0.45721  0  2.156515  0
O  O126  1  0.39201025  0.29683264  0.62962681  1  0  -0.506285  0  1.906371  0  0  -0.470587  0  2.151232  0  0  -0.489899  0  2.142613  0  -1.00725  0  -0.28604  -0.457177  0  2.156697  0
O  O127  1  0.60799397  0.20317141  0.12963053  1  0  -0.506604  0  1.906315  0  0  -0.470744  0  2.151012  0  0  -0.490052  0  2.142391  0  -1.007404  0  -0.286156  -0.457337  0  2.156479  0
F  F128  1  0.25899839  0.30965544  0.08041827  1  0  -0.169808  0  1.255501  0  0  -0.11466  0  1.425145  0  0  -0.123408  0  1.414739  0  -0.628286  0  -0.086268  -0.108222  0  1.432231  0
F  F129  1  0.74099307  0.19034447  0.58041951  1  0  -0.16985  0  1.255711  0  0  -0.114631  0  1.425312  0  0  -0.12338  0  1.414905  0  -0.628118  0  -0.086283  -0.108186  0  1.432404  0
F  F130  1  0.74099002  0.69034163  0.91957677  1  0  -0.169795  0  1.255558  0  0  -0.114666  0  1.42519  0  0  -0.123416  0  1.414783  0  -0.628298  0  -0.086354  -0.108229  0  1.432275  0
F  F131  1  0.25900903  0.80965535  0.41958173  1  0  -0.169818  0  1.255645  0  0  -0.114634  0  1.425265  0  0  -0.123382  0  1.41486  0  -0.628238  0  -0.086271  -0.108191  0  1.432355  0
F  F132  1  0.23453593  0.29119158  0.91658823  1  0  -0.168658  0  1.279645  0  0  -0.106872  0  1.448281  0  0  -0.115846  0  1.440065  0  -0.630693  0  -0.084373  -0.100325  0  1.453949  0
F  F133  1  0.76546546  0.20880626  0.41659071  1  0  -0.168675  0  1.279663  0  0  -0.106893  0  1.4483  0  0  -0.115867  0  1.440083  0  -0.630625  0  -0.084405  -0.100349  0  1.45397  0
F  F134  1  0.76546336  0.70880548  0.08340619  1  0  -0.168686  0  1.279744  0  0  -0.106868  0  1.448368  0  0  -0.115842  0  1.440153  0  -0.630561  0  -0.084341  -0.100323  0  1.454038  0
F  F135  1  0.23454254  0.79119287  0.58341177  1  0  -0.168713  0  1.279631  0  0  -0.106887  0  1.448267  0  0  -0.115863  0  1.440051  0  -0.630681  0  -0.084362  -0.100341  0  1.453936  0
F  F136  1  0.63096469  0.43424386  0.91486641  1  0  -0.167219  0  1.284136  0  0  -0.110784  0  1.456202  0  0  -0.119728  0  1.447628  0  -0.62817  0  -0.083983  -0.104234  0  1.462099  0
F  F137  1  0.36902956  0.06575536  0.41487510  1  0  -0.167243  0  1.284195  0  0  -0.110792  0  1.456278  0  0  -0.119736  0  1.447708  0  -0.628262  0  -0.084003  -0.104243  0  1.462175  0
F  F138  1  0.36903399  0.56575527  0.08512738  1  0  -0.167236  0  1.284272  0  0  -0.11074  0  1.456318  0  0  -0.119685  0  1.447746  0  -0.628322  0  -0.083958  -0.104192  0  1.462214  0
F  F139  1  0.63096288  0.93424032  0.58513048  1  0  -0.16725  0  1.28416  0  0  -0.110809  0  1.456241  0  0  -0.119752  0  1.447669  0  -0.628144  0  -0.084034  -0.10426  0  1.462139  0
F  F140  1  0.65416844  0.45066338  0.07856501  1  0  -0.179467  0  1.276092  0  0  -0.128283  0  1.45432  0  0  -0.137418  0  1.445017  0  -0.63079  0  -0.087612  -0.121605  0  1.460681  0
F  F141  1  0.34583671  0.04933929  0.57857121  1  0  -0.179405  0  1.275945  0  0  -0.12822  0  1.454194  0  0  -0.137356  0  1.444892  0  -0.630736  0  -0.087519  -0.121541  0  1.460556  0
F  F142  1  0.34583395  0.54933368  0.92143003  1  0  -0.179287  0  1.2761  0  0  -0.128139  0  1.454349  0  0  -0.137274  0  1.445047  0  -0.630782  0  -0.0875  -0.121462  0  1.460712  0
F  F143  1  0.65416726  0.95066122  0.42143127  1  0  -0.179494  0  1.276129  0  0  -0.128328  0  1.454377  0  0  -0.137461  0  1.445075  0  -0.63078  0  -0.087611  -0.121649  0  1.460737  0
