# generated using pymatgen
data_Mg3H58C82(NO4)4
_symmetry_space_group_name_H-M   'P 1'
_cell_length_a   8.32480057
_cell_length_b   12.75991267
_cell_length_c   20.89242638
_cell_angle_alpha   73.19783815
_cell_angle_beta   84.68627701
_cell_angle_gamma   76.65238824
_symmetry_Int_Tables_number   1
_chemical_formula_structural   Mg3H58C82(NO4)4
_chemical_formula_sum   'Mg3 H58 C82 N4 O16'
_cell_volume   2066.34075265
_cell_formula_units_Z   1
loop_
 _symmetry_equiv_pos_site_id
 _symmetry_equiv_pos_as_xyz
  1  'x, y, z'
loop_
 _atom_site_type_symbol
 _atom_site_label
 _atom_site_symmetry_multiplicity
 _atom_site_fract_x
 _atom_site_fract_y
 _atom_site_fract_z
 _atom_site_occupancy
 _atom_site_pbe_bader_charge
 _atom_site_pbe_bader_spin_density
 _atom_site_pbe_cm5_charge
 _atom_site_pbe_ddec_charge
 _atom_site_pbe_ddec_spin_density
 _atom_site_pbe_ddec_sum_bond_order
 _atom_site_pbe_magmom
Mg  Mg0  1  0.42724174  0.83273240  0.00226091  1  1.694248  0  0.830418  1.371482  0  1.399393  0
Mg  Mg1  1  0.57276172  0.16726780  0.99773994  1  1.694268  0  0.830418  1.371423  0  1.399522  0
Mg  Mg2  1  0.99999817  0.00000169  0.00000008  1  1.70647  0  0.817574  1.4535  0  1.311703  0
H  H3  1  0.18078038  0.15861016  0.95500396  1  0.614649  0  0.318069  0.397638  0  0.914241  0
H  H4  1  0.24611353  0.09886826  0.02665017  1  0.660572  0  0.306298  0.400243  0  0.932795  0
H  H5  1  0.59188312  0.06216308  0.18187143  1  0.077151  0  0.104156  0.103778  0  1.040359  0
H  H6  1  0.35211252  0.73772021  0.30903146  1  0.059367  0  0.101492  0.103757  0  1.006034  0
H  H7  1  0.34187803  0.80129120  0.18532987  1  0.077004  0  0.105285  0.107674  0  1.028664  0
H  H8  1  0.16537226  0.68404768  0.74518855  1  0.065935  0  0.093617  0.096199  0  1.046956  0
H  H9  1  0.92400829  0.54792607  0.74684614  1  0.084267  0  0.096566  0.099084  0  1.035793  0
H  H10  1  0.62601941  0.98893151  0.30415681  1  0.060238  0  0.102884  0.103924  0  1.001746  0
H  H11  1  0.03062652  0.79358900  0.62861062  1  0.05715  0  0.100116  0.102261  0  1.010985  0
H  H12  1  0.64512547  0.79891438  0.78043318  1  0.105831  0  0.106436  0.112561  0  1.002798  0
H  H13  1  0.13950213  0.14245639  0.85403317  1  0.090621  0  0.107281  0.106994  0  1.024023  0
H  H14  1  0.46879557  0.74223510  0.71332022  1  0.082827  0  0.101466  0.110293  0  1.027497  0
H  H15  1  0.45198474  0.40530595  0.78058246  1  0.084448  0  0.106214  0.112077  0  0.999229  0
H  H16  1  0.32636147  0.70096249  0.83538819  1  0.099203  0  0.102631  0.110033  0  0.998893  0
H  H17  1  0.94746920  0.97872086  0.86277363  1  0.126442  0  0.107783  0.117896  0  1.035175  0
H  H18  1  0.63621943  0.52323106  0.71161274  1  0.062122  0  0.101521  0.10929  0  1.030466  0
H  H19  1  0.07568087  0.55856154  0.63383386  1  0.090268  0  0.100338  0.101187  0  1.012923  0
H  H20  1  0.32052473  0.25555493  0.77719107  1  0.098535  0  0.09403  0.092178  0  1.088165  0
H  H21  1  0.25810862  0.67881075  0.56531302  1  0.090318  0  0.104309  0.115384  0  0.999435  0
H  H22  1  0.56885762  0.56597336  0.51282125  1  0.086093  0  0.10341  0.112612  0  1.008028  0
H  H23  1  0.78283986  0.95790466  0.77580705  1  0.109952  0  0.094291  0.092807  0  1.07267  0
H  H24  1  0.74718941  0.43556748  0.82883841  1  0.077072  0  0.104948  0.109602  0  0.997763  0
H  H25  1  0.52714267  0.90047146  0.52781175  1  0.068064  0  0.101603  0.109712  0  1.027248  0
H  H26  1  0.85563593  0.73456072  0.56153939  1  0.085927  0  0.105214  0.115978  0  0.990067  0
H  H27  1  0.49442431  0.97512230  0.40504903  1  0.029138  0  0.099569  0.09768  0  1.02372  0
H  H28  1  0.53929321  0.63959086  0.39017125  1  0.052021  0  0.097935  0.098381  0  1.031934  0
H  H29  1  0.89620066  0.42931125  0.93805576  1  0.087509  0  0.109143  0.118313  0  0.998985  0
H  H30  1  0.91939870  0.39063435  0.02662437  1  0.070173  0  0.111776  0.118422  0  0.98732  0
H  H31  1  0.72903577  0.39203478  0.99290646  1  0.105888  0  0.116026  0.140556  0  0.998712  0
H  H32  1  0.81921993  0.84139257  0.04499799  1  0.614612  0  0.318064  0.39763  0  0.914239  0
H  H33  1  0.75388703  0.90112946  0.97335170  1  0.660247  0  0.306295  0.400268  0  0.93277  0
H  H34  1  0.40813515  0.93782776  0.81813242  1  0.077771  0  0.104172  0.103779  0  1.040265  0
H  H35  1  0.64787859  0.26228096  0.69096872  1  0.059441  0  0.101484  0.103726  0  1.006094  0
H  H36  1  0.65810699  0.19871837  0.81467193  1  0.076633  0  0.105298  0.107687  0  1.028564  0
H  H37  1  0.83463576  0.31596166  0.25480860  1  0.065676  0  0.093678  0.096294  0  1.046834  0
H  H38  1  0.07597796  0.45207934  0.25315156  1  0.084362  0  0.096567  0.099068  0  1.035899  0
H  H39  1  0.37399791  0.01105433  0.69584747  1  0.060461  0  0.102906  0.103918  0  1.001647  0
H  H40  1  0.96937524  0.20641289  0.37138856  1  0.057191  0  0.100116  0.102253  0  1.011004  0
H  H41  1  0.35487798  0.20108582  0.21956431  1  0.106142  0  0.106397  0.112591  0  1.002814  0
H  H42  1  0.86049064  0.85755144  0.14596482  1  0.090609  0  0.107269  0.107004  0  1.023969  0
H  H43  1  0.53120983  0.25776257  0.28667956  1  0.082824  0  0.101476  0.110302  0  1.027462  0
H  H44  1  0.54800079  0.59470195  0.21942153  1  0.084274  0  0.106206  0.1121  0  0.999227  0
H  H45  1  0.67364219  0.29904940  0.16461011  1  0.099142  0  0.102649  0.110105  0  0.998775  0
H  H46  1  0.05252673  0.02128443  0.13722517  1  0.126789  0  0.107786  0.11792  0  1.035114  0
H  H47  1  0.36377581  0.47676838  0.28839093  1  0.062015  0  0.101553  0.109332  0  1.030358  0
H  H48  1  0.92431797  0.44144206  0.36616225  1  0.090314  0  0.100317  0.101197  0  1.012898  0
H  H49  1  0.67946562  0.74445293  0.22280892  1  0.09843  0  0.094055  0.092244  0  1.088047  0
H  H50  1  0.74189846  0.32118942  0.43468434  1  0.090332  0  0.10432  0.115405  0  0.999462  0
H  H51  1  0.43115846  0.43402085  0.48718066  1  0.086054  0  0.103452  0.112763  0  1.007989  0
H  H52  1  0.21715778  0.04209895  0.22419246  1  0.110065  0  0.094324  0.09293  0  1.072609  0
H  H53  1  0.25279903  0.56443456  0.17115980  1  0.077149  0  0.104943  0.1096  0  0.99775  0
H  H54  1  0.47286832  0.09952364  0.47219066  1  0.067899  0  0.101648  0.1098  0  1.027146  0
H  H55  1  0.14437068  0.26543695  0.43845938  1  0.085973  0  0.105235  0.115999  0  0.990124  0
H  H56  1  0.50558354  0.02487116  0.59495188  1  0.029068  0  0.099597  0.097712  0  1.023702  0
H  H57  1  0.46071705  0.36040258  0.60983149  1  0.052304  0  0.097928  0.098411  0  1.031929  0
H  H58  1  0.10380456  0.57067057  0.06194394  1  0.087622  0  0.109125  0.118322  0  0.99903  0
H  H59  1  0.08059604  0.60936676  0.97337855  1  0.070141  0  0.111777  0.118407  0  0.987306  0
H  H60  1  0.27095974  0.60795549  0.00709403  1  0.106016  0  0.116022  0.140441  0  0.998809  0
C  C61  1  0.54287999  0.98953652  0.20974426  1  0.021442  0  -0.082702  -0.092002  0  3.980306  0
C  C62  1  0.46728223  0.93527137  0.17551985  1  -0.05253  0  -0.016977  -0.04419  0  3.958839  0
C  C63  1  0.40880672  0.80709982  0.28122498  1  -0.062037  0  -0.089416  -0.13784  0  3.9815  0
C  C64  1  0.40034876  0.84358627  0.21194690  1  -0.001219  0  -0.080511  -0.086642  0  3.97367  0
C  C65  1  0.83459194  0.21484402  0.89993370  1  1.585521  0  0.220379  0.612696  0  4.214589  0
C  C66  1  0.49239134  0.85734361  0.31576848  1  -0.018739  0  -0.004118  0.073159  0  4.003887  0
C  C67  1  0.11780411  0.74882947  0.77078634  1  -0.00904  0  -0.097611  -0.14746  0  3.988036  0
C  C68  1  0.96043130  0.81834456  0.75559647  1  -0.051999  0  -0.002178  0.081201  0  3.998103  0
C  C69  1  0.24796861  0.47524110  0.71309541  1  -0.048091  0  -0.015712  0.044488  0  4.018692  0
C  C70  1  0.97139415  0.45894739  0.77034788  1  -0.043852  0  -0.095321  -0.139988  0  3.972753  0
C  C71  1  0.93321615  0.28266162  0.84752858  1  -0.041427  0  -0.026438  -0.060812  0  3.993062  0
C  C72  1  0.24049862  0.84014400  0.91255002  1  1.518394  0  0.209649  0.590192  0  4.20312  0
C  C73  1  0.85277740  0.79758602  0.71026506  1  0.045945  0  -0.014481  0.049616  0  4.012931  0
C  C74  1  0.45958470  0.97203494  0.10101042  1  1.581402  0  0.238201  0.649507  0  4.156349  0
C  C75  1  0.14497313  0.83810565  0.85631122  1  -0.039015  0  -0.024451  -0.054997  0  3.991393  0
C  C76  1  0.45813500  0.61228570  0.63468149  1  0.316393  0  0.091737  0.179801  0  4.038976  0
C  C77  1  0.55887688  0.94938549  0.27871866  1  -0.085268  0  -0.087217  -0.129218  0  3.969438  0
C  C78  1  0.90755369  0.78194743  0.64741906  1  -0.029252  0  -0.091303  -0.119888  0  4.008793  0
C  C79  1  0.69147901  0.78541442  0.73225400  1  -0.100966  0  -0.086715  -0.109368  0  3.982583  0
C  C80  1  0.13577985  0.40936298  0.75688205  1  -0.025485  0  -0.0027  0.078888  0  3.993973  0
C  C81  1  0.09433149  0.23204226  0.83169869  1  -0.049375  0  -0.087049  -0.092436  0  3.982996  0
C  C82  1  0.59241972  0.75293397  0.69475665  1  -0.053218  0  -0.101537  -0.182147  0  4.008013  0
C  C83  1  0.40904244  0.46498614  0.73319920  1  -0.039696  0  -0.088713  -0.115992  0  3.990371  0
C  C84  1  0.20757671  0.75766557  0.82122265  1  -0.102236  0  -0.086894  -0.091191  0  3.987494  0
C  C85  1  0.99354344  0.91271113  0.83803645  1  -0.044829  0  -0.08001  -0.071825  0  3.930325  0
C  C86  1  0.54747285  0.72865911  0.52844536  1  0.269282  0  0.090269  0.17806  0  4.051662  0
C  C87  1  0.51280389  0.53154750  0.69466927  1  -0.01913  0  -0.101193  -0.18141  0  4.006295  0
C  C88  1  0.19824367  0.55122278  0.65129598  1  -0.104227  0  -0.091125  -0.116424  0  4.014049  0
C  C89  1  0.65264430  0.73002582  0.63399821  1  0.287398  0  0.089444  0.174501  0  4.046987  0
C  C90  1  0.19476713  0.29512917  0.78801268  1  -0.063978  0  -0.092745  -0.12458  0  3.969774  0
C  C91  1  0.30071620  0.61890088  0.61256951  1  -0.045594  0  -0.101709  -0.187089  0  4.011974  0
C  C92  1  0.55074299  0.65579171  0.48899444  1  -0.059756  0  -0.099739  -0.176721  0  4.013486  0
C  C93  1  0.90219485  0.90166774  0.78875966  1  -0.058315  0  -0.092555  -0.129247  0  3.958922  0
C  C94  1  0.87231646  0.39658447  0.81603190  1  -0.062861  0  -0.087745  -0.09689  0  3.999455  0
C  C95  1  0.51224422  0.81324226  0.38857762  1  -0.033199  0  -0.014898  0.054187  0  4.008546  0
C  C96  1  0.53000907  0.84379885  0.49726598  1  0.068703  0  -0.100686  -0.180072  0  4.011103  0
C  C97  1  0.80966860  0.74864109  0.60964546  1  -0.062003  0  -0.100298  -0.180961  0  4.008927  0
C  C98  1  0.51322386  0.88502328  0.42843254  1  -0.059845  0  -0.091347  -0.114022  0  3.99651  0
C  C99  1  0.53247398  0.69766651  0.42026271  1  -0.005553  0  -0.089913  -0.113557  0  3.984486  0
C  C100  1  0.70733609  0.62237361  0.00811029  1  1.925699  0  0.369638  0.533546  0  4.239603  0
C  C101  1  0.83297133  0.43390059  0.98587550  1  0.358855  0  -0.106324  -0.169923  0  3.949125  0
C  C102  1  0.45712713  0.01045528  0.79025792  1  0.020872  0  -0.082681  -0.09191  0  3.980132  0
C  C103  1  0.53271761  0.06472468  0.82448281  1  -0.05199  0  -0.016987  -0.044393  0  3.958952  0
C  C104  1  0.59118999  0.19289460  0.71877665  1  -0.061626  0  -0.089446  -0.137912  0  3.981563  0
C  C105  1  0.59964018  0.15641409  0.78805494  1  -0.001324  0  -0.080451  -0.086456  0  3.973587  0
C  C106  1  0.16540086  0.78515964  0.10006598  1  1.585476  0  0.220271  0.612594  0  4.214507  0
C  C107  1  0.50760585  0.14264913  0.68423295  1  -0.019022  0  -0.004172  0.07324  0  4.003907  0
C  C108  1  0.88219642  0.25117660  0.22921406  1  -0.008079  0  -0.097609  -0.147462  0  3.987922  0
C  C109  1  0.03957044  0.18166151  0.24440198  1  -0.051998  0  -0.002168  0.081329  0  3.997996  0
C  C110  1  0.75202394  0.52476339  0.28690508  1  -0.048197  0  -0.015688  0.044608  0  4.018642  0
C  C111  1  0.02859454  0.54105381  0.22965190  1  -0.044215  0  -0.095236  -0.139793  0  3.972898  0
C  C112  1  0.06678587  0.71733526  0.15247146  1  -0.041277  0  -0.026429  -0.06076  0  3.992876  0
C  C113  1  0.75949369  0.15986132  0.08745177  1  1.518562  0  0.209564  0.58997  0  4.203497  0
C  C114  1  0.14722677  0.20241584  0.28973499  1  0.045939  0  -0.014481  0.04959  0  4.013038  0
C  C115  1  0.54042434  0.02796269  0.89899019  1  1.581323  0  0.238123  0.649514  0  4.156096  0
C  C116  1  0.85502254  0.16190465  0.14368910  1  -0.039366  0  -0.024417  -0.054696  0  3.991144  0
C  C117  1  0.54186652  0.38771285  0.36531780  1  0.316426  0  0.091754  0.179751  0  4.03907  0
C  C118  1  0.44113486  0.05060292  0.72128443  1  -0.085738  0  -0.087272  -0.1293  0  3.969486  0
C  C119  1  0.09244952  0.21805361  0.35258069  1  -0.029081  0  -0.091272  -0.119781  0  4.008789  0
C  C120  1  0.30852783  0.21458658  0.26774466  1  -0.100737  0  -0.08682  -0.109677  0  3.982661  0
C  C121  1  0.86421221  0.59064319  0.24311721  1  -0.025404  0  -0.002755  0.078755  0  3.993988  0
C  C122  1  0.90567098  0.76796130  0.16830016  1  -0.048973  0  -0.087075  -0.092573  0  3.982923  0
C  C123  1  0.40758665  0.24706452  0.30524583  1  -0.05395  0  -0.101476  -0.182022  0  4.007899  0
C  C124  1  0.59094890  0.53501836  0.26680181  1  -0.039704  0  -0.088737  -0.116114  0  3.990535  0
C  C125  1  0.79242573  0.24234634  0.17877570  1  -0.102558  0  -0.086947  -0.091427  0  3.987501  0
C  C126  1  0.00644595  0.08729590  0.16196228  1  -0.044687  0  -0.080054  -0.071885  0  3.930183  0
C  C127  1  0.45254057  0.27133180  0.47155435  1  0.268975  0  0.090412  0.177983  0  4.051747  0
C  C128  1  0.48719036  0.46845530  0.30533338  1  -0.019018  0  -0.101178  -0.181332  0  4.006317  0
C  C129  1  0.80175445  0.44877915  0.34870189  1  -0.104207  0  -0.091152  -0.116527  0  4.014049  0
C  C130  1  0.34736160  0.26997017  0.36600376  1  0.286992  0  0.089493  0.174631  0  4.046964  0
C  C131  1  0.80522952  0.70487779  0.21198580  1  -0.06434  0  -0.092702  -0.124539  0  3.969521  0
C  C132  1  0.69928459  0.38110018  0.38743033  1  -0.045583  0  -0.101685  -0.187066  0  4.01206  0
C  C133  1  0.44926608  0.34419757  0.51100716  1  -0.058988  0  -0.099851  -0.177018  0  4.01396  0
C  C134  1  0.09780375  0.09833669  0.21123919  1  -0.058778  0  -0.092604  -0.129555  0  3.959  0
C  C135  1  0.12767829  0.60341248  0.18396936  1  -0.062593  0  -0.087781  -0.096938  0  3.999436  0
C  C136  1  0.48776292  0.18674538  0.61142337  1  -0.033096  0  -0.014813  0.054176  0  4.008799  0
C  C137  1  0.46999684  0.15619297  0.50273529  1  0.068659  0  -0.100796  -0.180086  0  4.010969  0
C  C138  1  0.19033631  0.25135826  0.39035453  1  -0.062173  0  -0.100363  -0.181123  0  4.009069  0
C  C139  1  0.48678351  0.11496769  0.57156787  1  -0.059998  0  -0.091425  -0.114113  0  3.996731  0
C  C140  1  0.46753556  0.30232528  0.57973795  1  -0.005821  0  -0.089871  -0.11345  0  3.984665  0
C  C141  1  0.29266229  0.37761916  0.99188152  1  1.925779  0  0.369496  0.533411  0  4.23976  0
C  C142  1  0.16702635  0.56609050  0.01412333  1  0.358701  0  -0.106241  -0.169759  0  3.949428  0
N  N143  1  0.55808654  0.68682601  0.59876471  1  -1.204546  0  -0.257285  -0.157338  0  3.674724  0
N  N144  1  0.77633521  0.54873908  0.98523688  1  -1.374834  0  -0.282581  -0.243406  0  3.666605  0
N  N145  1  0.44192323  0.31316911  0.40123535  1  -1.204238  0  -0.257335  -0.157241  0  3.674723  0
N  N146  1  0.22365392  0.45126465  0.01475095  1  -1.374816  0  -0.282565  -0.24346  0  3.666706  0
O  O147  1  0.64496298  0.70275066  0.02781012  1  -1.164984  0  -0.235709  -0.424971  0  2.363479  0
O  O148  1  0.14846944  0.11448622  0.99866779  1  -1.289266  0  -0.590431  -0.824117  0  2.04592  0
O  O149  1  0.37087612  0.76468548  0.92972907  1  -1.220267  0  -0.357195  -0.636403  0  2.19404  0
O  O150  1  0.19622632  0.91728449  0.94343535  1  -1.276921  0  -0.359064  -0.716359  0  2.27149  0
O  O151  1  0.70349805  0.26476404  0.92410463  1  -1.22584  0  -0.349062  -0.641153  0  2.240547  0
O  O152  1  0.89005780  0.10880182  0.91828750  1  -1.271641  0  -0.374643  -0.6951  0  2.312737  0
O  O153  1  0.42955776  0.07746834  0.07145298  1  -1.247542  0  -0.353797  -0.670885  0  2.2588  0
O  O154  1  0.48218854  0.89566055  0.07193637  1  -1.236698  0  -0.360861  -0.657982  0  2.315995  0
O  O155  1  0.35503490  0.29724796  0.97218259  1  -1.165133  0  -0.235635  -0.424791  0  2.363761  0
O  O156  1  0.85153014  0.88551485  0.00133448  1  -1.288916  0  -0.590421  -0.824119  0  2.045917  0
O  O157  1  0.62911714  0.23532484  0.07027181  1  -1.220543  0  -0.357133  -0.636361  0  2.194125  0
O  O158  1  0.80376693  0.08272585  0.05656362  1  -1.276835  0  -0.359012  -0.716211  0  2.271787  0
O  O159  1  0.29649402  0.73523794  0.07589633  1  -1.225755  0  -0.34895  -0.641047  0  2.240354  0
O  O160  1  0.10993788  0.89120431  0.08171211  1  -1.271783  0  -0.374642  -0.695161  0  2.312762  0
O  O161  1  0.57044594  0.92253102  0.92854848  1  -1.247571  0  -0.353729  -0.670837  0  2.258655  0
O  O162  1  0.51781519  0.10433462  0.92806678  1  -1.236676  0  -0.36089  -0.658022  0  2.315869  0
