# generated using pymatgen
data_AgH16C12(NO)4
_symmetry_space_group_name_H-M   'P 1'
_cell_length_a   11.57903407
_cell_length_b   11.84892902
_cell_length_c   11.84862210
_cell_angle_alpha   70.23459516
_cell_angle_beta   72.15322532
_cell_angle_gamma   72.15473985
_symmetry_Int_Tables_number   1
_chemical_formula_structural   AgH16C12(NO)4
_chemical_formula_sum   'Ag4 H64 C48 N16 O16'
_cell_volume   1418.41931411
_cell_formula_units_Z   4
loop_
 _symmetry_equiv_pos_site_id
 _symmetry_equiv_pos_as_xyz
  1  'x, y, z'
loop_
 _atom_site_type_symbol
 _atom_site_label
 _atom_site_symmetry_multiplicity
 _atom_site_fract_x
 _atom_site_fract_y
 _atom_site_fract_z
 _atom_site_occupancy
 _atom_site_pbe_bader_charge
 _atom_site_pbe_bader_spin_density
 _atom_site_pbe_cm5_charge
 _atom_site_pbe_ddec_charge
 _atom_site_pbe_ddec_spin_density
 _atom_site_pbe_ddec_sum_bond_order
 _atom_site_pbe_magmom
Ag  Ag0  1  0.13154568  0.83334262  0.48024419  1  0.621281  -0.037292  0.497249  0.380052  -0.085469  1.96423  -0.036
Ag  Ag1  1  0.63155235  0.48024743  0.83334614  1  0.621139  -0.037311  0.497231  0.379998  -0.085509  1.964238  -0.036
Ag  Ag2  1  0.86845509  0.16665320  0.51975295  1  0.621175  -0.037296  0.497273  0.380003  -0.085474  1.964252  -0.036
Ag  Ag3  1  0.36844575  0.51975579  0.16666025  1  0.621184  -0.037306  0.497252  0.380053  -0.085499  1.964236  -0.036
H  H4  1  0.56060106  0.69971668  0.61518430  1  0.121018  -0.000374  0.120622  0.093027  -0.000483  1.027397  0.0
H  H5  1  0.06059824  0.61517960  0.69969980  1  0.121213  -0.000374  0.120688  0.093152  -0.000483  1.027438  0.0
H  H6  1  0.43939268  0.30029389  0.38481581  1  0.122043  -0.000376  0.120625  0.093028  -0.000483  1.027424  0.0
H  H7  1  0.93940285  0.38481070  0.30030080  1  0.12121  -0.000374  0.120627  0.093158  -0.000483  1.027443  0.0
H  H8  1  0.29350077  0.62426520  0.48044882  1  0.066307  -0.000272  0.099436  0.087827  -0.000105  1.049678  0.0
H  H9  1  0.79350121  0.48044284  0.62425275  1  0.06612  -0.000272  0.099472  0.087832  -0.000105  1.049671  0.0
H  H10  1  0.70650097  0.37573431  0.51954763  1  0.066122  -0.000272  0.099393  0.08773  -0.000105  1.049732  0.0
H  H11  1  0.20648998  0.51955486  0.37575669  1  0.065773  -0.000272  0.099458  0.087826  -0.000105  1.049709  0.0
H  H12  1  0.30227838  0.42455479  0.64847908  1  0.109854  -0.001696  0.110621  0.118288  -0.002504  1.028791  0.0
H  H13  1  0.80226108  0.64848308  0.42455589  1  0.109128  -0.001704  0.110719  0.11832  -0.002504  1.028914  0.0
H  H14  1  0.69772786  0.57544471  0.35152112  1  0.109678  -0.001696  0.11067  0.118355  -0.002504  1.028812  0.0
H  H15  1  0.19772920  0.35151463  0.57545382  1  0.109331  -0.001704  0.110687  0.118294  -0.002504  1.028964  0.0
H  H16  1  0.35331083  0.91185528  0.15365702  1  0.066679  -2e-06  0.090085  0.130194  -5.9e-05  1.014945  0.0
H  H17  1  0.85331647  0.15365528  0.91185020  1  0.066462  -2e-06  0.09007  0.130162  -5.9e-05  1.014976  0.0
H  H18  1  0.64669298  0.08814699  0.84634042  1  0.066671  -2e-06  0.090083  0.130171  -5.9e-05  1.014984  0.0
H  H19  1  0.14668797  0.84634423  0.08814715  1  0.066537  -2e-06  0.09008  0.130162  -5.9e-05  1.014963  0.0
H  H20  1  0.31718602  0.07574294  0.12230540  1  0.083943  -0.001849  0.094462  0.14488  -0.001154  1.01276  -0.001
H  H21  1  0.81718556  0.12230185  0.07574231  1  0.081015  -0.001857  0.094466  0.144866  -0.001154  1.012717  -0.001
H  H22  1  0.68281758  0.92426025  0.87769179  1  0.081098  -0.001857  0.09448  0.14488  -0.001154  1.012739  -0.001
H  H23  1  0.18281765  0.87769121  0.92425506  1  0.081045  -0.001857  0.09447  0.14487  -0.001154  1.012757  -0.001
H  H24  1  0.20197432  0.99104792  0.21638981  1  0.025057  0.000357  0.088392  0.128143  0.000466  1.028087  0.0
H  H25  1  0.70198039  0.21638110  0.99104418  1  0.024927  0.000357  0.088436  0.128169  0.000466  1.028066  0.0
H  H26  1  0.79802588  0.00895435  0.78360616  1  0.025099  0.000357  0.08839  0.128168  0.000466  1.028087  0.0
H  H27  1  0.29802330  0.78361379  0.00895242  1  0.025074  0.000357  0.088433  0.128179  0.000466  1.028105  0.0
H  H28  1  0.44125461  0.37412518  0.79155215  1  0.151642  -9.8e-05  0.117717  0.092822  2.9e-05  1.033826  0.0
H  H29  1  0.94123210  0.79156247  0.37411330  1  0.151457  -9.8e-05  0.11776  0.0929  2.9e-05  1.033781  0.0
H  H30  1  0.55874518  0.62588263  0.20844965  1  0.151398  -9.8e-05  0.117757  0.092832  2.9e-05  1.033833  0.0
H  H31  1  0.05876472  0.20843061  0.62588930  1  0.151448  -9.8e-05  0.117774  0.092878  2.9e-05  1.033868  0.0
H  H32  1  0.27570532  0.07268369  0.45548266  1  0.041252  -0.000555  0.086396  0.126587  -0.000792  1.016837  0.0
H  H33  1  0.77570095  0.45547183  0.07268155  1  0.041404  -0.000555  0.086356  0.126555  -0.000792  1.016775  0.0
H  H34  1  0.72429738  0.92731950  0.54451480  1  0.041232  -0.000554  0.086399  0.126605  -0.000792  1.016825  0.0
H  H35  1  0.22429586  0.54452125  0.92732359  1  0.041288  -0.000555  0.086386  0.126657  -0.000791  1.016806  0.0
H  H36  1  0.15928922  0.08089318  0.38198547  1  0.078519  0.000368  0.085813  0.132324  0.000446  1.05034  0.0
H  H37  1  0.65928926  0.38197305  0.08089030  1  0.078326  0.000368  0.085825  0.132335  0.000447  1.050295  0.0
H  H38  1  0.84071074  0.91911002  0.61801447  1  0.078342  0.000368  0.085813  0.132353  0.000447  1.05033  0.0
H  H39  1  0.34070938  0.61802002  0.91911093  1  0.078335  0.000368  0.085809  0.132338  0.000447  1.050408  0.0
H  H40  1  0.27070428  0.17270626  0.30388151  1  0.092728  -0.002529  0.090913  0.146867  -0.001632  1.027664  -0.002
H  H41  1  0.77069936  0.30387702  0.17270899  1  0.092672  -0.002531  0.090923  0.146867  -0.001633  1.027725  -0.002
H  H42  1  0.72929702  0.82729509  0.69611698  1  0.092748  -0.00253  0.090928  0.146916  -0.001633  1.027628  -0.002
H  H43  1  0.22929858  0.69611513  0.82729360  1  0.092783  -0.002531  0.090939  0.146932  -0.001633  1.02764  -0.002
H  H44  1  0.46559760  0.08660174  0.40649409  1  0.025196  -0.000914  0.086689  0.118349  -0.001582  1.04795  0.0
H  H45  1  0.96559528  0.40649702  0.08659074  1  0.025198  -0.000913  0.0867  0.118393  -0.001582  1.047933  0.0
H  H46  1  0.53440437  0.91340881  0.59349603  1  0.024937  -0.000914  0.086684  0.118355  -0.001583  1.047952  0.0
H  H47  1  0.03440322  0.59350066  0.91340982  1  0.025233  -0.000913  0.086675  0.118365  -0.001582  1.047968  0.0
H  H48  1  0.49448547  0.15972722  0.24548280  1  0.03462  -0.000699  0.096666  0.145137  -0.000325  0.997807  0.0
H  H49  1  0.99448084  0.24549094  0.15972270  1  0.034722  -0.000698  0.096661  0.145181  -0.000325  0.997816  0.0
H  H50  1  0.50551616  0.84027688  0.75450791  1  0.034775  -0.000699  0.096673  0.145199  -0.000325  0.997809  0.0
H  H51  1  0.00552039  0.75450673  0.84027706  1  0.03476  -0.000699  0.096665  0.145163  -0.000325  0.997842  0.0
H  H52  1  0.61725603  0.05191500  0.31099517  1  0.068362  -9e-05  0.093213  0.139686  0.000173  1.024368  0.0
H  H53  1  0.11725191  0.31100215  0.05190417  1  0.068419  -9e-05  0.093271  0.139789  0.000173  1.024309  0.0
H  H54  1  0.38274545  0.94809371  0.68899656  1  0.068392  -9e-05  0.093229  0.13973  0.000173  1.024343  0.0
H  H55  1  0.88274617  0.68899737  0.94809588  1  0.068385  -9e-05  0.093253  0.139772  0.000173  1.024315  0.0
H  H56  1  0.55381342  0.87115063  0.14665464  1  0.085706  0.000262  0.092584  0.140921  0.000109  1.041051  0.0
H  H57  1  0.05382140  0.14665130  0.87114597  1  0.085669  0.000262  0.092613  0.141003  0.000109  1.04105  0.0
H  H58  1  0.44618506  0.12884706  0.85334845  1  0.085735  0.000262  0.092587  0.140931  0.000109  1.041039  0.0
H  H59  1  0.94617983  0.85334637  0.12885295  1  0.085674  0.000262  0.0926  0.140984  0.000109  1.041031  0.0
H  H60  1  0.66361121  0.93535567  0.16743169  1  0.065233  -0.000495  0.095135  0.137595  -0.000239  1.011616  0.0
H  H61  1  0.16361337  0.16743680  0.93535167  1  0.065176  -0.000495  0.095127  0.137579  -0.00024  1.01166  0.0
H  H62  1  0.33638961  0.06464384  0.83256672  1  0.065447  -0.000494  0.095149  0.137643  -0.000239  1.01161  0.0
H  H63  1  0.83638945  0.83256179  0.06464816  1  0.065407  -0.000494  0.095145  0.13763  -0.00024  1.011635  0.0
H  H64  1  0.54270726  0.03269866  0.09168824  1  0.07229  -0.001117  0.097529  0.149753  -0.000671  1.00463  0.0
H  H65  1  0.04270720  0.09169506  0.03269828  1  0.072393  -0.001116  0.09754  0.14977  -0.00067  1.004558  0.0
H  H66  1  0.45729397  0.96729901  0.90831067  1  0.072287  -0.001117  0.097525  0.149752  -0.000671  1.004611  0.0
H  H67  1  0.95729361  0.90830445  0.96730098  1  0.072365  -0.001116  0.09755  0.149797  -0.00067  1.004574  0.0
C  C68  1  0.41701393  0.79784383  0.44218963  1  1.024032  0.033325  0.236442  0.216429  0.024105  4.01082  0.035
C  C69  1  0.91702093  0.44217945  0.79783444  1  1.024214  0.033321  0.236406  0.216334  0.024097  4.011281  0.035
C  C70  1  0.58298515  0.20215937  0.55780720  1  1.023784  0.033323  0.236368  0.216357  0.024105  4.010866  0.035
C  C71  1  0.08297665  0.55781824  0.20216892  1  1.024198  0.033319  0.236393  0.216303  0.024095  4.011203  0.035
C  C72  1  0.48432477  0.97039592  0.28959322  1  0.258  0.001243  0.085136  0.192591  -0.000212  3.70485  0.006
C  C73  1  0.98433005  0.28959014  0.97038888  1  0.258388  0.001243  0.085055  0.192515  -0.000208  3.705019  0.006
C  C74  1  0.51567458  0.02961004  0.71040260  1  0.258232  0.00124  0.085047  0.192514  -0.000212  3.704949  0.006
C  C75  1  0.01566975  0.71040570  0.02961530  1  0.258456  0.001243  0.085034  0.192376  -0.00021  3.705241  0.006
C  C76  1  0.42436675  0.67905907  0.53648243  1  -0.014546  -0.004736  0.002885  -0.00568  -0.002066  3.996836  -0.004
C  C77  1  0.92436514  0.53647903  0.67904921  1  -0.014739  -0.004737  0.00296  -0.005481  -0.002067  3.996665  -0.004
C  C78  1  0.57563567  0.32094136  0.46351605  1  -0.01427  -0.004738  0.002971  -0.005664  -0.002067  3.996863  -0.004
C  C79  1  0.07563333  0.46351866  0.32095473  1  -0.014889  -0.004736  0.00301  -0.005344  -0.002067  3.996596  -0.004
C  C80  1  0.50144823  0.64203179  0.61940808  1  0.522874  0.006232  0.054431  0.059395  0.006571  3.874351  0.004
C  C81  1  0.00144282  0.61940534  0.64202203  1  0.523216  0.006233  0.054292  0.059155  0.006573  3.874445  0.004
C  C82  1  0.49855111  0.35797417  0.38059112  1  0.521674  0.006235  0.054351  0.059351  0.006572  3.874367  0.004
C  C83  1  0.99855720  0.38058957  0.35798071  1  0.523065  0.006234  0.054308  0.058909  0.006573  3.874395  0.004
C  C84  1  0.34094876  0.97971456  0.30847411  1  0.27551  -0.000913  0.083477  0.268646  -0.001806  3.723842  0.002
C  C85  1  0.84094689  0.30847223  0.97970369  1  0.27676  -0.000911  0.083468  0.268456  -0.001812  3.724039  0.002
C  C86  1  0.65905471  0.02029323  0.69152157  1  0.275559  -0.000916  0.083515  0.26869  -0.001809  3.723689  0.002
C  C87  1  0.15905363  0.69152452  0.02029658  1  0.275673  -0.000915  0.083504  0.268642  -0.00181  3.723976  0.002
C  C88  1  0.35200372  0.59919303  0.54580444  1  0.013183  0.00492  -0.064867  -0.070415  0.005177  3.947909  0.003
C  C89  1  0.85199881  0.54580163  0.59917970  1  0.012874  0.00492  -0.06498  -0.070573  0.005177  3.948115  0.003
C  C90  1  0.64799939  0.40080832  0.45419352  1  0.013236  0.004921  -0.06489  -0.070301  0.005178  3.947826  0.003
C  C91  1  0.14799643  0.45419422  0.40082834  1  0.013393  0.00492  -0.065045  -0.070677  0.005177  3.948152  0.003
C  C92  1  0.35743753  0.48864919  0.63733691  1  0.024053  -0.003067  -0.079979  -0.106906  -0.002835  3.955752  -0.002
C  C93  1  0.85741803  0.63733518  0.48864330  1  0.024811  -0.003068  -0.080047  -0.106873  -0.002835  3.95592  -0.002
C  C94  1  0.64256766  0.51135492  0.36266204  1  0.02422  -0.003068  -0.079993  -0.106994  -0.002835  3.95586  -0.002
C  C95  1  0.14257562  0.36265976  0.51136467  1  0.024094  -0.003068  -0.079907  -0.106639  -0.002835  3.955926  -0.002
C  C96  1  0.30178699  0.98992485  0.19238563  1  -0.085354  -0.010819  -0.243543  -0.429062  -0.011403  3.84503  -0.009
C  C97  1  0.80178832  0.19237856  0.98991991  1  -0.082285  -0.010821  -0.243569  -0.428951  -0.011411  3.844853  -0.009
C  C98  1  0.69821570  0.01007834  0.80761268  1  -0.082514  -0.010818  -0.243545  -0.429039  -0.011409  3.844975  -0.009
C  C99  1  0.19821426  0.80761727  0.01007671  1  -0.082486  -0.010817  -0.243566  -0.428977  -0.011408  3.844976  -0.009
C  C100  1  0.43514238  0.45935338  0.71732880  1  0.429494  0.004002  0.051658  0.099876  0.00441  3.887224  0.003
C  C101  1  0.93512586  0.71733165  0.45934675  1  0.429004  0.004004  0.051491  0.09982  0.004412  3.887169  0.003
C  C102  1  0.56485874  0.54065259  0.28267240  1  0.429663  0.004002  0.051526  0.099825  0.004411  3.887336  0.003
C  C103  1  0.06487094  0.28266144  0.54065839  1  0.429334  0.004003  0.051426  0.09964  0.004412  3.887318  0.003
C  C104  1  0.25693990  0.08315230  0.36672733  1  -0.123987  -0.015211  -0.253021  -0.444953  -0.016078  3.852906  -0.012
C  C105  1  0.75693739  0.36672066  0.08315279  1  -0.124549  -0.015229  -0.253037  -0.444926  -0.01609  3.85262  -0.012
C  C106  1  0.74306119  0.91684997  0.63327091  1  -0.123799  -0.01522  -0.253067  -0.445084  -0.016087  3.852756  -0.012
C  C107  1  0.24306193  0.63327334  0.91685130  1  -0.123876  -0.01522  -0.253096  -0.445162  -0.016087  3.852915  -0.012
C  C108  1  0.51695195  0.07328711  0.31575443  1  -0.032994  -0.013339  -0.24356  -0.434597  -0.013598  3.876483  -0.01
C  C109  1  0.01695093  0.31576044  0.07327829  1  -0.033146  -0.013333  -0.243606  -0.4348  -0.013593  3.876627  -0.01
C  C110  1  0.48304974  0.92672067  0.68423670  1  -0.032984  -0.01334  -0.24356  -0.434757  -0.0136  3.876596  -0.01
C  C111  1  0.98304847  0.68423724  0.92672369  1  -0.033192  -0.013337  -0.243562  -0.434723  -0.013595  3.876708  -0.01
C  C112  1  0.56568718  0.95032874  0.16608233  1  -0.117896  -0.018523  -0.241417  -0.440534  -0.018849  3.861229  -0.014
C  C113  1  0.06569098  0.16608456  0.95032322  1  -0.118088  -0.018514  -0.241447  -0.440605  -0.018839  3.861246  -0.014
C  C114  1  0.43431272  0.04967077  0.83391719  1  -0.117982  -0.018523  -0.241445  -0.440608  -0.018849  3.861212  -0.014
C  C115  1  0.93430871  0.83391587  0.04967605  1  -0.11806  -0.018518  -0.241477  -0.440658  -0.018843  3.861281  -0.014
N  N116  1  0.31763756  0.86193034  0.39985374  1  -1.033486  -0.267599  -0.339502  -0.307948  -0.255575  3.374963  -0.207
N  N117  1  0.81764290  0.39984235  0.86192615  1  -1.034129  -0.26766  -0.339393  -0.307782  -0.25563  3.375233  -0.207
N  N118  1  0.68236054  0.13806918  0.60014462  1  -1.033484  -0.267622  -0.339442  -0.307802  -0.255598  3.374809  -0.207
N  N119  1  0.18235487  0.60015442  0.13807999  1  -1.033638  -0.267652  -0.339392  -0.307826  -0.25562  3.375108  -0.207
N  N120  1  0.51711834  0.85315687  0.38720612  1  -0.39086  -0.282295  -0.093109  0.189704  -0.262471  3.731335  -0.207
N  N121  1  0.01712030  0.38720585  0.85313792  1  -0.390875  -0.282229  -0.093097  0.189732  -0.26241  3.731717  -0.207
N  N122  1  0.48288077  0.14685001  0.61279367  1  -0.390829  -0.282267  -0.0931  0.189731  -0.262449  3.731507  -0.207
N  N123  1  0.98287756  0.61279459  0.14686358  1  -0.391522  -0.282231  -0.093115  0.189762  -0.262412  3.731867  -0.207
N  N124  1  0.50670670  0.53444553  0.70778909  1  -1.205615  -0.00241  -0.34367  -0.203737  -0.002717  3.613146  -0.002
N  N125  1  0.00669691  0.70779434  0.53443812  1  -1.205327  -0.002409  -0.343584  -0.203793  -0.002716  3.6132  -0.002
N  N126  1  0.49329131  0.46556227  0.29220902  1  -1.205427  -0.002409  -0.343583  -0.203711  -0.002717  3.613202  -0.002
N  N127  1  0.99330303  0.29219690  0.46556673  1  -1.20504  -0.002411  -0.343546  -0.203522  -0.002717  3.613029  -0.002
N  N128  1  0.09738550  0.95540474  0.68815590  1  0.8381  9.8e-05  0.094517  0.714202  9.6e-05  4.422609  0.0
N  N129  1  0.59739111  0.68814803  0.95540739  1  0.838  9.8e-05  0.09455  0.714166  9.6e-05  4.422498  0.0
N  N130  1  0.90261501  0.04459202  0.31184607  1  0.837616  9.7e-05  0.094357  0.713863  9.6e-05  4.422841  0.0
N  N131  1  0.40260969  0.31185149  0.04459271  1  0.838385  9.8e-05  0.094525  0.714147  9.6e-05  4.422503  0.0
O  O132  1  0.62606781  0.80972909  0.40773338  1  -0.499167  -0.375289  -0.147894  -0.330587  -0.351149  1.944753  -0.303
O  O133  1  0.12606827  0.40773405  0.80971004  1  -0.499192  -0.375252  -0.147859  -0.330548  -0.351117  1.944829  -0.303
O  O134  1  0.37393199  0.19027872  0.59226759  1  -0.499166  -0.375264  -0.147854  -0.330562  -0.35113  1.94481  -0.303
O  O135  1  0.87393114  0.59226362  0.19029109  1  -0.498631  -0.375264  -0.147849  -0.330542  -0.351127  1.944857  -0.303
O  O136  1  0.02237040  0.96573684  0.62219281  1  -0.589435  -0.006369  -0.218838  -0.470277  -0.00598  2.150148  -0.006
O  O137  1  0.52237671  0.62218301  0.96574177  1  -0.589278  -0.006374  -0.218869  -0.47024  -0.005985  2.150101  -0.006
O  O138  1  0.97763468  0.03425990  0.37780445  1  -0.588974  -0.006369  -0.218798  -0.470166  -0.00598  2.150128  -0.006
O  O139  1  0.47762468  0.37781376  0.03426500  1  -0.589694  -0.006373  -0.218837  -0.470252  -0.005984  2.150102  -0.006
O  O140  1  0.19838201  0.87525648  0.68187365  1  -0.537058  -0.001236  -0.191347  -0.450983  -0.00104  1.985445  -0.001
O  O141  1  0.69839545  0.68185731  0.87526599  1  -0.537108  -0.001236  -0.191319  -0.450924  -0.001039  1.985405  -0.001
O  O142  1  0.80161636  0.12473753  0.31813578  1  -0.536943  -0.001237  -0.191306  -0.45087  -0.00104  1.985462  -0.001
O  O143  1  0.30160314  0.31814404  0.12473161  1  -0.537111  -0.001236  -0.191324  -0.450921  -0.001039  1.985371  -0.001
O  O144  1  0.06757687  0.02520735  0.75737340  1  -0.564413  -0.001018  -0.19127  -0.457569  -0.000779  1.984819  -0.001
O  O145  1  0.56757266  0.75737541  0.02520194  1  -0.564461  -0.001019  -0.191314  -0.457609  -0.00078  1.984762  -0.001
O  O146  1  0.93241848  0.97479218  0.24262830  1  -0.564419  -0.001018  -0.19119  -0.457421  -0.000779  1.984907  -0.001
O  O147  1  0.43242913  0.24262778  0.97479494  1  -0.564314  -0.001019  -0.191313  -0.45759  -0.00078  1.984731  -0.001
