# generated using pymatgen
data_CdH12(C9N7)2
_symmetry_space_group_name_H-M   'P 1'
_cell_length_a   7.56962684
_cell_length_b   9.76591926
_cell_length_c   13.74609827
_cell_angle_alpha   94.62824309
_cell_angle_beta   89.99924435
_cell_angle_gamma   89.99985677
_symmetry_Int_Tables_number   1
_chemical_formula_structural   CdH12(C9N7)2
_chemical_formula_sum   'Cd2 H24 C36 N28'
_cell_volume   1012.85807162
_cell_formula_units_Z   2
loop_
 _symmetry_equiv_pos_site_id
 _symmetry_equiv_pos_as_xyz
  1  'x, y, z'
loop_
 _atom_site_type_symbol
 _atom_site_label
 _atom_site_symmetry_multiplicity
 _atom_site_fract_x
 _atom_site_fract_y
 _atom_site_fract_z
 _atom_site_occupancy
 _atom_site_hle17_bader_spin_density
 _atom_site_hle17_ddec_charge
 _atom_site_hle17_ddec_spin_density
 _atom_site_hle17_ddec_sum_bond_order
 _atom_site_hle17_magmom
 _atom_site_hse06_10hf_bader_spin_density
 _atom_site_hse06_10hf_ddec_charge
 _atom_site_hse06_10hf_ddec_spin_density
 _atom_site_hse06_10hf_ddec_sum_bond_order
 _atom_site_hse06_10hf_magmom
 _atom_site_hse06_bader_spin_density
 _atom_site_hse06_ddec_charge
 _atom_site_hse06_ddec_spin_density
 _atom_site_hse06_ddec_sum_bond_order
 _atom_site_hse06_magmom
 _atom_site_pbe_bader_spin_density
 _atom_site_pbe_cm5_charge
 _atom_site_pbe_ddec_charge
 _atom_site_pbe_ddec_spin_density
 _atom_site_pbe_ddec_sum_bond_order
 _atom_site_pbe_magmom
Cd  Cd0  1  0.99998019  0.99999456  0.99999993  1  0  1.146958  0  1.891686  0  0  0.956667  0  2.387504  0  0  1.003426  0  2.340361  0  0  0.839135  0.924078  0  2.41928  0
Cd  Cd1  1  0.50002134  0.00000236  0.49999985  1  0  1.146935  0  1.891821  0  0  0.956639  0  2.387652  0  0  1.003396  0  2.340503  0  0  0.839131  0.924051  0  2.419422  0
H  H2  1  0.99278458  0.68092844  0.13633733  1  0  0.11558  0  0.97744  0  0  0.120189  0  1.047864  0  0  0.123854  0  1.045214  0  0  0.110477  0.117439  0  1.049802  0
H  H3  1  0.49278427  0.31907467  0.36366211  1  0  0.115545  0  0.977461  0  0  0.120194  0  1.047847  0  0  0.123859  0  1.045192  0  0  0.110455  0.117448  0  1.049781  0
H  H4  1  0.00722071  0.31906390  0.86365759  1  0  0.115555  0  0.977561  0  0  0.120171  0  1.047967  0  0  0.123838  0  1.045314  0  0  0.110449  0.117423  0  1.049904  0
H  H5  1  0.50721308  0.68093213  0.63634449  1  0  0.115552  0  0.977498  0  0  0.120209  0  1.047856  0  0  0.123878  0  1.045201  0  0  0.110441  0.117458  0  1.04979  0
H  H6  1  0.01154403  0.86063682  0.27478816  1  0  0.108554  0  0.964799  0  0  0.118749  0  1.023645  0  0  0.120691  0  1.024418  0  0  0.106625  0.117427  0  1.023083  0
H  H7  1  0.51155070  0.13936856  0.22521201  1  0  0.108577  0  0.964773  0  0  0.11877  0  1.023603  0  0  0.120718  0  1.024379  0  0  0.106628  0.117449  0  1.023039  0
H  H8  1  0.98845729  0.13935655  0.72520827  1  0  0.108545  0  0.964812  0  0  0.118772  0  1.02362  0  0  0.120713  0  1.024393  0  0  0.106629  0.117452  0  1.023062  0
H  H9  1  0.48844534  0.86063619  0.77479594  1  0  0.10855  0  0.964803  0  0  0.118773  0  1.023615  0  0  0.120721  0  1.024383  0  0  0.106618  0.117449  0  1.023059  0
H  H10  1  0.93682023  0.79673764  0.44422774  1  0  0.067819  0  0.960652  0  0  0.076212  0  1.026314  0  0  0.077573  0  1.025962  0  0  0.107745  0.075085  0  1.026847  0
H  H11  1  0.43682633  0.20326356  0.05577201  1  0  0.067842  0  0.960586  0  0  0.076229  0  1.026245  0  0  0.077591  0  1.025891  0  0  0.107738  0.075101  0  1.026775  0
H  H12  1  0.06317581  0.20325573  0.55576796  1  0  0.067807  0  0.960685  0  0  0.076211  0  1.026285  0  0  0.077575  0  1.025926  0  0  0.107721  0.075083  0  1.026821  0
H  H13  1  0.56317103  0.79673707  0.94423427  1  0  0.067742  0  0.960715  0  0  0.076156  0  1.026309  0  0  0.077517  0  1.025957  0  0  0.107707  0.075025  0  1.026847  0
H  H14  1  0.82956981  0.39439145  0.34379082  1  0  0.091461  0  0.958755  0  0  0.092646  0  1.037178  0  0  0.095989  0  1.034222  0  0  0.113023  0.090287  0  1.039301  0
H  H15  1  0.32956288  0.60560901  0.15620967  1  0  0.091457  0  0.958776  0  0  0.092609  0  1.03725  0  0  0.095947  0  1.0343  0  0  0.113019  0.090251  0  1.039372  0
H  H16  1  0.17043152  0.60560294  0.65620421  1  0  0.091379  0  0.958698  0  0  0.092554  0  1.03718  0  0  0.095897  0  1.034223  0  0  0.113014  0.090196  0  1.039296  0
H  H17  1  0.67043580  0.39439263  0.84379375  1  0  0.091419  0  0.958717  0  0  0.092622  0  1.037142  0  0  0.095949  0  1.034203  0  0  0.113019  0.090267  0  1.039267  0
H  H18  1  0.01948813  0.24371213  0.21004939  1  0  0.111457  0  0.963358  0  0  0.116169  0  1.032669  0  0  0.11869  0  1.030397  0  0  0.139958  0.114087  0  1.034671  0
H  H19  1  0.51948981  0.75629114  0.28994552  1  0  0.111517  0  0.963332  0  0  0.116292  0  1.032557  0  0  0.1188  0  1.0303  0  0  0.139977  0.114204  0  1.034568  0
H  H20  1  0.98050658  0.75628021  0.78994553  1  0  0.111502  0  0.963341  0  0  0.116257  0  1.032595  0  0  0.118763  0  1.030341  0  0  0.139971  0.114201  0  1.034574  0
H  H21  1  0.48051944  0.24371152  0.71005650  1  0  0.111566  0  0.963219  0  0  0.116257  0  1.032546  0  0  0.118761  0  1.030297  0  0  0.140008  0.114244  0  1.034481  0
H  H22  1  0.75954336  0.52474708  0.03688100  1  0  0.113732  0  0.955505  0  0  0.113099  0  1.03006  0  0  0.117448  0  1.025187  0  0  0.136349  0.109696  0  1.033964  0
H  H23  1  0.25954543  0.47526386  0.46312348  1  0  0.11369  0  0.955453  0  0  0.113045  0  1.030043  0  0  0.117393  0  1.025172  0  0  0.136349  0.109649  0  1.033943  0
H  H24  1  0.24045400  0.47524939  0.96311632  1  0  0.113777  0  0.955527  0  0  0.113152  0  1.030051  0  0  0.117498  0  1.025185  0  0  0.136378  0.109742  0  1.033964  0
H  H25  1  0.74045061  0.52475012  0.53688206  1  0  0.113738  0  0.955543  0  0  0.113119  0  1.030075  0  0  0.117469  0  1.025203  0  0  0.136371  0.109718  0  1.033979  0
C  C26  1  0.95823250  0.65736109  0.21021146  1  0  -0.096007  0  3.710173  0  0  -0.11912  0  3.956997  0  0  -0.119085  0  3.976271  0  0  -0.072571  -0.118765  0  3.943902  0
C  C27  1  0.45823784  0.34264415  0.28978762  1  0  -0.095971  0  3.710289  0  0  -0.119133  0  3.957129  0  0  -0.119095  0  3.976409  0  0  -0.072523  -0.118785  0  3.944042  0
C  C28  1  0.04176618  0.34263228  0.78978424  1  0  -0.095952  0  3.710389  0  0  -0.119097  0  3.957223  0  0  -0.119053  0  3.976482  0  0  -0.072539  -0.118747  0  3.944137  0
C  C29  1  0.54176084  0.65736264  0.71021826  1  0  -0.095938  0  3.710196  0  0  -0.119137  0  3.95706  0  0  -0.119096  0  3.97633  0  0  -0.072523  -0.11878  0  3.943956  0
C  C30  1  0.97051206  0.75700415  0.28808850  1  0  -0.101566  0  3.731354  0  0  -0.110287  0  3.974233  0  0  -0.116985  0  3.998611  0  0  -0.083597  -0.106001  0  3.957841  0
C  C31  1  0.47051695  0.24300005  0.21191262  1  0  -0.101533  0  3.731398  0  0  -0.110239  0  3.974254  0  0  -0.116947  0  3.998642  0  0  -0.083599  -0.105953  0  3.957865  0
C  C32  1  0.02948926  0.24299126  0.71190659  1  0  -0.101647  0  3.731722  0  0  -0.110399  0  3.974592  0  0  -0.117094  0  3.998975  0  0  -0.083665  -0.106113  0  3.95821  0
C  C33  1  0.52948305  0.75700368  0.78809601  1  0  -0.101579  0  3.731518  0  0  -0.110322  0  3.974393  0  0  -0.117027  0  3.998782  0  0  -0.083644  -0.10604  0  3.958005  0
C  C34  1  0.93032012  0.72084411  0.38170204  1  0  0.114468  0  3.733891  0  0  0.084681  0  3.997142  0  0  0.089891  0  4.01587  0  0  0.040652  0.081275  0  3.984742  0
C  C35  1  0.43032712  0.27915915  0.11829787  1  0  0.114422  0  3.733913  0  0  0.084654  0  3.997139  0  0  0.089866  0  4.015868  0  0  0.040673  0.081249  0  3.984738  0
C  C36  1  0.06967591  0.27915028  0.61829299  1  0  0.114552  0  3.734147  0  0  0.084794  0  3.997378  0  0  0.090002  0  4.016109  0  0  0.040737  0.081388  0  3.98498  0
C  C37  1  0.56967024  0.72084354  0.88170925  1  0  0.114535  0  3.734034  0  0  0.084787  0  3.997256  0  0  0.089998  0  4.015988  0  0  0.04074  0.081386  0  3.984851  0
C  C38  1  0.86948330  0.49704229  0.32611865  1  0  0.029563  0  3.711419  0  0  -0.005493  0  3.980368  0  0  -0.00076  0  3.995582  0  0  0.037002  -0.008616  0  3.97031  0
C  C39  1  0.36948159  0.50296113  0.17388098  1  0  0.029547  0  3.71131  0  0  -0.005503  0  3.980272  0  0  -0.000766  0  3.995485  0  0  0.037017  -0.008624  0  3.970209  0
C  C40  1  0.13051406  0.50295108  0.67387705  1  0  0.029699  0  3.711601  0  0  -0.005401  0  3.980572  0  0  -0.000667  0  3.995775  0  0  0.036963  -0.008521  0  3.970499  0
C  C41  1  0.63051577  0.49704256  0.82612255  1  0  0.029674  0  3.711488  0  0  -0.005459  0  3.980487  0  0  -0.000709  0  3.995704  0  0  0.036942  -0.00859  0  3.970432  0
C  C42  1  0.90682970  0.52516513  0.23000679  1  0  0.116101  0  3.789303  0  0  0.111529  0  4.036528  0  0  0.1123  0  4.060828  0  0  0.090344  0.110842  0  4.02027  0
C  C43  1  0.40682712  0.47483718  0.26999324  1  0  0.116148  0  3.789255  0  0  0.111572  0  4.036485  0  0  0.112345  0  4.060784  0  0  0.090329  0.110878  0  4.02024  0
C  C44  1  0.09317295  0.47483029  0.76998757  1  0  0.115962  0  3.789495  0  0  0.111453  0  4.036663  0  0  0.112223  0  4.060976  0  0  0.090382  0.11076  0  4.020406  0
C  C45  1  0.59317420  0.52516448  0.73001237  1  0  0.115946  0  3.789403  0  0  0.111449  0  4.036587  0  0  0.112219  0  4.06089  0  0  0.090394  0.11076  0  4.020325  0
C  C46  1  0.95775168  0.28885678  0.14894848  1  0  0.170919  0  3.626864  0  0  0.106486  0  3.894349  0  0  0.119545  0  3.907525  0  0  0.159694  0.098142  0  3.885225  0
C  C47  1  0.45775692  0.71114743  0.35104909  1  0  0.170827  0  3.626844  0  0  0.106335  0  3.89432  0  0  0.119402  0  3.907505  0  0  0.159696  0.097993  0  3.885196  0
C  C48  1  0.04224172  0.71113658  0.85104649  1  0  0.170923  0  3.626898  0  0  0.106498  0  3.894338  0  0  0.11957  0  3.907523  0  0  0.159758  0.098127  0  3.8852  0
C  C49  1  0.54225365  0.28885833  0.64895528  1  0  0.170903  0  3.62663  0  0  0.106509  0  3.894124  0  0  0.11958  0  3.90731  0  0  0.159678  0.098106  0  3.884968  0
C  C50  1  0.82561651  0.43383622  0.06029810  1  0  0.150214  0  3.631852  0  0  0.09292  0  3.911331  0  0  0.103838  0  3.922822  0  0  0.152863  0.086012  0  3.903491  0
C  C51  1  0.32562147  0.56617143  0.43970280  1  0  0.150505  0  3.631716  0  0  0.093215  0  3.911179  0  0  0.104133  0  3.922672  0  0  0.152976  0.086297  0  3.903338  0
C  C52  1  0.17437821  0.56615817  0.93969765  1  0  0.15019  0  3.632079  0  0  0.092929  0  3.911506  0  0  0.103847  0  3.922999  0  0  0.152857  0.086022  0  3.903665  0
C  C53  1  0.67438118  0.43383945  0.56030111  1  0  0.150266  0  3.632094  0  0  0.092966  0  3.911574  0  0  0.103882  0  3.923065  0  0  0.152844  0.086054  0  3.903734  0
C  C54  1  0.67234905  0.07543490  0.86197748  1  0  0.512571  0  3.974463  0  0  0.469566  0  4.265709  0  0  0.495818  0  4.275828  0  0  0.308472  0.451681  0  4.258154  0
C  C55  1  0.17238108  0.92456274  0.63802130  1  0  0.512822  0  3.973579  0  0  0.469813  0  4.264873  0  0  0.496072  0  4.274992  0  0  0.308482  0.45192  0  4.257308  0
C  C56  1  0.32762189  0.92455546  0.13802824  1  0  0.512716  0  3.973951  0  0  0.469684  0  4.265242  0  0  0.49594  0  4.275359  0  0  0.308566  0.451793  0  4.257673  0
C  C57  1  0.82766780  0.07545633  0.36197796  1  0  0.512721  0  3.97405  0  0  0.469736  0  4.265329  0  0  0.495979  0  4.275449  0  0  0.308464  0.451863  0  4.257763  0
C  C58  1  0.37312134  0.10253621  0.88081197  1  0  0.506169  0  3.986272  0  0  0.467799  0  4.270026  0  0  0.493378  0  4.280722  0  0  0.305086  0.450334  0  4.2625  0
C  C59  1  0.87314905  0.89745777  0.61918006  1  0  0.505749  0  3.986023  0  0  0.467389  0  4.269829  0  0  0.492974  0  4.280535  0  0  0.304985  0.449909  0  4.262301  0
C  C60  1  0.62683903  0.89745412  0.11918939  1  0  0.505739  0  3.986281  0  0  0.467347  0  4.270094  0  0  0.492929  0  4.2808  0  0  0.304868  0.44987  0  4.262562  0
C  C61  1  0.12689058  0.10254790  0.38081267  1  0  0.506  0  3.986618  0  0  0.467671  0  4.270346  0  0  0.493238  0  4.281044  0  0  0.305061  0.450207  0  4.262822  0
N  N62  1  0.88028330  0.59384950  0.40079889  1  0  -0.290376  0  3.094601  0  0  -0.248549  0  3.363638  0  0  -0.259653  0  3.378732  0  0  -0.31401  -0.241188  0  3.353601  0
N  N63  1  0.38028106  0.40615185  0.09920201  1  0  -0.29038  0  3.094568  0  0  -0.248554  0  3.363579  0  0  -0.259654  0  3.378669  0  0  -0.314035  -0.241191  0  3.353538  0
N  N64  1  0.11971538  0.40614489  0.59919614  1  0  -0.290357  0  3.094768  0  0  -0.248528  0  3.363814  0  0  -0.259633  0  3.378912  0  0  -0.31399  -0.241163  0  3.353767  0
N  N65  1  0.61971630  0.59384776  0.90080494  1  0  -0.290359  0  3.094637  0  0  -0.248536  0  3.363679  0  0  -0.259638  0  3.378769  0  0  -0.314008  -0.241165  0  3.353632  0
N  N66  1  0.89428197  0.42047982  0.15182774  1  0  -0.11893  0  3.575488  0  0  -0.028101  0  3.789727  0  0  -0.044448  0  3.814646  0  0  -0.216293  -0.017341  0  3.772645  0
N  N67  1  0.39428378  0.57952456  0.34817176  1  0  -0.119042  0  3.575452  0  0  -0.02819  0  3.789685  0  0  -0.044537  0  3.814604  0  0  -0.21632  -0.017428  0  3.772605  0
N  N68  1  0.10571539  0.57951150  0.84816858  1  0  -0.118872  0  3.57534  0  0  -0.028089  0  3.789573  0  0  -0.044438  0  3.814492  0  0  -0.216284  -0.017325  0  3.77249  0
N  N69  1  0.60572019  0.42048323  0.65183126  1  0  -0.118931  0  3.575353  0  0  -0.028121  0  3.789578  0  0  -0.044469  0  3.814496  0  0  -0.216281  -0.017357  0  3.772508  0
N  N70  1  0.84534093  0.31824862  0.00514058  1  0  -0.229909  0  2.966837  0  0  -0.207401  0  3.250782  0  0  -0.216507  0  3.267511  0  0  -0.223309  -0.201217  0  3.23907  0
N  N71  1  0.34535474  0.68175898  0.49485946  1  0  -0.23017  0  2.966854  0  0  -0.207672  0  3.250802  0  0  -0.216779  0  3.267531  0  0  -0.223424  -0.201483  0  3.239085  0
N  N72  1  0.15464851  0.68174475  0.99485512  1  0  -0.229832  0  2.966984  0  0  -0.207321  0  3.250909  0  0  -0.216426  0  3.267636  0  0  -0.223271  -0.201127  0  3.239182  0
N  N73  1  0.65465847  0.31825294  0.50514524  1  0  -0.229974  0  2.967134  0  0  -0.207459  0  3.251084  0  0  -0.216562  0  3.267813  0  0  -0.223335  -0.20127  0  3.239364  0
N  N74  1  0.92947402  0.22726081  0.06145998  1  0  -0.273147  0  3.165905  0  0  -0.207538  0  3.455613  0  0  -0.22456  0  3.473149  0  0  -0.235296  -0.195776  0  3.443138  0
N  N75  1  0.42948886  0.77274449  0.43853713  1  0  -0.273  0  3.165917  0  0  -0.207398  0  3.455648  0  0  -0.224414  0  3.473177  0  0  -0.235279  -0.195641  0  3.443171  0
N  N76  1  0.07051409  0.77273153  0.93853566  1  0  -0.273269  0  3.166107  0  0  -0.207712  0  3.455855  0  0  -0.224733  0  3.473383  0  0  -0.23541  -0.195958  0  3.443393  0
N  N77  1  0.57053096  0.22726433  0.56146522  1  0  -0.273135  0  3.16607  0  0  -0.207569  0  3.455803  0  0  -0.224589  0  3.473333  0  0  -0.235289  -0.195809  0  3.443348  0
N  N78  1  0.81135065  0.02145176  0.86700374  1  0  -0.605138  0  2.764651  0  0  -0.559383  0  3.045273  0  0  -0.580694  0  3.049446  0  0  -0.39066  -0.544583  0  3.042312  0
N  N79  1  0.31139318  0.97854450  0.63299758  1  0  -0.605285  0  2.764098  0  0  -0.559483  0  3.044681  0  0  -0.580795  0  3.048852  0  0  -0.390603  -0.544688  0  3.041723  0
N  N80  1  0.18860972  0.97854269  0.13300002  1  0  -0.605311  0  2.764032  0  0  -0.559505  0  3.044608  0  0  -0.580816  0  3.048773  0  0  -0.390697  -0.544712  0  3.041649  0
N  N81  1  0.68865306  0.02147151  0.36700443  1  0  -0.605245  0  2.764242  0  0  -0.559453  0  3.044807  0  0  -0.580769  0  3.048989  0  0  -0.390599  -0.544657  0  3.041838  0
N  N82  1  0.52618730  0.14094930  0.85073272  1  0  -0.469004  0  3.298384  0  0  -0.411399  0  3.561483  0  0  -0.435  0  3.564406  0  0  -0.30716  -0.394828  0  3.558749  0
N  N83  1  0.02621797  0.85904566  0.64926989  1  0  -0.468922  0  3.298062  0  0  -0.411353  0  3.561205  0  0  -0.434971  0  3.564144  0  0  -0.307112  -0.394752  0  3.558443  0
N  N84  1  0.47377306  0.85904723  0.14927406  1  0  -0.468805  0  3.2987  0  0  -0.411198  0  3.5618  0  0  -0.434808  0  3.564741  0  0  -0.307107  -0.394597  0  3.559026  0
N  N85  1  0.97382430  0.14096418  0.35073106  1  0  -0.468964  0  3.298374  0  0  -0.411431  0  3.561515  0  0  -0.435012  0  3.564433  0  0  -0.307172  -0.394869  0  3.558771  0
N  N86  1  0.22786426  0.07899576  0.90521726  1  0  -0.598035  0  2.8006  0  0  -0.551149  0  3.081894  0  0  -0.573086  0  3.086799  0  0  -0.385001  -0.536074  0  3.078346  0
N  N87  1  0.72789379  0.92098933  0.59477171  1  0  -0.597789  0  2.800398  0  0  -0.550894  0  3.081704  0  0  -0.572825  0  3.086604  0  0  -0.384988  -0.535822  0  3.078165  0
N  N88  1  0.77208950  0.92099146  0.09478029  1  0  -0.597763  0  2.8004  0  0  -0.550857  0  3.08169  0  0  -0.572787  0  3.086588  0  0  -0.384859  -0.535789  0  3.078149  0
N  N89  1  0.27213924  0.07900400  0.40521890  1  0  -0.597972  0  2.801024  0  0  -0.551108  0  3.082329  0  0  -0.573041  0  3.087234  0  0  -0.385008  -0.536033  0  3.078771  0
