# generated using pymatgen
data_Zn4H26C48Cl4O13
_symmetry_space_group_name_H-M   'P 1'
_cell_length_a   19.54719242
_cell_length_b   19.53201253
_cell_length_c   19.60656816
_cell_angle_alpha   84.72858523
_cell_angle_beta   89.92996710
_cell_angle_gamma   83.93177010
_symmetry_Int_Tables_number   1
_chemical_formula_structural   Zn4H26C48Cl4O13
_chemical_formula_sum   'Zn4 H26 C48 Cl4 O13'
_cell_volume   7412.01018467
_cell_formula_units_Z   1
loop_
 _symmetry_equiv_pos_site_id
 _symmetry_equiv_pos_as_xyz
  1  'x, y, z'
loop_
 _atom_site_type_symbol
 _atom_site_label
 _atom_site_symmetry_multiplicity
 _atom_site_fract_x
 _atom_site_fract_y
 _atom_site_fract_z
 _atom_site_occupancy
 _atom_site_pbe_bader_charge
 _atom_site_pbe_bader_spin_density
 _atom_site_pbe_cm5_charge
 _atom_site_pbe_ddec_charge
 _atom_site_pbe_ddec_spin_density
 _atom_site_pbe_ddec_sum_bond_order
 _atom_site_pbe_magmom
Zn  Zn0  1  0.44342859  0.55984383  0.56032813  1  1.313828  0  0.671017  0.967833  0  2.368357  0
Zn  Zn1  1  0.55130044  0.55702613  0.43637423  1  1.319075  0  0.670664  0.966204  0  2.378111  0
Zn  Zn2  1  0.44280469  0.44955542  0.44872578  1  1.309937  0  0.669376  0.962254  0  2.390259  0
Zn  Zn3  1  0.56506808  0.43665030  0.56228205  1  1.313779  0  0.67245  0.974699  0  2.345385  0
H  H4  1  0.42847942  0.56833584  0.76805049  1  0.11469  0  0.108219  0.114548  0  0.992277  0
H  H5  1  0.88801587  0.47637657  0.36324885  1  0.090281  0  0.099724  0.115818  0  1.020895  0
H  H6  1  0.48833064  0.24277268  0.40793909  1  0.104014  0  0.110801  0.11632  0  0.985851  0
H  H7  1  0.44908291  0.77094533  0.58374438  1  0.08806  0  0.108589  0.11411  0  0.992435  0
H  H8  1  0.51647211  0.77039499  0.37515120  1  0.125015  0  0.109102  0.11451  0  0.99006  0
H  H9  1  0.49216552  0.00646612  0.41425219  1  0.062544  0  0.102192  0.098265  0  1.004432  0
H  H10  1  0.51528611  0.09244251  0.62560133  1  0.079137  0  0.104266  0.117495  0  0.995542  0
H  H11  1  0.44934850  0.89825773  0.57707974  1  0.050987  0  0.102848  0.101899  0  1.001446  0
H  H12  1  0.49445019  0.99475806  0.57192384  1  0.034369  0  0.102356  0.100336  0  1.002782  0
H  H13  1  0.48249539  0.11734392  0.40631057  1  0.049008  0  0.104148  0.104951  0  1.002139  0
H  H14  1  0.38833101  0.46970400  0.23888340  1  0.103689  0  0.107674  0.112401  0  0.992449  0
H  H15  1  0.38230512  0.47485763  0.11125767  1  0.018903  0  0.102618  0.102573  0  0.994367  0
H  H16  1  0.51464496  0.89859771  0.36661620  1  0.050087  0  0.102287  0.100705  0  0.99551  0
H  H17  1  0.42667090  0.51607331  0.99960608  1  0.064284  0  0.102877  0.100811  0  0.999172  0
H  H18  1  0.62014405  0.42915410  0.90023155  1  0.01656  0  0.101941  0.102406  0  0.993554  0
H  H19  1  0.58045498  0.55323435  0.09866791  1  0.093237  0  0.102835  0.103727  0  1.000176  0
H  H20  1  0.61049058  0.42394012  0.77381590  1  0.094491  0  0.107794  0.112699  0  0.991525  0
H  H21  1  0.58453140  0.48944272  0.00332853  1  0.054172  0  0.103255  0.102847  0  0.99604  0
H  H22  1  0.43680223  0.57322859  0.89418889  1  0.05675  0  0.101788  0.101533  0  1.001489  0
H  H23  1  0.23748796  0.50596488  0.40684231  1  0.064509  0  0.111015  0.116645  0  0.980504  0
H  H24  1  0.77884524  0.47289513  0.59158405  1  0.067207  0  0.112937  0.117381  0  0.97836  0
H  H25  1  0.09828789  0.51401450  0.61767510  1  0.08615  0  0.104857  0.119934  0  0.992877  0
H  H26  1  0.90606990  0.46528413  0.58345214  1  0.067106  0  0.105958  0.106786  0  0.997824  0
H  H27  1  0.99309867  0.52571406  0.54928860  1  0.112014  0  0.109117  0.121856  0  0.995066  0
H  H28  1  0.11178073  0.50425214  0.39871529  1  0.06102  0  0.094264  0.102191  0  1.036693  0
H  H29  1  0.58445387  0.55044780  0.22599665  1  0.120606  0  0.107025  0.113012  0  0.99513  0
C  C30  1  0.68489409  0.49037631  0.49177970  1  1.564965  0  0.226376  0.617996  0  4.170674  0
C  C31  1  0.53307255  0.50114178  0.98048899  1  -0.027935  0  -0.087909  -0.133203  0  3.997742  0
C  C32  1  0.47840521  0.51144365  0.02201898  1  -0.041716  0  -0.088741  -0.131619  0  4.000572  0
C  C33  1  0.31607040  0.51155321  0.51379069  1  1.557882  0  0.227276  0.62093  0  4.162796  0
C  C34  1  0.48713617  0.50902917  0.23997715  1  0.004828  0  -0.022407  -0.047881  0  3.984373  0
C  C35  1  0.23946897  0.51275984  0.51528388  1  0.053951  0  -0.018354  -0.090824  0  3.936952  0
C  C36  1  0.20610337  0.50814599  0.45273741  1  0.056492  0  -0.078922  -0.071101  0  3.990027  0
C  C37  1  0.13566075  0.50604713  0.44842132  1  -0.02714  0  -0.095542  -0.142789  0  3.979717  0
C  C38  1  0.09530047  0.50633626  0.50802919  1  0.021177  0  -0.007203  0.153093  0  4.031934  0
C  C39  1  0.12807178  0.51301349  0.57064323  1  -0.014429  0  -0.094575  -0.205893  0  3.930608  0
C  C40  1  0.19892566  0.51630343  0.57440165  1  0.017938  0  0.019788  0.143023  0  4.031641  0
C  C41  1  0.52825774  0.50029473  0.90636765  1  -0.018323  0  -0.006806  0.119994  0  4.042284  0
C  C42  1  0.87472111  0.47144287  0.53693484  1  -0.061661  0  -0.089474  -0.129848  0  3.980173  0
C  C43  1  0.80351933  0.47557469  0.54165172  1  0.017684  0  -0.078775  -0.075301  0  3.983321  0
C  C44  1  0.79324330  0.48326401  0.41868447  1  -0.021993  0  0.021958  0.147661  0  4.020383  0
C  C45  1  0.48754807  0.68596563  0.48637233  1  1.563742  0  0.225669  0.603525  0  4.16813  0
C  C46  1  0.86467627  0.47711148  0.41361485  1  0.062417  0  -0.097176  -0.195321  0  3.956222  0
C  C47  1  0.90633917  0.47279132  0.47238690  1  0.035747  0  -0.010281  0.07673  0  4.034939  0
C  C48  1  0.02136289  0.50138969  0.50813643  1  0.055479  0  -0.09423  -0.209555  0  3.964088  0
C  C49  1  0.98167529  0.47082260  0.46588286  1  -0.066189  0  0.016743  0.101318  0  4.002586  0
C  C50  1  0.76138402  0.48304903  0.48298922  1  0.091945  0  -0.016054  -0.086502  0  3.935891  0
C  C51  1  0.50764545  0.23905948  0.51585697  1  0.056393  0  -0.020227  -0.09782  0  3.933727  0
C  C52  1  0.57793244  0.45954366  0.87123760  1  -0.022193  0  -0.090071  -0.139304  0  3.97386  0
C  C53  1  0.49550446  0.20867648  0.45515225  1  -0.003023  0  -0.079796  -0.074521  0  3.994988  0
C  C54  1  0.49205866  0.13835816  0.45457473  1  -0.066412  0  -0.090852  -0.138851  0  3.973313  0
C  C55  1  0.49899106  0.09460088  0.51609933  1  -0.001249  0  -0.005631  0.135717  0  4.048545  0
C  C56  1  0.51047966  0.12466203  0.57699680  1  0.031293  0  -0.094063  -0.204894  0  3.939361  0
C  C57  1  0.50901572  0.31566427  0.51086478  1  1.553993  0  0.227088  0.621327  0  4.158871  0
C  C58  1  0.51550505  0.19540175  0.57717756  1  0.046594  0  0.021998  0.146672  0  4.028826  0
C  C59  1  0.46500505  0.87066875  0.53278544  1  -0.056279  0  -0.08851  -0.132229  0  3.965132  0
C  C60  1  0.46439128  0.79948554  0.53682569  1  -0.036507  0  -0.081032  -0.086203  0  3.988601  0
C  C61  1  0.50192321  0.79909717  0.41896994  1  -0.05092  0  -0.081499  -0.084747  0  3.98462  0
C  C62  1  0.50099052  0.87060168  0.41463263  1  -0.024009  0  -0.088574  -0.135842  0  3.97137  0
C  C63  1  0.57280994  0.45637918  0.80089024  1  -0.022432  0  -0.080386  -0.081759  0  3.984196  0
C  C64  1  0.48457969  0.90773856  0.47192408  1  -0.00046  0  -0.006122  0.118538  0  4.041304  0
C  C65  1  0.49361275  0.02057988  0.51996245  1  -0.027432  0  -0.087768  -0.127624  0  3.987962  0
C  C66  1  0.48936831  0.98195215  0.46651631  1  -0.06277  0  -0.08563  -0.125601  0  3.992044  0
C  C67  1  0.48418518  0.76278342  0.48039715  1  -0.029827  0  -0.019765  -0.043036  0  3.979102  0
C  C68  1  0.49059222  0.50654302  0.31597317  1  1.505582  0  0.2242  0.599985  0  4.175069  0
C  C69  1  0.51339933  0.49427724  0.68788450  1  1.54854  0  0.22566  0.603331  0  4.173438  0
C  C70  1  0.51864903  0.49546999  0.76353683  1  0.046944  0  -0.022078  -0.048747  0  3.98482  0
C  C71  1  0.46958903  0.53730354  0.79782016  1  -0.049646  0  -0.081075  -0.082534  0  3.986218  0
C  C72  1  0.47424074  0.53947542  0.86815620  1  -0.09324  0  -0.089521  -0.135467  0  3.973032  0
C  C73  1  0.53876353  0.53389448  0.12933515  1  -0.122926  0  -0.08986  -0.137467  0  3.968351  0
C  C74  1  0.54111656  0.53280145  0.20018948  1  -0.02604  0  -0.08097  -0.081565  0  3.982664  0
C  C75  1  0.42997287  0.48798814  0.20754051  1  -0.059671  0  -0.082015  -0.083943  0  3.987694  0
C  C76  1  0.42696325  0.49083801  0.13653953  1  -0.024775  0  -0.08971  -0.13789  0  3.976943  0
C  C77  1  0.48186449  0.51234560  0.09615846  1  0.048949  0  -0.006585  0.120252  0  4.040468  0
Cl  Cl78  1  0.74586082  0.48753373  0.34361306  1  -0.189579  0  -0.018359  -0.082531  0  1.446842  0
Cl  Cl79  1  0.01593252  0.42567065  0.39897126  1  -0.210894  0  0.003772  -0.072346  0  1.498763  0
Cl  Cl80  1  0.23488794  0.52041589  0.65434234  1  -0.198718  0  -0.024284  -0.090802  0  1.441086  0
Cl  Cl81  1  0.52737595  0.22625327  0.65578494  1  -0.195879  0  -0.022626  -0.087171  0  1.454975  0
O  O82  1  0.50122754  0.50010962  0.50295100  1  -1.232605  0  -0.572333  -1.031267  0  2.532249  0
O  O83  1  0.53950791  0.53460624  0.34176218  1  -1.170087  0  -0.316454  -0.54968  0  2.34648  0
O  O84  1  0.55750274  0.45309199  0.65935193  1  -1.180764  0  -0.317414  -0.550801  0  2.329749  0
O  O85  1  0.44455125  0.47624315  0.34977669  1  -1.177215  0  -0.319118  -0.551016  0  2.330438  0
O  O86  1  0.46507336  0.53486503  0.65750494  1  -1.184145  0  -0.316924  -0.550248  0  2.353068  0
O  O87  1  0.46030501  0.65696301  0.53926943  1  -1.173641  0  -0.316963  -0.548968  0  2.328886  0
O  O88  1  0.54925671  0.34044693  0.55084613  1  -1.160096  0  -0.314011  -0.54723  0  2.372774  0
O  O89  1  0.65080426  0.53920956  0.45481920  1  -1.159174  0  -0.313196  -0.544578  0  2.357661  0
O  O90  1  0.34608377  0.46932746  0.47456534  1  -1.173131  0  -0.315436  -0.547699  0  2.330421  0
O  O91  1  0.66150367  0.44786740  0.53688261  1  -1.159474  0  -0.311497  -0.540122  0  2.302747  0
O  O92  1  0.34435612  0.55236544  0.54920837  1  -1.157689  0  -0.312035  -0.542571  0  2.35169  0
O  O93  1  0.51824249  0.65507795  0.43832468  1  -1.173842  0  -0.319002  -0.55146  0  2.331624  0
O  O94  1  0.46940432  0.34973427  0.46494063  1  -1.171914  0  -0.316679  -0.548471  0  2.325369  0
