# generated using pymatgen
data_Al6H80C105O37
_symmetry_space_group_name_H-M   'P 1'
_cell_length_a   13.17492036
_cell_length_b   13.47214339
_cell_length_c   27.42126703
_cell_angle_alpha   89.63367195
_cell_angle_beta   89.52015377
_cell_angle_gamma   60.12874353
_symmetry_Int_Tables_number   1
_chemical_formula_structural   Al6H80C105O37
_chemical_formula_sum   'Al6 H80 C105 O37'
_cell_volume   4220.34679822
_cell_formula_units_Z   1
loop_
 _symmetry_equiv_pos_site_id
 _symmetry_equiv_pos_as_xyz
  1  'x, y, z'
loop_
 _atom_site_type_symbol
 _atom_site_label
 _atom_site_symmetry_multiplicity
 _atom_site_fract_x
 _atom_site_fract_y
 _atom_site_fract_z
 _atom_site_occupancy
 _atom_site_pbe_bader_charge
 _atom_site_pbe_bader_spin_density
 _atom_site_pbe_cm5_charge
 _atom_site_pbe_ddec_charge
 _atom_site_pbe_ddec_spin_density
 _atom_site_pbe_ddec_sum_bond_order
 _atom_site_pbe_magmom
Al  Al0  1  0.84706065  0.57529489  0.49952873  1  2.494379  0  0.396131  1.689308  0  2.553532  0
Al  Al1  1  0.60396105  0.57634208  0.49906170  1  2.474368  0  0.502676  1.658938  0  2.517975  0
Al  Al2  1  0.59586462  0.80272275  0.50076515  1  2.475934  0  0.504245  1.658332  0  2.513904  0
Al  Al3  1  0.83569994  0.07988157  0.98620797  1  2.493292  0  0.394782  1.687321  0  2.55569  0
Al  Al4  1  0.08662540  0.06525639  0.98242477  1  2.483308  0  0.503565  1.660686  0  2.510927  0
Al  Al5  1  0.08244408  0.84514648  0.98391933  1  2.478152  0  0.503368  1.659989  0  2.512679  0
H  H6  1  0.46189490  0.87810124  0.18734917  1  0.032162  0  0.096605  0.09711  0  0.976547  0
H  H7  1  0.22007213  0.75435316  0.21047934  1  0.03798  0  0.094558  0.100473  0  1.004555  0
H  H8  1  0.76792243  0.02177087  0.20394497  1  0.033897  0  0.095367  0.102909  0  0.992354  0
H  H9  1  0.02950663  0.15939094  0.21674642  1  0.029609  0  0.091243  0.095266  0  1.015701  0
H  H10  1  0.21142392  0.03484745  0.85229688  1  0.092387  0  0.109518  0.118264  0  1.012366  0
H  H11  1  0.07063099  0.73013566  0.84890408  1  0.110024  0  0.103576  0.109195  0  1.018955  0
H  H12  1  0.74023996  0.22182877  0.85861414  1  0.0921  0  0.112637  0.121379  0  0.997976  0
H  H13  1  0.33842849  0.95416477  0.61183183  1  0.091238  0  0.112857  0.122381  0  0.987067  0
H  H14  1  0.96705163  0.67005365  0.61222830  1  0.123659  0  0.114705  0.126513  0  0.994175  0
H  H15  1  0.65172666  0.36667147  0.61955011  1  0.11324  0  0.108066  0.116522  0  0.998527  0
H  H16  1  0.20900307  0.11342709  0.77064963  1  0.124024  0  0.101678  0.10306  0  1.074746  0
H  H17  1  0.91482377  0.65623428  0.19546370  1  0.01482  0  0.095359  0.09342  0  0.980762  0
H  H18  1  0.14695608  0.64234648  0.76702328  1  0.041611  0  0.092754  0.082502  0  1.067644  0
H  H19  1  0.62941413  0.24601530  0.78225257  1  0.108299  0  0.102569  0.108395  0  1.036891  0
H  H20  1  0.24141736  0.08771534  0.68162866  1  0.085731  0  0.107555  0.112045  0  1.011176  0
H  H21  1  0.11104908  0.62404280  0.67997542  1  0.053691  0  0.100501  0.096878  0  1.033514  0
H  H22  1  0.60290073  0.28793467  0.69426634  1  0.069872  0  0.102939  0.103464  0  1.020618  0
H  H23  1  0.33095347  0.67564490  0.87038045  1  0.081209  0  0.111468  0.118902  0  1.003494  0
H  H24  1  0.72691318  0.02182232  0.86184702  1  0.114162  0  0.114313  0.12056  0  1.01718  0
H  H25  1  0.05253367  0.24657993  0.85572769  1  0.089363  0  0.106967  0.110597  0  1.024984  0
H  H26  1  0.48441478  0.87502381  0.27217138  1  0.071843  0  0.095317  0.099397  0  1.016027  0
H  H27  1  0.88458960  0.65104887  0.27959058  1  0.03308  0  0.098701  0.102069  0  0.975106  0
H  H28  1  0.72080153  0.47632768  0.17967353  1  0.049509  0  0.095252  0.094117  0  0.980251  0
H  H29  1  0.67435863  0.50240648  0.26316099  1  0.075449  0  0.094359  0.098668  0  1.012633  0
H  H30  1  0.46247409  0.59457109  0.62922031  1  0.120713  0  0.110743  0.116764  0  1.022031  0
H  H31  1  0.62479678  0.96671335  0.62409007  1  0.121919  0  0.111131  0.120262  0  1.006302  0
H  H32  1  0.97234791  0.37671374  0.61461957  1  0.119194  0  0.117242  0.130825  0  0.9996  0
H  H33  1  0.18187277  0.92220866  0.29597032  1  0.024597  0  0.093027  0.090821  0  0.980903  0
H  H34  1  0.94279138  0.89335159  0.29988450  1  0.035373  0  0.091837  0.087876  0  0.985595  0
H  H35  1  0.83641268  0.18576167  0.28903140  1  0.023008  0  0.090764  0.086414  0  0.986795  0
H  H36  1  0.26560015  0.99143636  0.29602656  1  0.037812  0  0.096355  0.094652  0  0.990423  0
H  H37  1  0.00749336  0.74294450  0.29952730  1  0.037693  0  0.098123  0.099849  0  0.975486  0
H  H38  1  0.69453903  0.30435492  0.28355646  1  0.029792  0  0.092755  0.088208  0  1.014679  0
H  H39  1  0.55308871  0.72475405  0.26941255  1  0.04376  0  0.099065  0.103088  0  0.995605  0
H  H40  1  0.25083708  0.01515358  0.21087801  1  0.02826  0  0.096402  0.097061  0  0.978325  0
H  H41  1  0.04446928  0.73881530  0.21550931  1  0.038689  0  0.094504  0.09376  0  0.984752  0
H  H42  1  0.70625889  0.29966937  0.19767359  1  0.042995  0  0.097722  0.099713  0  0.970725  0
H  H43  1  0.14788227  0.96753156  0.21294705  1  0.015322  0  0.091535  0.08711  0  0.999543  0
H  H44  1  0.98631307  0.88871535  0.21659052  1  0.012233  0  0.090504  0.087474  0  0.991585  0
H  H45  1  0.83393313  0.16508263  0.20403811  1  0.032308  0  0.09132  0.088527  0  0.994855  0
H  H46  1  0.27914305  0.70969444  0.29172492  1  0.038479  0  0.100829  0.036463  0  0.969009  0
H  H47  1  0.73042292  0.01664295  0.28739740  1  0.0284  0  0.099583  0.034893  0  0.969762  0
H  H48  1  0.00637167  0.21004647  0.29916316  1  0.026796  0  0.099309  0.036112  0  0.973851  0
H  H49  1  0.36655682  0.65672865  0.19370792  1  0.063157  0  0.103857  0.114488  0  0.980307  0
H  H50  1  0.73247002  0.73829450  0.27036437  1  0.058309  0  0.098246  0.100617  0  1.000385  0
H  H51  1  0.67643137  0.96380304  0.19155766  1  0.059924  0  0.105077  0.116583  0  0.975397  0
H  H52  1  0.04109552  0.28269158  0.20491306  1  0.045237  0  0.102214  0.112217  0  0.979872  0
H  H53  1  0.33765658  0.44406416  0.77364487  1  0.0707  0  0.096505  0.093949  0  1.024677  0
H  H54  1  0.26285822  0.53214149  0.82573626  1  0.03408  0  0.092652  0.083594  0  1.01757  0
H  H55  1  0.39567266  0.39859325  0.83359055  1  0.080499  0  0.110671  0.118716  0  0.971702  0
H  H56  1  0.45416507  0.05631454  0.80916100  1  0.061519  0  0.094212  0.091797  0  1.015457  0
H  H57  1  0.46158374  0.15297130  0.85206554  1  0.070915  0  0.108179  0.114655  0  0.973793  0
H  H58  1  0.57391761  0.00586153  0.85102781  1  0.070016  0  0.102515  0.105204  0  1.004202  0
H  H59  1  0.08398093  0.47199568  0.78941499  1  0.026619  0  0.091917  0.088512  0  1.024719  0
H  H60  1  0.19361923  0.37370388  0.83096198  1  0.060047  0  0.105791  0.111979  0  0.984218  0
H  H61  1  0.79714399  0.52060441  0.27089933  1  0.048835  0  0.09759  0.10122  0  1.003155  0
H  H62  1  0.04343930  0.41154102  0.83911461  1  0.063778  0  0.100523  0.102787  0  1.001468  0
H  H63  1  0.32720442  0.54716502  0.64623313  1  0.067287  0  0.099724  0.100739  0  1.008757  0
H  H64  1  0.29443536  0.48160573  0.69649692  1  0.031313  0  0.089952  0.077575  0  1.055207  0
H  H65  1  0.41680511  0.39640022  0.65745303  1  0.093398  0  0.111423  0.121766  0  0.973137  0
H  H66  1  0.44977939  0.02565932  0.70138360  1  0.028431  0  0.092871  0.089846  0  1.029918  0
H  H67  1  0.40500897  0.15008165  0.73866197  1  0.073638  0  0.094549  0.09575  0  1.024023  0
H  H68  1  0.37981441  0.16544881  0.67430166  1  0.065541  0  0.10512  0.11501  0  0.980592  0
H  H69  1  0.03097312  0.48956200  0.66850947  1  0.053072  0  0.099842  0.099841  0  1.010414  0
H  H70  1  0.14891609  0.43940193  0.71137006  1  0.030787  0  0.08784  0.075399  0  1.053661  0
H  H71  1  0.17928466  0.41108243  0.64718315  1  0.050341  0  0.109619  0.11884  0  0.968002  0
H  H72  1  0.51238733  0.72941684  0.18654802  1  0.047468  0  0.096251  0.097941  0  0.976345  0
H  H73  1  0.40253854  0.49870974  0.24112005  1  0.02846  0  0.089552  0.080417  0  1.001446  0
H  H74  1  0.37556927  0.51745083  0.30580064  1  0.051975  0  0.095285  0.087662  0  0.991769  0
H  H75  1  0.52199530  0.43361361  0.28306032  1  0.049706  0  0.101847  0.105387  0  1.012876  0
H  H76  1  0.51503551  0.10864085  0.23519680  1  0.026279  0  0.090559  0.082872  0  0.999965  0
H  H77  1  0.53306707  0.12840134  0.29873974  1  0.042361  0  0.094024  0.086797  0  0.991877  0
H  H78  1  0.44049485  0.07282762  0.28092369  1  0.036842  0  0.102056  0.104466  0  0.99226  0
H  H79  1  0.18329578  0.25277629  0.26828477  1  -0.01248  0  0.084779  0.071581  0  1.013149  0
H  H80  1  0.14547042  0.24040828  0.33035156  1  0.041665  0  0.095101  0.087388  0  0.994627  0
H  H81  1  0.15204459  0.36452110  0.31122438  1  0.056165  0  0.107202  0.113283  0  0.972064  0
H  H82  1  0.76311260  0.74806027  0.18687081  1  0.049314  0  0.096963  0.099673  0  0.971719  0
H  H83  1  0.85520120  0.47256945  0.18965757  1  0.030014  0  0.095181  0.096444  0  0.980405  0
H  H84  1  0.03931298  0.49589164  0.47028598  1  0.565151  0  0.28948  0.379429  0  0.928779  0
H  H85  1  0.64384836  0.22368381  0.96946823  1  0.588073  0  0.286592  0.373927  0  0.937405  0
C  C86  1  0.76400330  0.77679894  0.43143125  1  1.669562  0  0.276053  0.722838  0  4.15146  0
C  C87  1  0.29723280  0.85048082  0.14303908  1  -0.152194  0  -0.007116  -0.005056  0  3.986767  0
C  C88  1  0.36533394  0.48056982  0.67458469  1  0.347539  0  -0.136535  -0.181738  0  3.905298  0
C  C89  1  0.44008175  0.11143895  0.70287605  1  0.388343  0  -0.142291  -0.176431  0  3.914884  0
C  C90  1  0.11961670  0.41989225  0.67711492  1  0.408973  0  -0.138823  -0.177507  0  3.928392  0
C  C91  1  0.43659007  0.50944028  0.27621226  1  0.399883  0  -0.140017  -0.167278  0  3.973792  0
C  C92  1  0.52180286  0.07317242  0.27225571  1  0.4322  0  -0.140911  -0.170554  0  3.981921  0
C  C93  1  0.12832625  0.30084787  0.29991143  1  0.456716  0  -0.141111  -0.168848  0  3.988827  0
C  C94  1  0.88194774  0.84094864  0.14475637  1  -0.457822  0  -0.01482  -0.021116  0  4.011639  0
C  C95  1  0.88813916  0.28019689  0.14188521  1  -0.622582  0  -0.015989  -0.02237  0  4.014005  0
C  C96  1  0.39398154  0.79311457  0.34034797  1  -0.223155  0  -0.0041  0.007056  0  3.993805  0
C  C97  1  0.79912448  0.82498057  0.34149211  1  -0.231569  0  -0.015023  -0.01581  0  4.027777  0
C  C98  1  0.81015565  0.37561962  0.33832039  1  -0.480488  0  -0.015489  -0.01357  0  4.028647  0
C  C99  1  0.41569048  0.78243267  0.38371627  1  -0.044856  0  -0.048585  -0.225075  0  3.951853  0
C  C100  1  0.78434673  0.81096174  0.38420710  1  -0.043674  0  -0.049821  -0.218055  0  3.966488  0
C  C101  1  0.79323084  0.40183017  0.38113141  1  0.217891  0  -0.049823  -0.218997  0  3.970967  0
C  C102  1  0.91932786  0.19349112  0.91318902  1  1.549466  0  0.270119  0.644134  0  4.084166  0
C  C103  1  0.76976334  0.45167578  0.42896813  1  1.657005  0  0.276843  0.722498  0  4.15439  0
C  C104  1  0.22612784  0.88137557  0.91737800  1  1.543583  0  0.279079  0.650826  0  4.069494  0
C  C105  1  0.91846073  0.89002725  0.91199115  1  1.558649  0  0.270901  0.642988  0  4.085067  0
C  C106  1  0.92432984  0.19955187  0.05210659  1  1.656423  0  0.276535  0.718166  0  4.159674  0
C  C107  1  0.21786044  0.88956880  0.05259467  1  1.657258  0  0.281709  0.72917  0  4.145269  0
C  C108  1  0.91500933  0.87741984  0.05269698  1  1.683565  0  0.282646  0.718042  0  4.155196  0
C  C109  1  0.34927410  0.88341188  0.63494009  1  -0.010369  0  -0.075733  -0.137372  0  3.91819  0
C  C110  1  0.90315778  0.74175546  0.63408690  1  -0.0046  0  -0.075804  -0.139877  0  3.918288  0
C  C111  1  0.73041733  0.35373888  0.63796949  1  -0.093518  0  -0.076247  -0.136268  0  3.919125  0
C  C112  1  0.31332110  0.90300092  0.68391508  1  -0.001956  0  -0.003132  0.078794  0  4.030545  0
C  C113  1  0.92960589  0.75929294  0.68149270  1  -0.045798  0  -0.008199  0.076803  0  4.043078  0
C  C114  1  0.46385584  0.75878250  0.43198492  1  1.637348  0  0.283652  0.731215  0  4.140664  0
C  C115  1  0.75114282  0.31595607  0.68661586  1  0.007064  0  -0.003094  0.08021  0  4.023628  0
C  C116  1  0.26823760  0.93512816  0.78595261  1  0.06723  0  -0.005942  0.08139  0  4.037699  0
C  C117  1  0.97055364  0.78067917  0.78186679  1  -0.002192  0  -0.007852  0.081441  0  4.029723  0
C  C118  1  0.78360695  0.26433566  0.78806234  1  -0.002032  0  -0.002916  0.085809  0  4.023407  0
C  C119  1  0.76075714  0.77998031  0.56791019  1  1.551778  0  0.272422  0.636556  0  4.087475  0
C  C120  1  0.77618396  0.44198077  0.56603436  1  1.538253  0  0.272365  0.63813  0  4.091307  0
C  C121  1  0.45884404  0.74846635  0.56675703  1  1.547053  0  0.278841  0.652177  0  4.06638  0
C  C122  1  0.24262192  0.02946587  0.75428877  1  -0.062862  0  -0.088945  -0.13233  0  3.990254  0
C  C123  1  0.06122097  0.69746907  0.75109160  1  0.004448  0  -0.095385  -0.139799  0  4.029147  0
C  C124  1  0.68933197  0.26509491  0.76214056  1  -0.053115  0  -0.088187  -0.124585  0  3.972778  0
C  C125  1  0.31112164  0.73423408  0.21505945  1  -0.049262  0  -0.158614  -0.277522  0  3.83808  0
C  C126  1  0.26205118  0.01468144  0.70524627  1  -0.076012  0  -0.084991  -0.124407  0  3.987287  0
C  C127  1  0.04162049  0.68739268  0.70310055  1  -0.04999  0  -0.09076  -0.132805  0  4.022602  0
C  C128  1  0.67447569  0.28871499  0.71344334  1  0.005777  0  -0.083171  -0.108821  0  3.990171  0
C  C129  1  0.24798643  0.94994287  0.83631315  1  -0.008741  0  -0.07558  -0.136109  0  3.91294  0
C  C130  1  0.98735333  0.78876060  0.83179008  1  -0.123596  0  -0.082978  -0.144794  0  3.932891  0
C  C131  1  0.80032781  0.23991840  0.83805242  1  0.015834  0  -0.074523  -0.130578  0  3.910031  0
C  C132  1  0.26851634  0.85717187  0.86615801  1  -0.07099  0  -0.017333  -0.047357  0  4.019516  0
C  C133  1  0.89832652  0.87470613  0.85990042  1  -0.03326  0  -0.018418  -0.041359  0  4.01673  0
C  C134  1  0.89682339  0.23379960  0.86176292  1  -0.071  0  -0.020172  -0.047249  0  4.026494  0
C  C135  1  0.41761242  0.68007196  0.64482558  1  -0.043482  0  -0.080636  -0.135053  0  3.930628  0
C  C136  1  0.75277764  0.95046000  0.21268822  1  -0.04464  0  -0.157861  -0.276224  0  3.831055  0
C  C137  1  0.70917273  0.90954491  0.64052519  1  -0.075278  0  -0.076792  -0.119091  0  3.917947  0
C  C138  1  0.91184272  0.35990490  0.63545844  1  0.023677  0  -0.077004  -0.125307  0  3.925187  0
C  C139  1  0.38250114  0.69634314  0.69394514  1  0.046996  0  -0.010785  -0.003945  0  4.045222  0
C  C140  1  0.73220282  0.92860438  0.68838057  1  0.038045  0  -0.008612  -0.002283  0  4.038136  0
C  C141  1  0.93350077  0.32548905  0.68424715  1  -0.0589  0  -0.012723  -0.007591  0  4.064879  0
C  C142  1  0.33479641  0.80798122  0.71448743  1  -0.089555  0  0.004864  0.008898  0  3.935068  0
C  C143  1  0.84096739  0.84931317  0.71024723  1  0.028531  0  0.003873  0.009267  0  3.939424  0
C  C144  1  0.84992291  0.30895756  0.71109527  1  0.002569  0  0.003297  0.007911  0  3.942115  0
C  C145  1  0.40088408  0.60240828  0.72528201  1  0.533741  0  0.076586  0.093915  0  4.033102  0
C  C146  1  0.64520433  0.02162749  0.71728497  1  0.524363  0  0.078861  0.101129  0  4.056724  0
C  C147  1  0.98459537  0.25269649  0.22116743  1  -0.0368  0  -0.158975  -0.273209  0  3.839549  0
C  C148  1  0.03436571  0.31440664  0.70911189  1  0.509141  0  0.076689  0.100118  0  4.057623  0
C  C149  1  0.38537968  0.61667853  0.77514903  1  0.472403  0  0.0767  0.095277  0  4.045674  0
C  C150  1  0.66001245  0.02556543  0.76684564  1  0.473352  0  0.072191  0.081941  0  4.043281  0
C  C151  1  0.04326037  0.30272256  0.75899006  1  0.517573  0  0.068182  0.078233  0  4.053554  0
C  C152  1  0.33928639  0.72853856  0.79655224  1  0.058021  0  -0.008648  -0.002207  0  4.041281  0
C  C153  1  0.76919001  0.94553055  0.78961290  1  0.000482  0  -0.010426  -0.004234  0  4.043668  0
C  C154  1  0.96114118  0.28345354  0.78675244  1  -0.02099  0  -0.013573  -0.008372  0  4.055398  0
C  C155  1  0.47286818  0.80394212  0.25995371  1  -0.040607  0  -0.153736  -0.187734  0  3.822306  0
C  C156  1  0.81755264  0.73181126  0.26328890  1  -0.033187  0  -0.152519  -0.183731  0  3.826265  0
C  C157  1  0.76912336  0.46217076  0.25684209  1  -0.04503  0  -0.154682  -0.185217  0  3.814622  0
C  C158  1  0.34846187  0.71106697  0.26919490  1  0.46785  0  0.010063  0.146804  0  3.78961  0
C  C159  1  0.31322704  0.82381110  0.76544167  1  -0.028721  0  0.003685  0.007227  0  3.937974  0
C  C160  1  0.86018215  0.85860689  0.76043501  1  -0.032683  0  0.004084  0.010384  0  3.927333  0
C  C161  1  0.86495880  0.28578159  0.76184907  1  -0.014109  0  0.004184  0.008666  0  3.932812  0
C  C162  1  0.31478639  0.74695853  0.84660799  1  -0.002732  0  -0.07754  -0.123898  0  3.924071  0
C  C163  1  0.79123910  0.95341195  0.83892945  1  0.053379  0  -0.079133  -0.132436  0  3.936711  0
C  C164  1  0.97670210  0.25529211  0.83643153  1  0.003529  0  -0.088105  -0.146994  0  3.966511  0
C  C165  1  0.40385841  0.77233104  0.61601734  1  0.004835  0  -0.016547  -0.04287  0  4.015414  0
C  C166  1  0.79204921  0.81356082  0.61463649  1  -0.014003  0  -0.016427  -0.043149  0  4.014142  0
C  C167  1  0.80758219  0.38014168  0.61349135  1  0.000257  0  -0.018193  -0.047316  0  4.025127  0
C  C168  1  0.25667596  0.92325419  0.27836289  1  -0.028185  0  -0.151842  -0.185801  0  3.859117  0
C  C169  1  0.72683091  0.94707217  0.26766002  1  0.464313  0  0.01007  0.148132  0  3.786885  0
C  C170  1  0.94153153  0.82164549  0.28151385  1  -0.041656  0  -0.151486  -0.184499  0  3.857291  0
C  C171  1  0.78503961  0.26886110  0.27058070  1  -0.045402  0  -0.154299  -0.189019  0  3.875327  0
C  C172  1  0.23765551  0.94438830  0.22286060  1  -0.014015  0  -0.153469  -0.190968  0  3.8525  0
C  C173  1  0.96761045  0.82010050  0.22631402  1  -0.0264  0  -0.154534  -0.19232  0  3.855799  0
C  C174  1  0.79319026  0.25554282  0.21458989  1  -0.028322  0  -0.153607  -0.188811  0  3.850138  0
C  C175  1  0.26976981  0.86483014  0.10023771  1  -0.150423  0  -0.050218  -0.225625  0  3.960071  0
C  C176  1  0.89664728  0.84897656  0.10141633  1  0.168206  0  -0.047954  -0.220233  0  3.971563  0
C  C177  1  0.90494948  0.25256533  0.09920701  1  0.333098  0  -0.051412  -0.221299  0  3.975335  0
C  C178  1  0.36898325  0.80729216  0.28848167  1  0.169501  0  0.00252  0.109278  0  3.889603  0
C  C179  1  0.82011081  0.83192838  0.28990935  1  0.147703  0  0.001645  0.110622  0  3.895243  0
C  C180  1  0.96385792  0.28697417  0.27562181  1  0.501074  0  0.009843  0.140094  0  3.803125  0
C  C181  1  0.83091011  0.34924671  0.28682744  1  0.113664  0  0.000798  0.112404  0  3.894999  0
C  C182  1  0.45046251  0.81027306  0.20443204  1  -0.02471  0  -0.151007  -0.185203  0  3.836803  0
C  C183  1  0.83882183  0.73624680  0.20803015  1  -0.006946  0  -0.151671  -0.185758  0  3.843006  0
C  C184  1  0.80009721  0.43731027  0.20215848  1  -0.037671  0  -0.151818  -0.184994  0  3.842616  0
C  C185  1  0.32431835  0.83470370  0.19470561  1  0.156258  0  0.002052  0.17574  0  3.896803  0
C  C186  1  0.86084642  0.83667914  0.19649686  1  0.143472  0  0.002577  0.178964  0  3.901897  0
C  C187  1  0.86715808  0.30642128  0.19339561  1  0.151352  0  0.001254  0.17858  0  3.900569  0
C  C188  1  0.34909724  0.47298692  0.80954689  1  0.371793  0  -0.135282  -0.172701  0  3.929694  0
C  C189  1  0.51285730  0.07875573  0.82851164  1  0.350424  0  -0.134774  -0.172897  0  3.896313  0
C  C190  1  0.11222267  0.39492380  0.81209448  1  0.392531  0  -0.136846  -0.171322  0  3.898599  0
O  O191  1  0.84264714  0.47657103  0.44632791  1  -1.21704  0  -0.212032  -0.563657  0  2.28294  0
O  O192  1  0.84342286  0.47645962  0.54988861  1  -1.243729  0  -0.210579  -0.554022  0  2.362548  0
O  O193  1  0.48962284  0.65060364  0.54787331  1  -1.275353  0  -0.235637  -0.598758  0  2.305649  0
O  O194  1  0.65797605  0.84835384  0.55034975  1  -1.278824  0  -0.248672  -0.612433  0  2.28082  0
O  O195  1  0.83419999  0.68486527  0.54963922  1  -1.241617  0  -0.212094  -0.55775  0  2.349799  0
O  O196  1  0.67959661  0.46192653  0.54574987  1  -1.269751  0  -0.24923  -0.615092  0  2.284827  0
O  O197  1  0.47815753  0.82409292  0.54722337  1  -1.262099  0  -0.2325  -0.596935  0  2.296087  0
O  O198  1  0.68028619  0.65252818  0.49928739  1  -1.610269  0  -0.390816  -1.268125  0  2.294805  0
O  O199  1  0.84243242  0.97964832  0.93316137  1  -1.254491  0  -0.218158  -0.56987  0  2.36549  0
O  O200  1  0.01922577  0.16957196  0.93142954  1  -1.274212  0  -0.24965  -0.611964  0  2.280896  0
O  O201  1  0.20689412  0.80814734  0.93951476  1  -1.261521  0  -0.235898  -0.597005  0  2.288469  0
O  O202  1  0.48682606  0.66345105  0.45146605  1  -1.243426  0  -0.228412  -0.589765  0  2.244419  0
O  O203  1  0.84236484  0.18011126  0.93532810  1  -1.256574  0  -0.224028  -0.589898  0  2.364769  0
O  O204  1  0.20310912  0.97778294  0.93556468  1  -1.27211  0  -0.23556  -0.599353  0  2.30461  0
O  O205  1  0.01449376  0.81225899  0.93164976  1  -1.278412  0  -0.252483  -0.619394  0  2.280142  0
O  O206  1  0.00358375  0.99579449  0.98426076  1  -1.612768  0  -0.391106  -1.26704  0  2.290022  0
O  O207  1  0.85061340  0.17160826  0.03881542  1  -1.213748  0  -0.207208  -0.555347  0  2.296815  0
O  O208  1  0.19814547  0.98318559  0.03225723  1  -1.241312  0  -0.229182  -0.590663  0  2.24432  0
O  O209  1  0.00720733  0.80209339  0.02968617  1  -1.257558  0  -0.244667  -0.610841  0  2.226405  0
O  O210  1  0.41993138  0.52589627  0.80669241  1  -1.091456  0  -0.200432  -0.163498  0  2.570802  0
O  O211  1  0.57372735  0.11290816  0.79430844  1  -1.083945  0  -0.202744  -0.181241  0  2.581739  0
O  O212  1  0.13888751  0.29737980  0.78211495  1  -1.079681  0  -0.208179  -0.183944  0  2.573861  0
O  O213  1  0.66927423  0.84765471  0.45405975  1  -1.260504  0  -0.243685  -0.606888  0  2.233557  0
O  O214  1  0.44425084  0.49518438  0.70558106  1  -1.070703  0  -0.193999  -0.161449  0  2.608206  0
O  O215  1  0.55050756  0.10452982  0.69254952  1  -1.078489  0  -0.204374  -0.175644  0  2.576822  0
O  O216  1  0.12203760  0.31268447  0.68080035  1  -1.081663  0  -0.205358  -0.178798  0  2.579856  0
O  O217  1  0.45462792  0.60501581  0.27560901  1  -1.049072  0  -0.228872  -0.215608  0  2.514478  0
O  O218  1  0.61446975  0.95809575  0.27590400  1  -1.055602  0  -0.229032  -0.215694  0  2.517157  0
O  O219  1  0.00738243  0.36144559  0.28818841  1  -1.060182  0  -0.231597  -0.211948  0  2.496917  0
O  O220  1  0.84169403  0.97565003  0.03729195  1  -1.215261  0  -0.197068  -0.524761  0  2.273387  0
O  O221  1  0.01757704  0.18078999  0.02848817  1  -1.25816  0  -0.246857  -0.612219  0  2.226866  0
O  O222  1  0.19026598  0.81825274  0.03535558  1  -1.243082  0  -0.229499  -0.591254  0  2.250903  0
O  O223  1  0.83896723  0.67795204  0.44597802  1  -1.225901  0  -0.214325  -0.571304  0  2.294743  0
O  O224  1  0.67287986  0.47058103  0.44933318  1  -1.256667  0  -0.245906  -0.611289  0  2.232125  0
O  O225  1  0.48521839  0.83313782  0.45091245  1  -1.241309  0  -0.230091  -0.59134  0  2.241981  0
O  O226  1  0.00096114  0.50361587  0.50137326  1  -1.359059  0  -0.582871  -1.000805  0  1.795455  0
O  O227  1  0.68200439  0.15424968  0.98864016  1  -1.382512  0  -0.582969  -0.997173  0  1.798541  0
