# generated using pymatgen
data_Cd2H2C5(NO2)3
_symmetry_space_group_name_H-M   'P 1'
_cell_length_a   7.43623930
_cell_length_b   7.67537768
_cell_length_c   17.61767771
_cell_angle_alpha   89.99992114
_cell_angle_beta   90.00000844
_cell_angle_gamma   118.99880862
_symmetry_Int_Tables_number   1
_chemical_formula_structural   Cd2H2C5(NO2)3
_chemical_formula_sum   'Cd8 H8 C20 N12 O24'
_cell_volume   879.48014050
_cell_formula_units_Z   4
loop_
 _symmetry_equiv_pos_site_id
 _symmetry_equiv_pos_as_xyz
  1  'x, y, z'
loop_
 _atom_site_type_symbol
 _atom_site_label
 _atom_site_symmetry_multiplicity
 _atom_site_fract_x
 _atom_site_fract_y
 _atom_site_fract_z
 _atom_site_occupancy
 _atom_site_hle17_bader_spin_density
 _atom_site_hle17_ddec_charge
 _atom_site_hle17_ddec_spin_density
 _atom_site_hle17_ddec_sum_bond_order
 _atom_site_hle17_magmom
 _atom_site_hse06_10hf_bader_spin_density
 _atom_site_hse06_10hf_ddec_charge
 _atom_site_hse06_10hf_ddec_spin_density
 _atom_site_hse06_10hf_ddec_sum_bond_order
 _atom_site_hse06_10hf_magmom
 _atom_site_hse06_bader_spin_density
 _atom_site_hse06_ddec_charge
 _atom_site_hse06_ddec_spin_density
 _atom_site_hse06_ddec_sum_bond_order
 _atom_site_hse06_magmom
 _atom_site_pbe_bader_spin_density
 _atom_site_pbe_cm5_charge
 _atom_site_pbe_ddec_charge
 _atom_site_pbe_ddec_spin_density
 _atom_site_pbe_ddec_sum_bond_order
 _atom_site_pbe_magmom
Cd  Cd0  1  0.08872528  0.17735593  0.71822968  1  0  1.196753  0  1.662908  0  0  1.004244  0  2.112495  0  0  1.06228  0  2.058493  0  0  0.797057  0.962548  0  2.149704  0
Cd  Cd1  1  0.41127441  0.82264456  0.21822944  1  0  1.196737  0  1.662892  0  0  1.00423  0  2.112469  0  0  1.062268  0  2.05847  0  0  0.79705  0.962535  0  2.149677  0
Cd  Cd2  1  0.58872515  0.17735553  0.78177042  1  0  1.196745  0  1.662918  0  0  1.004234  0  2.112511  0  0  1.06227  0  2.05851  0  0  0.797058  0.962538  0  2.149721  0
Cd  Cd3  1  0.91127428  0.82264417  0.28177018  1  0  1.196762  0  1.662906  0  0  1.004267  0  2.112475  0  0  1.062303  0  2.058475  0  0  0.797066  0.962571  0  2.149684  0
Cd  Cd4  1  0.72230058  0.44471392  0.96655009  1  0  1.201148  0  1.693111  0  0  1.016417  0  2.146091  0  0  1.072531  0  2.091967  0  0  0.785614  0.976124  0  2.183365  0
Cd  Cd5  1  0.77769989  0.55528506  0.46655000  1  0  1.201132  0  1.693107  0  0  1.016421  0  2.14607  0  0  1.072532  0  2.091951  0  0  0.785617  0.976127  0  2.183341  0
Cd  Cd6  1  0.22230101  0.44471503  0.53344986  1  0  1.201168  0  1.69308  0  0  1.016442  0  2.146059  0  0  1.072554  0  2.091937  0  0  0.785633  0.976148  0  2.183331  0
Cd  Cd7  1  0.27769957  0.55528469  0.03344977  1  0  1.201143  0  1.693095  0  0  1.016416  0  2.146082  0  0  1.072531  0  2.091958  0  0  0.785616  0.976124  0  2.183355  0
H  H8  1  0.82663246  0.65310215  0.67544697  1  0  0.093544  0  0.9709  0  0  0.103606  0  1.03588  0  0  0.105753  0  1.032269  0  0  0.126591  0.101907  0  1.038624  0
H  H9  1  0.67336983  0.34689797  0.17544642  1  0  0.093563  0  0.97088  0  0  0.103624  0  1.035861  0  0  0.105771  0  1.032249  0  0  0.126591  0.101922  0  1.038613  0
H  H10  1  0.32663242  0.65310213  0.82455287  1  0  0.093518  0  0.970908  0  0  0.103578  0  1.035893  0  0  0.105725  0  1.032281  0  0  0.126576  0.101877  0  1.038644  0
H  H11  1  0.17336979  0.34689795  0.32455460  1  0  0.093554  0  0.970848  0  0  0.103615  0  1.035832  0  0  0.105765  0  1.032217  0  0  0.126582  0.101912  0  1.038587  0
H  H12  1  0.96255727  0.92528385  0.88934966  1  0  0.081848  0  0.940146  0  0  0.098036  0  0.994728  0  0  0.0988  0  0.992771  0  0  0.130652  0.09728  0  0.996294  0
H  H13  1  0.53744556  0.07471990  0.38934983  1  0  0.081846  0  0.940149  0  0  0.098037  0  0.994723  0  0  0.098799  0  0.99277  0  0  0.130652  0.097286  0  0.996282  0
H  H14  1  0.46255623  0.92528467  0.61065059  1  0  0.081824  0  0.940195  0  0  0.098011  0  0.994783  0  0  0.098774  0  0.992827  0  0  0.130633  0.097282  0  0.996316  0
H  H15  1  0.03744437  0.07471773  0.11065134  1  0  0.081832  0  0.940194  0  0  0.098022  0  0.994777  0  0  0.098785  0  0.992821  0  0  0.130639  0.097294  0  0.996309  0
C  C16  1  0.83666592  0.67321787  0.73655434  1  0  0.223932  0  3.68548  0  0  0.165418  0  3.96088  0  0  0.179603  0  3.97499  0  0  0.133945  0.156058  0  3.951164  0
C  C17  1  0.66333358  0.32678201  0.23655437  1  0  0.223865  0  3.685538  0  0  0.165347  0  3.96094  0  0  0.179532  0  3.975049  0  0  0.133916  0.155985  0  3.951224  0
C  C18  1  0.33666597  0.67321809  0.76344549  1  0  0.223895  0  3.685596  0  0  0.165376  0  3.961  0  0  0.179559  0  3.975113  0  0  0.133898  0.156013  0  3.951284  0
C  C19  1  0.16333364  0.32678222  0.26344609  1  0  0.223891  0  3.685502  0  0  0.165376  0  3.960899  0  0  0.179558  0  3.975012  0  0  0.133927  0.156015  0  3.951182  0
C  C20  1  0.90785110  0.81584592  0.84429778  1  0  0.224631  0  3.737364  0  0  0.167847  0  4.004823  0  0  0.182398  0  4.020636  0  0  0.134958  0.158281  0  3.993909  0
C  C21  1  0.59215046  0.18415801  0.34429790  1  0  0.224676  0  3.737458  0  0  0.167894  0  4.004904  0  0  0.182444  0  4.020719  0  0  0.134984  0.158326  0  3.993987  0
C  C22  1  0.40785133  0.81584656  0.65570197  1  0  0.224631  0  3.737394  0  0  0.167845  0  4.004852  0  0  0.182397  0  4.020666  0  0  0.134968  0.158259  0  3.993929  0
C  C23  1  0.09214786  0.18415567  0.15570265  1  0  0.224631  0  3.737445  0  0  0.167847  0  4.004897  0  0  0.1824  0  4.020708  0  0  0.134958  0.158261  0  3.993975  0
C  C24  1  0.51400087  0.02783771  0.04326451  1  0  0.564098  0  3.874957  0  0  0.516453  0  4.16622  0  0  0.547546  0  4.159178  0  0  0.209433  0.495199  0  4.170415  0
C  C25  1  0.98600163  0.97216292  0.54326487  1  0  0.564099  0  3.874813  0  0  0.516435  0  4.166149  0  0  0.547527  0  4.159106  0  0  0.209406  0.495182  0  4.170342  0
C  C26  1  0.01400136  0.02783866  0.45673556  1  0  0.564107  0  3.874871  0  0  0.516444  0  4.166207  0  0  0.547539  0  4.159163  0  0  0.209416  0.49519  0  4.170399  0
C  C27  1  0.48600003  0.97216238  0.95673479  1  0  0.564114  0  3.874849  0  0  0.516484  0  4.166123  0  0  0.547579  0  4.159078  0  0  0.209428  0.495232  0  4.170317  0
C  C28  1  0.25670001  0.30191725  0.88733537  1  0  0.553566  0  3.883689  0  0  0.50367  0  4.181557  0  0  0.53421  0  4.175529  0  0  0.20736  0.482837  0  4.184965  0
C  C29  1  0.24330000  0.69808109  0.38733462  1  0  0.553537  0  3.883651  0  0  0.503614  0  4.18156  0  0  0.534154  0  4.175534  0  0  0.207295  0.482783  0  4.184966  0
C  C30  1  0.54492874  0.30177694  0.61268056  1  0  0.553974  0  3.88483  0  0  0.503742  0  4.18276  0  0  0.534357  0  4.176647  0  0  0.207226  0.482869  0  4.186228  0
C  C31  1  0.95507156  0.69822194  0.11268039  1  0  0.554068  0  3.884781  0  0  0.503823  0  4.182716  0  0  0.534438  0  4.176601  0  0  0.207256  0.482951  0  4.186187  0
C  C32  1  0.74330014  0.69808136  0.11266449  1  0  0.553533  0  3.883675  0  0  0.503625  0  4.181574  0  0  0.534166  0  4.175543  0  0  0.207315  0.482791  0  4.184986  0
C  C33  1  0.75670016  0.30191752  0.61266468  1  0  0.553553  0  3.883615  0  0  0.503642  0  4.181515  0  0  0.534182  0  4.175487  0  0  0.207343  0.482808  0  4.184925  0
C  C34  1  0.45507142  0.69822167  0.38731930  1  0  0.554022  0  3.884824  0  0  0.503806  0  4.182744  0  0  0.534421  0  4.176631  0  0  0.207251  0.482934  0  4.18621  0
C  C35  1  0.04492860  0.30177667  0.88732004  1  0  0.554024  0  3.884874  0  0  0.503789  0  4.182798  0  0  0.534404  0  4.176686  0  0  0.207231  0.482917  0  4.186265  0
N  N36  1  0.92829597  0.85659915  0.76900181  1  0  -0.448022  0  3.171423  0  0  -0.367345  0  3.45828  0  0  -0.392809  0  3.472526  0  0  -0.356166  -0.349891  0  3.448018  0
N  N37  1  0.57170019  0.14340209  0.26900251  1  0  -0.448018  0  3.171545  0  0  -0.367339  0  3.458386  0  0  -0.392804  0  3.472633  0  0  -0.356169  -0.349884  0  3.448121  0
N  N38  1  0.42829473  0.85659949  0.73099792  1  0  -0.447968  0  3.171454  0  0  -0.367288  0  3.458292  0  0  -0.392751  0  3.472539  0  0  -0.356134  -0.349838  0  3.448047  0
N  N39  1  0.07169955  0.14340095  0.23099862  1  0  -0.447997  0  3.171449  0  0  -0.367321  0  3.458293  0  0  -0.392785  0  3.472541  0  0  -0.356151  -0.349868  0  3.448038  0
N  N40  1  0.81034796  0.62077400  0.85760776  1  0  -0.311683  0  3.216581  0  0  -0.240724  0  3.501841  0  0  -0.260248  0  3.52092  0  0  -0.263519  -0.227396  0  3.488617  0
N  N41  1  0.68964880  0.37922839  0.35760720  1  0  -0.311706  0  3.216682  0  0  -0.240751  0  3.501942  0  0  -0.260275  0  3.521022  0  0  -0.263514  -0.227423  0  3.488716  0
N  N42  1  0.31034746  0.62077320  0.64239209  1  0  -0.311681  0  3.21658  0  0  -0.24072  0  3.501828  0  0  -0.260245  0  3.520907  0  0  -0.263513  -0.227393  0  3.488611  0
N  N43  1  0.18964831  0.37922759  0.14239323  1  0  -0.311681  0  3.21672  0  0  -0.240726  0  3.501979  0  0  -0.260249  0  3.521057  0  0  -0.263504  -0.227399  0  3.488763  0
N  N44  1  0.76407213  0.52805862  0.78825415  1  0  -0.288442  0  3.153223  0  0  -0.226852  0  3.434328  0  0  -0.244966  0  3.455227  0  0  -0.254062  -0.214486  0  3.419914  0
N  N45  1  0.73592938  0.47194255  0.28825354  1  0  -0.288411  0  3.153255  0  0  -0.226824  0  3.434362  0  0  -0.244936  0  3.455259  0  0  -0.25406  -0.214458  0  3.419947  0
N  N46  1  0.26407362  0.52805904  0.71174519  1  0  -0.288403  0  3.153284  0  0  -0.226809  0  3.434377  0  0  -0.244922  0  3.455277  0  0  -0.254029  -0.214444  0  3.419963  0
N  N47  1  0.23592877  0.47194148  0.21174628  1  0  -0.288408  0  3.153288  0  0  -0.22682  0  3.434384  0  0  -0.244932  0  3.455283  0  0  -0.254055  -0.214454  0  3.419968  0
O  O48  1  0.55919714  0.11872522  0.91115753  1  0  -0.630824  0  2.229861  0  0  -0.550196  0  2.497233  0  0  -0.581343  0  2.48539  0  0  -0.316603  -0.528292  0  2.504591  0
O  O49  1  0.94080551  0.88127547  0.41115781  1  0  -0.630826  0  2.229812  0  0  -0.550182  0  2.497206  0  0  -0.581327  0  2.485357  0  0  -0.316598  -0.528279  0  2.504562  0
O  O50  1  0.05919673  0.11872463  0.58884205  1  0  -0.630827  0  2.229808  0  0  -0.550164  0  2.497199  0  0  -0.581311  0  2.485358  0  0  -0.316586  -0.528262  0  2.504556  0
O  O51  1  0.44080510  0.88127488  0.08884233  1  0  -0.630807  0  2.229833  0  0  -0.550155  0  2.49721  0  0  -0.581301  0  2.485369  0  0  -0.316589  -0.528251  0  2.504567  0
O  O52  1  0.60442089  0.20848262  0.06223915  1  0  -0.569584  0  2.048548  0  0  -0.515031  0  2.294654  0  0  -0.541342  0  2.285505  0  0  -0.306775  -0.496637  0  2.300421  0
O  O53  1  0.89557874  0.79151497  0.56223905  1  0  -0.569576  0  2.048407  0  0  -0.515034  0  2.294548  0  0  -0.541346  0  2.285401  0  0  -0.306772  -0.496631  0  2.300291  0
O  O54  1  0.10442007  0.20848364  0.43776025  1  0  -0.569614  0  2.048467  0  0  -0.515042  0  2.294598  0  0  -0.541355  0  2.285448  0  0  -0.306774  -0.496647  0  2.300358  0
O  O55  1  0.39557852  0.79151450  0.93776071  1  0  -0.569611  0  2.048406  0  0  -0.515062  0  2.294561  0  0  -0.541375  0  2.285412  0  0  -0.306783  -0.49666  0  2.300309  0
O  O56  1  0.30306884  0.23832590  0.82855466  1  0  -0.608117  0  2.153484  0  0  -0.544484  0  2.424528  0  0  -0.573446  0  2.415881  0  0  -0.305944  -0.52404  0  2.429773  0
O  O57  1  0.19693126  0.76167267  0.32855386  1  0  -0.608128  0  2.153456  0  0  -0.544486  0  2.424513  0  0  -0.573441  0  2.415852  0  0  -0.305906  -0.524044  0  2.429756  0
O  O58  1  0.43492792  0.23776288  0.67144485  1  0  -0.608503  0  2.156256  0  0  -0.543814  0  2.425919  0  0  -0.572839  0  2.417277  0  0  -0.305393  -0.523265  0  2.431006  0
O  O59  1  0.06507110  0.76223631  0.17144462  1  0  -0.608529  0  2.156173  0  0  -0.543842  0  2.425847  0  0  -0.57288  0  2.417239  0  0  -0.305392  -0.523291  0  2.430932  0
O  O60  1  0.69693206  0.76167420  0.17144464  1  0  -0.608142  0  2.153499  0  0  -0.544497  0  2.424533  0  0  -0.57346  0  2.415888  0  0  -0.305923  -0.524054  0  2.42978  0
O  O61  1  0.80306815  0.23832445  0.67144600  1  0  -0.608088  0  2.153407  0  0  -0.544457  0  2.42445  0  0  -0.573421  0  2.415806  0  0  -0.305925  -0.524014  0  2.429696  0
O  O62  1  0.56507164  0.76223722  0.32855501  1  0  -0.608512  0  2.156251  0  0  -0.543845  0  2.425923  0  0  -0.572868  0  2.417282  0  0  -0.305396  -0.523294  0  2.431006  0
O  O63  1  0.93492772  0.23776230  0.82855524  1  0  -0.608535  0  2.156251  0  0  -0.543849  0  2.42591  0  0  -0.572872  0  2.417266  0  0  -0.305418  -0.523301  0  2.431005  0
O  O64  1  0.36312902  0.36479379  0.94738583  1  0  -0.614186  0  2.133544  0  0  -0.545638  0  2.39722  0  0  -0.575359  0  2.387344  0  0  -0.312246  -0.5247  0  2.40325  0
O  O65  1  0.13687015  0.63520282  0.44738511  1  0  -0.61416  0  2.133478  0  0  -0.545608  0  2.39717  0  0  -0.575328  0  2.387295  0  0  -0.312237  -0.524669  0  2.403194  0
O  O66  1  0.50145573  0.36497152  0.55270726  1  0  -0.614161  0  2.133443  0  0  -0.545379  0  2.397014  0  0  -0.575157  0  2.387248  0  0  -0.312136  -0.52443  0  2.403014  0
O  O67  1  0.99854317  0.63502461  0.05270770  1  0  -0.614169  0  2.133445  0  0  -0.545394  0  2.397041  0  0  -0.575172  0  2.387275  0  0  -0.312141  -0.524444  0  2.403043  0
O  O68  1  0.63687039  0.63520333  0.05261403  1  0  -0.614159  0  2.133529  0  0  -0.5456  0  2.397206  0  0  -0.575321  0  2.387329  0  0  -0.312228  -0.524665  0  2.403245  0
O  O69  1  0.86312866  0.36479578  0.55261475  1  0  -0.61417  0  2.133517  0  0  -0.545618  0  2.397197  0  0  -0.575336  0  2.387321  0  0  -0.312239  -0.524681  0  2.403229  0
O  O70  1  0.49854233  0.63502560  0.44729260  1  0  -0.61416  0  2.133425  0  0  -0.5454  0  2.397011  0  0  -0.575178  0  2.387246  0  0  -0.312154  -0.524451  0  2.403013  0
O  O71  1  0.00145684  0.36497102  0.94729217  1  0  -0.614154  0  2.133491  0  0  -0.545376  0  2.397077  0  0  -0.575154  0  2.387308  0  0  -0.312103  -0.524427  0  2.403078  0
