# generated using pymatgen
data_Zn2H23C38N2O8F5
_symmetry_space_group_name_H-M   'P 1'
_cell_length_a   10.87751031
_cell_length_b   12.40381156
_cell_length_c   13.56019041
_cell_angle_alpha   80.96888272
_cell_angle_beta   87.98207129
_cell_angle_gamma   71.82726202
_symmetry_Int_Tables_number   1
_chemical_formula_structural   Zn2H23C38N2O8F5
_chemical_formula_sum   'Zn2 H23 C38 N2 O8 F5'
_cell_volume   1716.58406432
_cell_formula_units_Z   1
loop_
 _symmetry_equiv_pos_site_id
 _symmetry_equiv_pos_as_xyz
  1  'x, y, z'
loop_
 _atom_site_type_symbol
 _atom_site_label
 _atom_site_symmetry_multiplicity
 _atom_site_fract_x
 _atom_site_fract_y
 _atom_site_fract_z
 _atom_site_occupancy
 _atom_site_pbe_bader_charge
 _atom_site_pbe_bader_spin_density
 _atom_site_pbe_cm5_charge
 _atom_site_pbe_ddec_charge
 _atom_site_pbe_ddec_spin_density
 _atom_site_pbe_ddec_sum_bond_order
 _atom_site_pbe_magmom
Zn  Zn0  1  0.45525022  0.61563977  0.51290685  1  1.286626  0  0.668431  0.821773  0  2.41643  0
Zn  Zn1  1  0.54156885  0.38171632  0.48576128  1  1.295139  0  0.671865  0.852943  0  2.354787  0
H  H2  1  0.81230251  0.67779686  0.44310868  1  0.083006  0  0.096792  0.042842  0  0.981991  0
H  H3  1  0.30522740  0.12530273  0.69685900  1  0.06682  0  0.118431  0.121972  0  0.967484  0
H  H4  1  0.24791127  0.94246366  0.71448289  1  0.093659  0  0.11764  0.124592  0  0.979065  0
H  H5  1  0.53490723  0.81246216  0.43914580  1  0.104532  0  0.125581  0.098161  0  1.003776  0
H  H6  1  0.63295690  0.91664397  0.36773262  1  0.098262  0  0.123346  0.123375  0  0.974408  0
H  H7  1  0.75055614  0.05199922  0.28960179  1  0.119834  0  0.127258  0.155459  0  0.962826  0
H  H8  1  0.42924863  0.24896433  0.61295549  1  0.161091  0  0.118783  0.142603  0  1.018877  0
H  H9  1  0.05877854  0.63109831  0.35613350  1  0.046349  0  0.10248  0.122421  0  0.967476  0
H  H10  1  0.02129665  0.68954220  0.46824032  1  0.047389  0  0.095789  0.109686  0  0.981186  0
H  H11  1  0.87022726  0.60276116  0.61356202  1  0.051953  0  0.100262  0.047049  0  0.956516  0
H  H12  1  0.09650986  0.55467494  0.64035863  1  0.044471  0  0.096876  0.109925  0  0.973422  0
H  H13  1  0.17972740  0.32319382  0.47725425  1  0.085175  0  0.096056  0.115723  0  1.003333  0
H  H14  1  0.93044836  0.36740786  0.40192539  1  0.105393  0  0.102322  0.061909  0  0.968277  0
H  H15  1  0.12134687  0.41620892  0.36442485  1  0.059834  0  0.099961  0.116051  0  0.961559  0
H  H16  1  0.42834664  0.56637997  0.82888226  1  0.070079  0  0.099851  0.100758  0  1.035512  0
H  H17  1  0.28345502  0.75073754  0.65868742  1  0.118413  0  0.127385  0.103298  0  0.974015  0
H  H18  1  0.11840472  0.40660467  0.63960657  1  0.046869  0  0.101799  0.122458  0  0.969668  0
H  H19  1  0.72367289  0.26030754  0.77901339  1  0.07845  0  0.107068  0.114749  0  0.991376  0
H  H20  1  0.81597134  0.31497994  0.10875057  1  0.081876  0  0.108556  0.134422  0  0.987985  0
H  H21  1  0.81356486  0.23735452  0.95110681  1  0.051787  0  0.098932  0.099255  0  0.997988  0
H  H22  1  0.30650466  0.75066500  0.22243106  1  0.084423  0  0.10498  0.111037  0  0.991951  0
H  H23  1  0.34065451  0.67117759  0.92316927  1  0.044891  0  0.099889  0.098556  0  1.018194  0
H  H24  1  0.23108333  0.79736659  0.04368277  1  0.022426  0  0.0997  0.095512  0  0.996421  0
C  C25  1  0.48925247  0.57019099  0.30866792  1  1.588905  0  0.214149  0.600454  0  4.182805  0
C  C26  1  0.49082376  0.55928840  0.02669647  1  -0.007659  0  0.001303  0.056421  0  3.954539  0
C  C27  1  0.53926615  0.53979693  0.12673456  1  0.009673  0  -0.007658  -0.045296  0  3.969331  0
C  C28  1  0.73802084  0.49553904  0.50457615  1  1.607499  0  0.218851  0.608018  0  4.124767  0
C  C29  1  0.55538547  0.48159412  0.95756002  1  0.004627  0  -0.008791  0.015145  0  3.958729  0
C  C30  1  0.66839667  0.38787180  0.99020418  1  0.01192  0  -0.005173  0.106786  0  4.03195  0
C  C31  1  0.72309510  0.37896056  0.08640000  1  -0.030512  0  -0.109799  -0.285363  0  4.029225  0
C  C32  1  0.66190942  0.45365161  0.14929043  1  0.466701  0  0.100047  0.251254  0  4.081571  0
C  C33  1  0.51075911  0.49407052  0.85899921  1  -0.02144  0  -0.082432  -0.12964  0  3.950117  0
C  C34  1  0.67827396  0.32046504  0.83001618  1  0.006837  0  -0.082982  -0.082867  0  3.994565  0
C  C35  1  0.46751519  0.60669297  0.19790428  1  0.031517  0  -0.009702  -0.040795  0  3.922823  0
C  C36  1  0.11732577  0.50475580  0.49098003  1  0.00752  0  -0.015027  0.056301  0  3.796963  0
C  C37  1  0.31248878  0.91696437  0.65316024  1  -0.098919  0  -0.074237  -0.170267  0  3.963205  0
C  C38  1  0.66102517  0.17521836  0.38729771  1  1.12919  0  0.255407  0.461977  0  4.06162  0
C  C39  1  0.68383947  0.07118818  0.35074519  1  0.058524  0  -0.083307  -0.243993  0  3.983398  0
C  C40  1  0.52386036  0.43611184  0.69008754  1  1.560591  0  0.212609  0.593979  0  4.168153  0
C  C41  1  0.61838956  0.99781305  0.39488512  1  -0.038908  0  -0.051971  -0.04033  0  3.958686  0
C  C42  1  0.53362261  0.02798766  0.47450617  1  0.015983  0  0.002836  -0.015748  0  3.973441  0
C  C43  1  0.51835277  0.13528448  0.50652782  1  0.427707  0  0.129599  0.233702  0  3.933847  0
C  C44  1  0.46280533  0.95482118  0.52500151  1  -0.025528  0  0.002943  -0.008074  0  3.967972  0
C  C45  1  0.37954179  0.99098876  0.60505013  1  0.05046  0  0.012269  0.103671  0  4.017552  0
C  C46  1  0.36868443  0.09874639  0.63510093  1  -0.002339  0  -0.067381  -0.10244  0  3.945564  0
C  C47  1  0.07102030  0.49378266  0.60063234  1  0.002463  0  -0.161141  -0.273067  0  3.856689  0
C  C48  1  0.43629885  0.16791899  0.58853817  1  -0.004881  0  -0.065463  -0.122211  0  3.907568  0
C  C49  1  0.47324805  0.84679517  0.49929999  1  0.579176  0  0.069745  0.068888  0  3.883459  0
C  C50  1  0.33035344  0.81228218  0.62290061  1  0.507231  0  0.049904  0.08645  0  3.948532  0
C  C51  1  0.25672895  0.50764637  0.49115626  1  1.586961  0  0.221583  0.596718  0  4.092806  0
C  C52  1  0.88987166  0.60144259  0.42702781  1  0.445501  0  0.028323  0.214224  0  3.798706  0
C  C53  1  0.02477642  0.61502555  0.43267034  1  -0.006276  0  -0.166269  -0.281383  0  3.899964  0
C  C54  1  0.92439008  0.51482740  0.60133230  1  0.50356  0  0.029624  0.225855  0  3.808639  0
C  C55  1  0.97236596  0.38758934  0.46627321  1  0.47337  0  0.019425  0.214539  0  3.796454  0
C  C56  1  0.87914570  0.49585805  0.50046322  1  0.016082  0  -0.026141  -0.184248  0  3.785949  0
C  C57  1  0.10559132  0.40247604  0.44534488  1  -0.061019  0  -0.169482  -0.279824  0  3.892027  0
C  C58  1  0.72723511  0.30829030  0.92503643  1  -0.047557  0  -0.0959  -0.144188  0  3.999809  0
C  C59  1  0.56993466  0.41546196  0.79589270  1  -0.043061  0  -0.022655  -0.037803  0  3.991215  0
C  C60  1  0.35952591  0.69985668  0.16689093  1  -0.102928  0  -0.089411  -0.104939  0  3.995077  0
C  C61  1  0.31654114  0.72443173  0.06701284  1  0.037084  0  -0.097968  -0.089807  0  4.075195  0
C  C62  1  0.37886938  0.65368211  0.99919097  1  -0.02411  0  -0.091434  -0.130897  0  4.003416  0
N  N63  1  0.40999605  0.77832510  0.54666426  1  -1.255034  0  -0.323162  -0.193955  0  3.54593  0
N  N64  1  0.58218652  0.20883298  0.46021713  1  -1.238201  0  -0.30602  -0.339191  0  3.402851  0
O  O65  1  0.48479969  0.64740241  0.36189823  1  -1.163821  0  -0.32497  -0.556387  0  2.306402  0
O  O66  1  0.49970144  0.46569908  0.34046846  1  -1.15534  0  -0.319269  -0.558349  0  2.342472  0
O  O67  1  0.65528734  0.58219480  0.53301989  1  -1.184761  0  -0.32068  -0.564061  0  2.3137  0
O  O68  1  0.71599330  0.41002255  0.47772898  1  -1.148042  0  -0.305274  -0.527868  0  2.377009  0
O  O69  1  0.44800555  0.53596497  0.65661638  1  -1.182059  0  -0.328644  -0.568591  0  2.339097  0
O  O70  1  0.56568863  0.35367198  0.63961758  1  -1.162533  0  -0.316441  -0.549244  0  2.315998  0
O  O71  1  0.27400871  0.60521608  0.48508593  1  -1.165748  0  -0.319869  -0.543742  0  2.295145  0
O  O72  1  0.34496816  0.41109205  0.50026676  1  -1.182311  0  -0.313545  -0.551916  0  2.380963  0
F  F73  1  0.89181384  0.44239114  0.68203404  1  -0.629139  0  -0.149936  -0.202958  0  1.242918  0
F  F74  1  0.86504735  0.58748564  0.32834326  1  -0.624893  0  -0.151967  -0.206706  0  1.228608  0
F  F75  1  0.72278738  0.45068121  0.23580819  1  -0.624215  0  -0.090508  -0.122838  0  1.423023  0
F  F76  1  0.72408187  0.24715055  0.34501333  1  -0.618027  0  -0.057953  -0.119457  0  1.398242  0
F  F77  1  0.98605619  0.29196946  0.54341114  1  -0.628568  0  -0.166091  -0.222464  0  1.222261  0
