# generated using pymatgen
data_CuH9C7IN
_symmetry_space_group_name_H-M   'P 1'
_cell_length_a   8.01458983
_cell_length_b   10.25092640
_cell_length_c   10.25094006
_cell_angle_alpha   94.86362907
_cell_angle_beta   94.13504565
_cell_angle_gamma   94.13597638
_symmetry_Int_Tables_number   1
_chemical_formula_structural   CuH9C7IN
_chemical_formula_sum   'Cu4 H36 C28 I4 N4'
_cell_volume   834.37166195
_cell_formula_units_Z   4
loop_
 _symmetry_equiv_pos_site_id
 _symmetry_equiv_pos_as_xyz
  1  'x, y, z'
loop_
 _atom_site_type_symbol
 _atom_site_label
 _atom_site_symmetry_multiplicity
 _atom_site_fract_x
 _atom_site_fract_y
 _atom_site_fract_z
 _atom_site_occupancy
 _atom_site_pbe_bader_spin_density
 _atom_site_pbe_cm5_charge
 _atom_site_pbe_ddec_charge
 _atom_site_pbe_ddec_spin_density
 _atom_site_pbe_ddec_sum_bond_order
 _atom_site_pbe_magmom
Cu  Cu0  1  0.88310872  0.88735288  0.01327790  1  0  0.237789  0.144162  0  2.721322  0
Cu  Cu1  1  0.61689067  0.98672541  0.11264128  1  0  0.237841  0.144235  0  2.721339  0
Cu  Cu2  1  0.11689224  0.11264483  0.98672108  1  0  0.237787  0.14408  0  2.721386  0
Cu  Cu3  1  0.38310891  0.01327133  0.88735850  1  0  0.237818  0.144227  0  2.721305  0
H  H4  1  0.20495118  0.76324233  0.04551410  1  0  0.097349  0.077842  0  1.048595  0
H  H5  1  0.29504487  0.95448763  0.23675502  1  0  0.09735  0.077827  0  1.04852  0
H  H6  1  0.79505401  0.23675929  0.95448257  1  0  0.097334  0.077787  0  1.048664  0
H  H7  1  0.70495185  0.04550522  0.76323839  1  0  0.097375  0.077823  0  1.048548  0
H  H8  1  0.10849290  0.42120173  0.25429768  1  0  0.100669  0.111461  0  1.01839  0
H  H9  1  0.39149243  0.74571446  0.57880264  1  0  0.100682  0.111427  0  1.018324  0
H  H10  1  0.89151422  0.57879496  0.74569967  1  0  0.10063  0.111409  0  1.01847  0
H  H11  1  0.60849613  0.25429612  0.42120446  1  0  0.100652  0.11144  0  1.018411  0
H  H12  1  0.71974806  0.66717799  0.13869368  1  0  0.101138  0.081975  0  1.041857  0
H  H13  1  0.78024423  0.86130365  0.33281641  1  0  0.101133  0.081933  0  1.041822  0
H  H14  1  0.28025644  0.33281773  0.86130341  1  0  0.101146  0.081967  0  1.041898  0
H  H15  1  0.21975144  0.13869214  0.66718694  1  0  0.101154  0.082011  0  1.041773  0
H  H16  1  0.44067237  0.64764749  0.21444322  1  0  0.08767  0.124524  0  1.044634  0
H  H17  1  0.05931905  0.78555888  0.35235033  1  0  0.087689  0.124591  0  1.044588  0
H  H18  1  0.55933023  0.35235317  0.78555222  1  0  0.087658  0.124502  0  1.044624  0
H  H19  1  0.94067234  0.21444285  0.64764936  1  0  0.08769  0.124594  0  1.044601  0
H  H20  1  0.38903339  0.47469199  0.19912036  1  0  0.079992  0.121328  0  1.043802  0
H  H21  1  0.11095813  0.80088475  0.52530877  1  0  0.080066  0.121469  0  1.04369  0
H  H22  1  0.61097298  0.52530961  0.80088126  1  0  0.080012  0.121342  0  1.043828  0
H  H23  1  0.88903940  0.19911595  0.47469123  1  0  0.080061  0.121441  0  1.043733  0
H  H24  1  0.40995606  0.56128213  0.05737149  1  0  0.085238  0.127015  0  1.031516  0
H  H25  1  0.09004004  0.94263088  0.43871634  1  0  0.085201  0.12698  0  1.031601  0
H  H26  1  0.59004285  0.43871954  0.94262770  1  0  0.085226  0.126999  0  1.031528  0
H  H27  1  0.90995895  0.05737177  0.56128489  1  0  0.085207  0.126999  0  1.031617  0
H  H28  1  0.67866743  0.39477461  0.19262951  1  0  0.079424  0.131286  0  1.045301  0
H  H29  1  0.82131949  0.80737944  0.60522423  1  0  0.079424  0.131265  0  1.045388  0
H  H30  1  0.32134128  0.60522598  0.80737608  1  0  0.079455  0.131287  0  1.045308  0
H  H31  1  0.17867585  0.19262422  0.39477783  1  0  0.079431  0.131228  0  1.045288  0
H  H32  1  0.83216362  0.37095235  0.31887390  1  0  0.083137  0.123361  0  1.032803  0
H  H33  1  0.66782305  0.68113625  0.62904847  1  0  0.083149  0.123372  0  1.032719  0
H  H34  1  0.16784535  0.62905020  0.68112992  1  0  0.083147  0.123366  0  1.032814  0
H  H35  1  0.33217657  0.31887228  0.37095721  1  0  0.083139  0.123316  0  1.032742  0
H  H36  1  0.70050842  0.50344194  0.33746022  1  0  0.089942  0.127928  0  1.00983  0
H  H37  1  0.79947767  0.66254974  0.49655629  1  0  0.089985  0.127947  0  1.009869  0
H  H38  1  0.29950161  0.49655865  0.66254058  1  0  0.089921  0.127863  0  1.009851  0
H  H39  1  0.20051674  0.33745687  0.50344694  1  0  0.08994  0.127888  0  1.009923  0
C  C40  1  0.12130871  0.69630473  0.09295598  1  0  0.030518  0.00905  0  3.89092  0
C  C41  1  0.37869124  0.90704224  0.30369300  1  0  0.030492  0.008979  0  3.890958  0
C  C42  1  0.87869156  0.30369791  0.90704339  1  0  0.030541  0.009089  0  3.891014  0
C  C43  1  0.62130910  0.09294960  0.69630153  1  0  0.03046  0.009009  0  3.891059  0
C  C44  1  0.18206721  0.58936457  0.15226030  1  0  -0.004134  0.148512  0  3.973801  0
C  C45  1  0.31792441  0.84773820  0.41063185  1  0  -0.004068  0.148712  0  3.973688  0
C  C46  1  0.81794011  0.41063408  0.84773917  1  0  -0.004123  0.148557  0  3.973681  0
C  C47  1  0.68206775  0.15225958  0.58937048  1  0  -0.004152  0.148639  0  3.973725  0
C  C48  1  0.06665983  0.50704818  0.20898187  1  0  -0.077966  -0.168688  0  3.879285  0
C  C49  1  0.43333536  0.79102593  0.49295139  1  0  -0.078013  -0.168671  0  3.87928  0
C  C50  1  0.93335254  0.49295044  0.79101403  1  0  -0.077905  -0.168593  0  3.879397  0
C  C51  1  0.56666247  0.20897771  0.50705180  1  0  -0.077907  -0.16866  0  3.879256  0
C  C52  1  0.89747547  0.53280956  0.20711594  1  0  -0.007534  0.140948  0  3.99296  0
C  C53  1  0.60251831  0.79289387  0.46719413  1  0  -0.007512  0.140859  0  3.993273  0
C  C54  1  0.10252950  0.46719010  0.79288054  1  0  -0.007605  0.140831  0  3.993169  0
C  C55  1  0.39747587  0.20711077  0.53280989  1  0  -0.007574  0.140868  0  3.993116  0
C  C56  1  0.85009842  0.64237009  0.14549384  1  0  0.025824  -0.00646  0  3.911982  0
C  C57  1  0.64989227  0.85450974  0.35762649  1  0  0.025833  -0.006368  0  3.912082  0
C  C58  1  0.14990507  0.35762761  0.85450238  1  0  0.025855  -0.006388  0  3.911974  0
C  C59  1  0.35010272  0.14549097  0.64237627  1  0  0.025859  -0.006412  0  3.91201  0
C  C60  1  0.36487461  0.56646687  0.15623087  1  0  -0.245355  -0.415409  0  3.952544  0
C  C61  1  0.13511775  0.84377302  0.43353063  1  0  -0.245408  -0.415634  0  3.952608  0
C  C62  1  0.63512670  0.43353379  0.84376742  1  0  -0.245366  -0.415416  0  3.952443  0
C  C63  1  0.86487966  0.15622669  0.56647025  1  0  -0.245419  -0.415638  0  3.952527  0
C  C64  1  0.77104525  0.44643602  0.26762076  1  0  -0.245365  -0.416377  0  3.958985  0
C  C65  1  0.72894358  0.73238989  0.55356203  1  0  -0.245458  -0.416362  0  3.959168  0
C  C66  1  0.22895816  0.55356167  0.73238229  1  0  -0.245365  -0.416285  0  3.959058  0
C  C67  1  0.27105558  0.26761471  0.44644329  1  0  -0.24537  -0.416212  0  3.959088  0
I  I68  1  0.57345388  0.81313516  0.90942799  1  0  -0.156213  -0.289859  0  2.320901  0
I  I69  1  0.92654718  0.09057397  0.18686335  1  0  -0.156205  -0.289828  0  2.32078  0
I  I70  1  0.42654716  0.18686354  0.09057304  1  0  -0.156211  -0.289849  0  2.320872  0
I  I71  1  0.07345150  0.90942573  0.81313566  1  0  -0.156209  -0.289844  0  2.320827  0
N  N72  1  0.95908867  0.72283110  0.08980821  1  0  -0.362138  -0.172613  0  3.695783  0
N  N73  1  0.54090342  0.91019299  0.27716626  1  0  -0.36217  -0.1727  0  3.696032  0
N  N74  1  0.04090872  0.27716765  0.91018576  1  0  -0.362119  -0.172576  0  3.695793  0
N  N75  1  0.45909595  0.08980180  0.72283237  1  0  -0.362171  -0.172708  0  3.695973  0
