# generated using pymatgen
data_ZnH12C10N4O5
_symmetry_space_group_name_H-M   'P 1'
_cell_length_a   10.14065509
_cell_length_b   11.06678951
_cell_length_c   11.36397719
_cell_angle_alpha   90.00017862
_cell_angle_beta   90.47956397
_cell_angle_gamma   89.99985094
_symmetry_Int_Tables_number   1
_chemical_formula_structural   ZnH12C10N4O5
_chemical_formula_sum   'Zn4 H48 C40 N16 O20'
_cell_volume   1275.27193405
_cell_formula_units_Z   4
loop_
 _symmetry_equiv_pos_site_id
 _symmetry_equiv_pos_as_xyz
  1  'x, y, z'
loop_
 _atom_site_type_symbol
 _atom_site_label
 _atom_site_symmetry_multiplicity
 _atom_site_fract_x
 _atom_site_fract_y
 _atom_site_fract_z
 _atom_site_occupancy
 _atom_site_pbe_bader_spin_density
 _atom_site_pbe_cm5_charge
 _atom_site_pbe_ddec_charge
 _atom_site_pbe_ddec_spin_density
 _atom_site_pbe_ddec_sum_bond_order
 _atom_site_pbe_magmom
Zn  Zn0  1  0.12026520  0.89516755  0.70069210  1  0  0.696395  0.777174  0  2.377915  0
Zn  Zn1  1  0.37973415  0.39516512  0.79930782  1  0  0.696348  0.777042  0  2.377981  0
Zn  Zn2  1  0.87973425  0.10483381  0.29930754  1  0  0.696368  0.777141  0  2.377938  0
Zn  Zn3  1  0.62026629  0.60483444  0.20069271  1  0  0.696399  0.77715  0  2.377979  0
H  H4  1  0.49568386  0.12477930  0.71976525  1  0  0.105696  0.096492  0  0.997685  0
H  H5  1  0.00431725  0.62478045  0.78023299  1  0  0.10569  0.096512  0  0.997692  0
H  H6  1  0.50431561  0.87521935  0.28023175  1  0  0.105731  0.096588  0  0.997679  0
H  H7  1  0.99568517  0.37522000  0.21976580  1  0  0.105721  0.096571  0  0.997709  0
H  H8  1  0.49572221  0.07494528  0.57132161  1  0  0.10436  0.092443  0  1.000812  0
H  H9  1  0.00427509  0.57494871  0.92867819  1  0  0.10434  0.092422  0  1.000824  0
H  H10  1  0.50427529  0.92505157  0.42867449  1  0  0.104353  0.092442  0  1.000816  0
H  H11  1  0.99572535  0.42505445  0.07132410  1  0  0.104346  0.092445  0  1.000811  0
H  H12  1  0.73425019  0.07492964  0.57277900  1  0  0.104494  0.092194  0  1.0039  0
H  H13  1  0.76574823  0.57493064  0.92721916  1  0  0.104517  0.09219  0  1.003885  0
H  H14  1  0.26574532  0.92507173  0.42722148  1  0  0.104514  0.092195  0  1.003895  0
H  H15  1  0.23425321  0.42507253  0.07277963  1  0  0.104493  0.092134  0  1.003878  0
H  H16  1  0.74631750  0.11753391  0.72359846  1  0  0.105273  0.099708  0  0.981257  0
H  H17  1  0.75368079  0.61753355  0.77639983  1  0  0.105263  0.099674  0  0.981254  0
H  H18  1  0.25367900  0.88246474  0.27640115  1  0  0.105259  0.099693  0  0.981266  0
H  H19  1  0.24632163  0.38246781  0.22359897  1  0  0.105276  0.099697  0  0.981247  0
H  H20  1  0.90977719  0.89528261  0.90913059  1  0  0.11051  0.101634  0  1.053442  0
H  H21  1  0.59022327  0.39528019  0.59087032  1  0  0.110524  0.101652  0  1.053382  0
H  H22  1  0.09022324  0.10471876  0.09087258  1  0  0.110506  0.101597  0  1.05344  0
H  H23  1  0.40977717  0.60471484  0.40913109  1  0  0.110517  0.10163  0  1.053436  0
H  H24  1  0.97243474  0.79347126  0.12689184  1  0  0.120133  0.126704  0  1.03408  0
H  H25  1  0.52756626  0.29346991  0.37310899  1  0  0.120147  0.126695  0  1.034106  0
H  H26  1  0.02757062  0.20652919  0.87311139  1  0  0.12011  0.126647  0  1.03414  0
H  H27  1  0.47243516  0.70652874  0.62689243  1  0  0.120126  0.126686  0  1.034111  0
H  H28  1  0.21274278  0.72018168  0.10680134  1  0  0.305803  0.282167  0  1.010124  0
H  H29  1  0.28725732  0.22018068  0.39319740  1  0  0.305819  0.282203  0  1.010129  0
H  H30  1  0.78726161  0.27981877  0.89319748  1  0  0.3058  0.28219  0  1.010086  0
H  H31  1  0.71274313  0.77981978  0.60680138  1  0  0.305795  0.282151  0  1.010132  0
H  H32  1  0.30135914  0.76842268  0.90182553  1  0  0.132533  0.09819  0  1.038153  0
H  H33  1  0.19863862  0.26842184  0.59817047  1  0  0.132541  0.098198  0  1.038212  0
H  H34  1  0.69863837  0.23157688  0.09817057  1  0  0.132539  0.098184  0  1.038154  0
H  H35  1  0.80135887  0.73157591  0.40182739  1  0  0.13256  0.098219  0  1.038209  0
H  H36  1  0.24227020  0.62485137  0.66554850  1  0  0.118753  0.117977  0  1.026246  0
H  H37  1  0.25772693  0.12484754  0.83445937  1  0  0.11879  0.117986  0  1.026292  0
H  H38  1  0.75772530  0.37514728  0.33445461  1  0  0.118776  0.118005  0  1.026303  0
H  H39  1  0.74227448  0.87514931  0.16554469  1  0  0.118774  0.118022  0  1.026295  0
H  H40  1  0.18382020  0.49623748  0.46054081  1  0  0.122653  0.120442  0  1.008614  0
H  H41  1  0.31617413  0.99624164  0.03947190  1  0  0.122654  0.120408  0  1.00864  0
H  H42  1  0.81617727  0.50376207  0.53946233  1  0  0.122679  0.120486  0  1.008513  0
H  H43  1  0.68382035  0.00376153  0.96053648  1  0  0.122651  0.120438  0  1.008549  0
H  H44  1  0.03650001  0.64110965  0.33781680  1  0  0.310051  0.279829  0  1.001463  0
H  H45  1  0.46350423  0.14111561  0.16218703  1  0  0.310109  0.279905  0  1.001341  0
H  H46  1  0.96350536  0.35889172  0.66218291  1  0  0.310075  0.279882  0  1.001395  0
H  H47  1  0.53649421  0.85888756  0.83781789  1  0  0.310092  0.279922  0  1.00137  0
H  H48  1  0.00802987  0.84223141  0.44062569  1  0  0.136104  0.111131  0  1.021453  0
H  H49  1  0.49197583  0.34223427  0.05936732  1  0  0.136103  0.111179  0  1.021364  0
H  H50  1  0.99197749  0.15777176  0.55937052  1  0  0.136106  0.111185  0  1.021374  0
H  H51  1  0.50802758  0.65776710  0.94063061  1  0  0.136097  0.111131  0  1.021447  0
C  C52  1  0.38065512  0.96455410  0.68904323  1  0  0.20234  0.581204  0  4.202822  0
C  C53  1  0.11934602  0.46455413  0.81095693  1  0  0.202325  0.581209  0  4.202801  0
C  C54  1  0.61934335  0.03544455  0.31095640  1  0  0.202407  0.581387  0  4.202747  0
C  C55  1  0.88065639  0.53544632  0.18904451  1  0  0.202356  0.581302  0  4.202938  0
C  C56  1  0.50006492  0.04335541  0.66347039  1  0  -0.073371  -0.129997  0  3.913259  0
C  C57  1  0.99993358  0.54335737  0.83652855  1  0  -0.073337  -0.129986  0  3.913286  0
C  C58  1  0.49993455  0.95664143  0.33652661  1  0  -0.073388  -0.130151  0  3.913344  0
C  C59  1  0.00006686  0.45664399  0.16347286  1  0  -0.073418  -0.130172  0  3.913524  0
C  C60  1  0.73424573  0.03951481  0.66384637  1  0  -0.07318  -0.13002  0  3.912579  0
C  C61  1  0.76575279  0.53951462  0.83615169  1  0  -0.07315  -0.129915  0  3.912603  0
C  C62  1  0.26575275  0.96048474  0.33615150  1  0  -0.073177  -0.130037  0  3.912627  0
C  C63  1  0.23424864  0.46048674  0.16384798  1  0  -0.073184  -0.129957  0  3.912555  0
C  C64  1  0.85160722  0.95422442  0.67778495  1  0  0.207888  0.593856  0  4.167609  0
C  C65  1  0.64839506  0.45422352  0.82221177  1  0  0.207889  0.593897  0  4.167576  0
C  C66  1  0.14839225  0.04577694  0.32221030  1  0  0.207848  0.593829  0  4.167748  0
C  C67  1  0.35160733  0.54577875  0.17779230  1  0  0.207798  0.593729  0  4.1677  0
C  C68  1  0.00078631  0.85540225  0.94035416  1  0  -0.010854  -0.050005  0  4.023328  0
C  C69  1  0.49921317  0.35540058  0.55964389  1  0  -0.01091  -0.050069  0  4.023344  0
C  C70  1  0.99921512  0.14459821  0.05964639  1  0  -0.010793  -0.049885  0  4.023277  0
C  C71  1  0.50078629  0.64459536  0.44035575  1  0  -0.010844  -0.049915  0  4.023224  0
C  C72  1  0.03016722  0.80593206  0.04820566  1  0  -0.002181  -0.054161  0  3.937278  0
C  C73  1  0.46983264  0.30593081  0.45179245  1  0  -0.002194  -0.054125  0  3.937257  0
C  C74  1  0.96983617  0.19406840  0.95179578  1  0  -0.002134  -0.054047  0  3.937346  0
C  C75  1  0.53016681  0.69406784  0.54820807  1  0  -0.002167  -0.054166  0  3.937114  0
C  C76  1  0.20414083  0.79076175  0.93330188  1  0  0.138789  0.143947  0  3.944813  0
C  C77  1  0.29585785  0.29076058  0.56669508  1  0  0.138797  0.143916  0  3.94488  0
C  C78  1  0.79585963  0.20923780  0.06669602  1  0  0.138807  0.143996  0  3.944771  0
C  C79  1  0.70414161  0.70923717  0.43330280  1  0  0.138797  0.14393  0  3.94484  0
C  C80  1  0.18477356  0.65062573  0.58878510  1  0  -0.004534  -0.040551  0  3.979774  0
C  C81  1  0.31521957  0.15062291  0.91121665  1  0  -0.00454  -0.040524  0  3.979673  0
C  C82  1  0.81522492  0.34937563  0.41121365  1  0  -0.004577  -0.040595  0  3.979795  0
C  C83  1  0.68477790  0.84937484  0.08878473  1  0  -0.004547  -0.040623  0  3.979618  0
C  C84  1  0.15672893  0.58652571  0.48792233  1  0  0.001713  -0.045134  0  3.930361  0
C  C85  1  0.34326658  0.08652877  0.01208298  1  0  0.001686  -0.045094  0  3.930485  0
C  C86  1  0.84327150  0.41347384  0.51207908  1  0  0.001682  -0.045153  0  3.930294  0
C  C87  1  0.65672794  0.91347078  0.98791836  1  0  0.001677  -0.045103  0  3.930344  0
C  C88  1  0.06096706  0.76547382  0.47715402  1  0  0.142205  0.145239  0  3.918425  0
C  C89  1  0.43903491  0.26547579  0.02283959  1  0  0.142214  0.145177  0  3.918345  0
C  C90  1  0.93903734  0.23452573  0.52284391  1  0  0.142201  0.145181  0  3.918424  0
C  C91  1  0.56096456  0.73452377  0.97715653  1  0  0.142222  0.145245  0  3.91848  0
N  N92  1  0.11047052  0.84576868  0.86916290  1  0  -0.368751  -0.309768  0  3.621494  0
N  N93  1  0.38952701  0.34577020  0.63083510  1  0  -0.368791  -0.309744  0  3.621538  0
N  N94  1  0.88952894  0.15422997  0.13083499  1  0  -0.36883  -0.309871  0  3.621655  0
N  N95  1  0.61047146  0.65422845  0.36916453  1  0  -0.368846  -0.309874  0  3.621592  0
N  N96  1  0.15873503  0.76629529  0.04173648  1  0  -0.376988  -0.201859  0  3.685645  0
N  N97  1  0.34126396  0.26629436  0.45826150  1  0  -0.376962  -0.201864  0  3.685537  0
N  N98  1  0.84126738  0.23370607  0.95826319  1  0  -0.377055  -0.202004  0  3.685672  0
N  N99  1  0.65873551  0.73370429  0.54173726  1  0  -0.37697  -0.20182  0  3.685513  0
N  N100  1  0.12411612  0.76238630  0.58095961  1  0  -0.366384  -0.310505  0  3.625158  0
N  N101  1  0.37588166  0.26238245  0.91903461  1  0  -0.366418  -0.31044  0  3.625052  0
N  N102  1  0.87588433  0.23761326  0.41903828  1  0  -0.366389  -0.310458  0  3.62516  0
N  N103  1  0.62411781  0.73761168  0.08096063  1  0  -0.366408  -0.310435  0  3.625087  0
N  N104  1  0.07971329  0.66103962  0.41890593  1  0  -0.374117  -0.193722  0  3.697423  0
N  N105  1  0.42028401  0.16104363  0.08109524  1  0  -0.374146  -0.193841  0  3.697317  0
N  N106  1  0.92029110  0.33896083  0.58109289  1  0  -0.374135  -0.19383  0  3.697421  0
N  N107  1  0.57971149  0.83895683  0.91890700  1  0  -0.374127  -0.193857  0  3.697522  0
O  O108  1  0.26835518  0.00818739  0.65629140  1  0  -0.333264  -0.554715  0  2.28644  0
O  O109  1  0.23164426  0.50818821  0.84371175  1  0  -0.333231  -0.554671  0  2.286354  0
O  O110  1  0.73164330  0.99181307  0.34370735  1  0  -0.33335  -0.554862  0  2.286454  0
O  O111  1  0.76835714  0.49181406  0.15629496  1  0  -0.33329  -0.554782  0  2.286533  0
O  O112  1  0.39545383  0.86516491  0.74086065  1  0  -0.308039  -0.54726  0  2.21604  0
O  O113  1  0.10454561  0.36516391  0.75914094  1  0  -0.308031  -0.547242  0  2.216035  0
O  O114  1  0.60454364  0.13483736  0.25914249  1  0  -0.308005  -0.547254  0  2.216052  0
O  O115  1  0.89545680  0.63483655  0.24085961  1  0  -0.308026  -0.547272  0  2.216093  0
O  O116  1  0.61605832  0.97498141  0.68672247  1  0  -0.226828  -0.191644  0  2.589089  0
O  O117  1  0.88394095  0.47498353  0.81327604  1  0  -0.226839  -0.19169  0  2.589213  0
O  O118  1  0.38394214  0.02501453  0.31327542  1  0  -0.226831  -0.191594  0  2.589122  0
O  O119  1  0.11605850  0.52501602  0.18672536  1  0  -0.226797  -0.191558  0  2.589202  0
O  O120  1  0.83498774  0.84228323  0.68664190  1  0  -0.316441  -0.549816  0  2.200047  0
O  O121  1  0.66501783  0.34228226  0.81335188  1  0  -0.316498  -0.549865  0  2.199908  0
O  O122  1  0.16501370  0.15771813  0.31335601  1  0  -0.316437  -0.549835  0  2.200061  0
O  O123  1  0.33498458  0.65772001  0.18664868  1  0  -0.316433  -0.549769  0  2.199939  0
O  O124  1  0.96531688  0.00675529  0.67870127  1  0  -0.330742  -0.551176  0  2.29112  0
O  O125  1  0.53468269  0.50675108  0.82130110  1  0  -0.330715  -0.55118  0  2.291188  0
O  O126  1  0.03468158  0.99324788  0.32130100  1  0  -0.330685  -0.551101  0  2.291242  0
O  O127  1  0.46531874  0.49325299  0.17869769  1  0  -0.330631  -0.551062  0  2.29126  0
