# generated using pymatgen
data_Zr3Cu4H24C24I4(NO4)4
_symmetry_space_group_name_H-M   'P 1'
_cell_length_a   17.58356495
_cell_length_b   17.58370304
_cell_length_c   21.44878108
_cell_angle_alpha   114.21164756
_cell_angle_beta   114.21072364
_cell_angle_gamma   89.98243500
_symmetry_Int_Tables_number   1
_chemical_formula_structural   Zr3Cu4H24C24I4(NO4)4
_chemical_formula_sum   'Zr6 Cu8 H48 C48 I8 N8 O32'
_cell_volume   5402.78852832
_cell_formula_units_Z   2
loop_
 _symmetry_equiv_pos_site_id
 _symmetry_equiv_pos_as_xyz
  1  'x, y, z'
loop_
 _atom_site_type_symbol
 _atom_site_label
 _atom_site_symmetry_multiplicity
 _atom_site_fract_x
 _atom_site_fract_y
 _atom_site_fract_z
 _atom_site_occupancy
 _atom_site_pbe_bader_charge
 _atom_site_pbe_bader_spin_density
 _atom_site_pbe_cm5_charge
 _atom_site_pbe_ddec_charge
 _atom_site_pbe_ddec_spin_density
 _atom_site_pbe_ddec_sum_bond_order
 _atom_site_pbe_magmom
Zr  Zr0  1  0.07500322  0.07500235  0.14997791  1  2.625729  0  1.627262  2.381999  0  2.632702  0
Zr  Zr1  1  0.92499619  0.92499634  0.85002255  1  2.625795  0  1.627294  2.382017  0  2.632716  0
Zr  Zr2  1  0.99998615  0.84194518  0.00000544  1  2.632628  0  1.575321  2.40686  0  2.861254  0
Zr  Zr3  1  0.84194583  0.99998742  0.00000765  1  2.632585  0  1.575289  2.406792  0  2.861344  0
Zr  Zr4  1  0.00001206  0.15805313  0.99999192  1  2.632578  0  1.575321  2.406855  0  2.861252  0
Zr  Zr5  1  0.15805506  0.00001302  0.99999365  1  2.632712  0  1.575314  2.406841  0  2.861252  0
Cu  Cu6  1  0.22532244  0.65133852  0.45074807  1  0.392367  0  0.242811  0.152817  0  2.817692  0
Cu  Cu7  1  0.65133764  0.22532017  0.45075045  1  0.39359  0  0.242862  0.152908  0  2.817685  0
Cu  Cu8  1  0.22533093  0.79945139  0.45074879  1  0.398439  0  0.242982  0.153836  0  2.817002  0
Cu  Cu9  1  0.79945661  0.22532485  0.45075107  1  0.397406  0  0.243066  0.15393  0  2.817101  0
Cu  Cu10  1  0.77467120  0.20055080  0.54925629  1  0.398295  0  0.24297  0.15379  0  2.817034  0
Cu  Cu11  1  0.77467714  0.34866204  0.54925256  1  0.392532  0  0.242888  0.152946  0  2.817566  0
Cu  Cu12  1  0.20054614  0.77467194  0.54924954  1  0.397278  0  0.243032  0.153874  0  2.817004  0
Cu  Cu13  1  0.34866313  0.77467714  0.54925073  1  0.393639  0  0.242856  0.152921  0  2.817632  0
H  H14  1  0.15712616  0.94262386  0.09973669  1  0.622974  0  0.326626  0.421363  0  0.876891  0
H  H15  1  0.94263148  0.94263237  0.09976720  1  0.605242  0  0.326387  0.421426  0  0.877509  0
H  H16  1  0.94262492  0.15712645  0.09973793  1  0.622969  0  0.326605  0.421333  0  0.876934  0
H  H17  1  0.15715503  0.15715664  0.09976184  1  0.63838  0  0.32652  0.420799  0  0.877329  0
H  H18  1  0.84284294  0.84284330  0.90023717  1  0.638359  0  0.326508  0.420785  0  0.877321  0
H  H19  1  0.05736869  0.05736606  0.90023274  1  0.605247  0  0.326387  0.421405  0  0.877564  0
H  H20  1  0.84287223  0.05737470  0.90026211  1  0.622935  0  0.326609  0.421334  0  0.876929  0
H  H21  1  0.05737584  0.84287248  0.90026197  1  0.622939  0  0.326621  0.421414  0  0.87681  0
H  H22  1  0.11752660  0.73046473  0.99999210  1  0.626398  0  0.321873  0.440866  0  0.834325  0
H  H23  1  0.73044654  0.88244741  0.99998943  1  0.632575  0  0.321957  0.441246  0  0.833741  0
H  H24  1  0.88247281  0.26953659  0.00000899  1  0.626374  0  0.321879  0.440905  0  0.834266  0
H  H25  1  0.26955172  0.11755591  0.00001115  1  0.632861  0  0.321974  0.441293  0  0.833671  0
H  H26  1  0.88244739  0.73045265  0.99999434  1  0.632583  0  0.321964  0.441275  0  0.833714  0
H  H27  1  0.11754782  0.26954505  0.00000001  1  0.632626  0  0.321951  0.441286  0  0.833677  0
H  H28  1  0.73046005  0.11752463  0.99998960  1  0.626342  0  0.321863  0.440921  0  0.834238  0
H  H29  1  0.26953991  0.88247580  0.00001077  1  0.626346  0  0.321902  0.440897  0  0.83429  0
H  H30  1  0.22550406  0.48131202  0.45117586  1  0.146415  0  0.108645  0.087313  0  1.008293  0
H  H31  1  0.48131319  0.22550407  0.45117615  1  0.146624  0  0.108631  0.087294  0  1.008245  0
H  H32  1  0.22550461  0.96993487  0.45117890  1  0.111164  0  0.108723  0.087123  0  1.008038  0
H  H33  1  0.96993433  0.22550845  0.45118501  1  0.111044  0  0.108738  0.087158  0  1.008046  0
H  H34  1  0.77449805  0.03006442  0.54882162  1  0.111154  0  0.108717  0.087123  0  1.008059  0
H  H35  1  0.77449918  0.51868675  0.54882270  1  0.146381  0  0.108625  0.087274  0  1.008303  0
H  H36  1  0.03006285  0.77449502  0.54881831  1  0.111058  0  0.108742  0.087157  0  1.008  0
H  H37  1  0.51869081  0.77449545  0.54882380  1  0.14638  0  0.108614  0.087254  0  1.008241  0
H  H38  1  0.17507990  0.32795839  0.35026822  1  0.108008  0  0.115711  0.126537  0  0.985466  0
H  H39  1  0.32795760  0.17508172  0.35026917  1  0.107963  0  0.115708  0.126533  0  0.985468  0
H  H40  1  0.17506704  0.02234835  0.35027620  1  0.087742  0  0.115851  0.126989  0  0.98478  0
H  H41  1  0.02234727  0.17507169  0.35028084  1  0.087806  0  0.115873  0.127008  0  0.984746  0
H  H42  1  0.82493440  0.97765120  0.64972437  1  0.087736  0  0.11584  0.126973  0  0.984773  0
H  H43  1  0.82492203  0.67204052  0.64972966  1  0.107977  0  0.115669  0.126485  0  0.985486  0
H  H44  1  0.97764983  0.82493164  0.64972176  1  0.08772  0  0.115841  0.126964  0  0.984782  0
H  H45  1  0.67204395  0.82492095  0.64973152  1  0.107938  0  0.115682  0.126498  0  0.985454  0
H  H46  1  0.08997123  0.41977625  0.17981080  1  0.091787  0  0.115587  0.127623  0  0.986468  0
H  H47  1  0.41978020  0.08997510  0.17981111  1  0.091835  0  0.115601  0.127613  0  0.986425  0
H  H48  1  0.08999708  0.76001610  0.17984426  1  0.100242  0  0.115848  0.128362  0  0.9861  0
H  H49  1  0.76001405  0.09000142  0.17985046  1  0.100286  0  0.115855  0.128427  0  0.986096  0
H  H50  1  0.91000479  0.23998308  0.82015802  1  0.100223  0  0.115842  0.128333  0  0.986105  0
H  H51  1  0.91002779  0.58022318  0.82018671  1  0.091857  0  0.115622  0.12764  0  0.986469  0
H  H52  1  0.23998271  0.91000080  0.82015244  1  0.10028  0  0.115864  0.128415  0  0.986099  0
H  H53  1  0.58022214  0.91002768  0.82018783  1  0.091865  0  0.115595  0.127645  0  0.986493  0
H  H54  1  0.14375516  0.56913128  0.28742771  1  0.074655  0  0.10537  0.078929  0  1.015738  0
H  H55  1  0.56913414  0.14375620  0.28742806  1  0.074764  0  0.105363  0.078898  0  1.015706  0
H  H56  1  0.14378836  0.71832194  0.28744564  1  0.089685  0  0.105113  0.078749  0  1.015411  0
H  H57  1  0.71832289  0.14379190  0.28745332  1  0.089882  0  0.105074  0.078674  0  1.015507  0
H  H58  1  0.85621460  0.28167810  0.71255581  1  0.089871  0  0.105126  0.078764  0  1.015382  0
H  H59  1  0.85624504  0.43086752  0.71257099  1  0.074643  0  0.105374  0.078927  0  1.015714  0
H  H60  1  0.28167636  0.85621118  0.71255016  1  0.089727  0  0.105113  0.078747  0  1.015427  0
H  H61  1  0.43086712  0.85624309  0.71257107  1  0.074632  0  0.105358  0.078928  0  1.015724  0
C  C62  1  0.19498135  0.46419775  0.39014860  1  0.485867  0  0.046968  0.090765  0  3.903898  0
C  C63  1  0.46419861  0.19498295  0.39014765  1  0.485706  0  0.047008  0.090859  0  3.903874  0
C  C64  1  0.19500977  0.92601545  0.39014986  1  0.466922  0  0.047441  0.092308  0  3.904125  0
C  C65  1  0.92601363  0.19501211  0.39015478  1  0.466813  0  0.047451  0.092266  0  3.904182  0
C  C66  1  0.80499200  0.07398522  0.60985041  1  0.466948  0  0.047466  0.092263  0  3.904207  0
C  C67  1  0.80501928  0.53580229  0.60985052  1  0.485864  0  0.046962  0.09077  0  3.90378  0
C  C68  1  0.07398401  0.80499035  0.60984709  1  0.466974  0  0.047428  0.092264  0  3.904095  0
C  C69  1  0.53580315  0.80501671  0.60985070  1  0.486064  0  0.047069  0.090958  0  3.903806  0
C  C70  1  0.16709081  0.37984935  0.33432058  1  -0.08192  0  -0.073601  -0.133388  0  3.938443  0
C  C71  1  0.37984856  0.16709184  0.33432114  1  -0.081882  0  -0.073664  -0.133498  0  3.938338  0
C  C72  1  0.16711231  0.95450895  0.33431992  1  -0.00789  0  -0.07361  -0.134174  0  3.939225  0
C  C73  1  0.95450793  0.16711675  0.33432506  1  -0.007876  0  -0.073599  -0.134173  0  3.939239  0
C  C74  1  0.83289047  0.04549083  0.66568009  1  -0.007883  0  -0.073603  -0.134146  0  3.939223  0
C  C75  1  0.83291069  0.62015093  0.66567751  1  -0.081969  0  -0.073623  -0.13341  0  3.938486  0
C  C76  1  0.04548963  0.83288659  0.66567800  1  -0.007822  0  -0.07363  -0.134157  0  3.939225  0
C  C77  1  0.62015198  0.83290909  0.66567918  1  -0.081906  0  -0.073596  -0.133395  0  3.938353  0
C  C78  1  0.12859081  0.36281948  0.25722676  1  -0.005283  0  -0.002081  0.000435  0  3.952085  0
C  C79  1  0.36282229  0.12859194  0.25722717  1  -0.00603  0  -0.002015  0.000543  0  3.9518  0
C  C80  1  0.12861180  0.89442757  0.25722994  1  0.002426  0  -0.001365  0.002016  0  3.952336  0
C  C81  1  0.89442796  0.12861554  0.25723530  1  0.000868  0  -0.001318  0.002184  0  3.952312  0
C  C82  1  0.87138951  0.10557149  0.74277114  1  0.00215  0  -0.001353  0.002032  0  3.952258  0
C  C83  1  0.87140900  0.63717844  0.74277029  1  -0.00591  0  -0.002027  0.000538  0  3.952038  0
C  C84  1  0.10556959  0.87138780  0.74276777  1  0.002404  0  -0.001364  0.001994  0  3.95231  0
C  C85  1  0.63717917  0.87141060  0.74277280  1  -0.005253  0  -0.002048  0.00046  0  3.952114  0
C  C86  1  0.11972729  0.43150794  0.23939543  1  -0.036216  0  -0.074878  -0.131873  0  3.944662  0
C  C87  1  0.43151165  0.11972920  0.23939624  1  -0.035023  0  -0.074903  -0.131857  0  3.944505  0
C  C88  1  0.11976112  0.80790025  0.23942362  1  -0.00629  0  -0.075946  -0.134866  0  3.947325  0
C  C89  1  0.80790048  0.11976518  0.23942893  1  -0.006333  0  -0.075925  -0.134916  0  3.947265  0
C  C90  1  0.88023972  0.19209880  0.76057700  1  -0.00623  0  -0.075875  -0.134734  0  3.947087  0
C  C91  1  0.88027266  0.56849148  0.76060302  1  -0.035444  0  -0.074901  -0.131885  0  3.944646  0
C  C92  1  0.19209754  0.88023714  0.76057268  1  -0.006393  0  -0.075913  -0.134854  0  3.947076  0
C  C93  1  0.56849100  0.88027272  0.76060491  1  -0.036301  0  -0.074899  -0.131906  0  3.944704  0
C  C94  1  0.14922658  0.51361901  0.29843971  1  0.51121  0  0.038388  0.085539  0  3.937323  0
C  C95  1  0.51362229  0.14922781  0.29843987  1  0.510634  0  0.038365  0.08554  0  3.937359  0
C  C96  1  0.14929311  0.78486182  0.29846957  1  0.462763  0  0.039073  0.087341  0  3.937029  0
C  C97  1  0.78486102  0.14929421  0.29847529  1  0.462708  0  0.039093  0.08735  0  3.936739  0
C  C98  1  0.85070853  0.21513835  0.70153121  1  0.462997  0  0.039016  0.087181  0  3.936928  0
C  C99  1  0.85077235  0.48637868  0.70155836  1  0.511271  0  0.038381  0.085506  0  3.937273  0
C  C100  1  0.21513658  0.85070687  0.70152590  1  0.462995  0  0.03912  0.087372  0  3.936713  0
C  C101  1  0.48637989  0.85077309  0.70155890  1  0.511251  0  0.038412  0.085554  0  3.937235  0
C  C102  1  0.09683150  0.27408505  0.19366537  1  1.556115  0  0.230785  0.625811  0  4.133248  0
C  C103  1  0.27408822  0.09683245  0.19366575  1  1.55643  0  0.230809  0.625798  0  4.133264  0
C  C104  1  0.09686410  0.91966603  0.19370631  1  1.560422  0  0.230935  0.625524  0  4.130747  0
C  C105  1  0.91966444  0.09686661  0.19370902  1  1.562253  0  0.230952  0.625528  0  4.130585  0
C  C106  1  0.90313754  0.08033414  0.80629447  1  1.560708  0  0.230932  0.625613  0  4.130673  0
C  C107  1  0.90316727  0.72591339  0.80633317  1  1.556276  0  0.230861  0.625861  0  4.133071  0
C  C108  1  0.08033421  0.90313496  0.80629259  1  1.560422  0  0.230946  0.625563  0  4.13079  0
C  C109  1  0.72591355  0.90316822  0.80633451  1  1.556136  0  0.230876  0.625908  0  4.133289  0
I  I110  1  0.29538315  0.66340253  0.59064871  1  -0.426133  0  -0.243386  -0.342754  0  1.701297  0
I  I111  1  0.66339454  0.29538270  0.59064690  1  -0.426282  0  -0.2434  -0.342786  0  1.701342  0
I  I112  1  0.29528513  0.92739397  0.59060020  1  -0.42956  0  -0.243479  -0.342894  0  1.700001  0
I  I113  1  0.92739301  0.29528364  0.59059913  1  -0.429533  0  -0.243484  -0.342926  0  1.700083  0
I  I114  1  0.70472438  0.07261067  0.40940588  1  -0.42948  0  -0.243488  -0.342922  0  1.700197  0
I  I115  1  0.70461838  0.33658928  0.40935069  1  -0.426129  0  -0.243424  -0.342804  0  1.701414  0
I  I116  1  0.07260642  0.70471704  0.40939881  1  -0.429568  0  -0.243473  -0.342871  0  1.700012  0
I  I117  1  0.33660008  0.70461288  0.40934879  1  -0.426216  0  -0.243408  -0.342764  0  1.701273  0
N  N118  1  0.18635348  0.53020333  0.37281437  1  -1.192091  0  -0.355156  -0.142742  0  3.619174  0
N  N119  1  0.53020241  0.18635245  0.37281299  1  -1.192309  0  -0.355155  -0.142793  0  3.619297  0
N  N120  1  0.18640347  0.84267095  0.37284212  1  -1.211061  0  -0.356161  -0.144856  0  3.620443  0
N  N121  1  0.84266853  0.18640600  0.37285060  1  -1.21149  0  -0.356283  -0.144888  0  3.620267  0
N  N122  1  0.81359864  0.15732922  0.62715913  1  -1.21148  0  -0.35617  -0.144723  0  3.620477  0
N  N123  1  0.81364722  0.46979321  0.62718293  1  -1.192209  0  -0.355145  -0.1427  0  3.619035  0
N  N124  1  0.15732832  0.81359635  0.62715303  1  -1.211387  0  -0.356242  -0.144894  0  3.62041  0
N  N125  1  0.46979609  0.81364560  0.62718339  1  -1.192367  0  -0.355257  -0.142917  0  3.619317  0
O  O126  1  0.06300733  0.26537688  0.12600752  1  -1.178157  0  -0.332731  -0.612694  0  2.340233  0
O  O127  1  0.26538215  0.06301094  0.12600834  1  -1.178221  0  -0.332799  -0.612722  0  2.340246  0
O  O128  1  0.06300077  0.86071868  0.12603025  1  -1.184162  0  -0.333075  -0.612977  0  2.340021  0
O  O129  1  0.86071633  0.06300402  0.12603268  1  -1.184037  0  -0.333078  -0.612977  0  2.33985  0
O  O130  1  0.93700066  0.13928087  0.87397032  1  -1.184203  0  -0.333094  -0.613043  0  2.339985  0
O  O131  1  0.93699008  0.73462031  0.87398968  1  -1.178294  0  -0.332863  -0.612788  0  2.340175  0
O  O132  1  0.13927916  0.93699869  0.87396831  1  -1.184094  0  -0.333066  -0.612945  0  2.340041  0
O  O133  1  0.73462037  0.93698947  0.87399141  1  -1.178171  0  -0.332825  -0.61274  0  2.340331  0
O  O134  1  0.10640431  0.21295904  0.21281322  1  -1.163405  0  -0.375807  -0.63986  0  2.319196  0
O  O135  1  0.21296175  0.10640505  0.21281329  1  -1.16356  0  -0.375781  -0.639869  0  2.319254  0
O  O136  1  0.10649512  0.99995453  0.21289819  1  -1.162456  0  -0.375743  -0.639761  0  2.316949  0
O  O137  1  0.99995384  0.10649451  0.21289983  1  -1.162536  0  -0.375801  -0.639879  0  2.316877  0
O  O138  1  0.89350530  0.00004590  0.78710264  1  -1.162395  0  -0.375743  -0.639822  0  2.316932  0
O  O139  1  0.89359496  0.78703976  0.78718455  1  -1.163461  0  -0.375796  -0.639871  0  2.319195  0
O  O140  1  0.00004485  0.89350582  0.78710182  1  -1.162466  0  -0.375765  -0.639836  0  2.316993  0
O  O141  1  0.78704035  0.89359674  0.78718668  1  -1.163424  0  -0.375812  -0.639896  0  2.319217  0
O  O142  1  0.10933472  0.96367743  0.07302018  1  -1.279024  0  -0.680969  -1.05341  0  2.157282  0
O  O143  1  0.96366626  0.96366666  0.07303362  1  -1.248505  0  -0.680591  -1.053495  0  2.159058  0
O  O144  1  0.96367794  0.10933458  0.07302099  1  -1.272971  0  -0.680958  -1.053347  0  2.157274  0
O  O145  1  0.10938236  0.10938155  0.07301612  1  -1.296418  0  -0.680872  -1.052424  0  2.156271  0
O  O146  1  0.89061633  0.89061777  0.92698362  1  -1.296353  0  -0.68083  -1.052375  0  2.156286  0
O  O147  1  0.03633310  0.03633328  0.92696680  1  -1.248559  0  -0.680619  -1.053485  0  2.159105  0
O  O148  1  0.89066351  0.03632189  0.92697909  1  -1.278926  0  -0.680982  -1.053368  0  2.157229  0
O  O149  1  0.03632177  0.89066385  0.92697848  1  -1.27295  0  -0.680958  -1.053449  0  2.157067  0
O  O150  1  0.09032494  0.77801829  0.99998637  1  -1.228215  0  -0.708703  -0.980418  0  1.832471  0
O  O151  1  0.77794800  0.90974313  0.00000789  1  -1.232592  0  -0.708669  -0.980835  0  1.832359  0
O  O152  1  0.90967216  0.22197976  0.00000861  1  -1.228297  0  -0.708708  -0.980485  0  1.832398  0
O  O153  1  0.22205175  0.09025668  0.99999227  1  -1.23287  0  -0.708683  -0.98091  0  1.832304  0
O  O154  1  0.90973998  0.77794907  0.00000502  1  -1.235709  0  -0.708676  -0.980894  0  1.832321  0
O  O155  1  0.09026040  0.22204998  0.99999513  1  -1.235667  0  -0.708673  -0.980905  0  1.832289  0
O  O156  1  0.77801863  0.09032684  0.99999025  1  -1.228147  0  -0.708694  -0.980518  0  1.832398  0
O  O157  1  0.22197870  0.90967022  0.00000622  1  -1.228267  0  -0.708735  -0.980472  0  1.832414  0
