# generated using pymatgen
data_Cd3H40C22S6N4(Cl3O4)2
_symmetry_space_group_name_H-M   'P 1'
_cell_length_a   10.09993001
_cell_length_b   10.08128749
_cell_length_c   11.59465938
_cell_angle_alpha   73.52925809
_cell_angle_beta   67.72938762
_cell_angle_gamma   63.38162493
_symmetry_Int_Tables_number   1
_chemical_formula_structural   Cd3H40C22S6N4(Cl3O4)2
_chemical_formula_sum   'Cd3 H40 C22 S6 N4 Cl6 O8'
_cell_volume   967.44016769
_cell_formula_units_Z   1
loop_
 _symmetry_equiv_pos_site_id
 _symmetry_equiv_pos_as_xyz
  1  'x, y, z'
loop_
 _atom_site_type_symbol
 _atom_site_label
 _atom_site_symmetry_multiplicity
 _atom_site_fract_x
 _atom_site_fract_y
 _atom_site_fract_z
 _atom_site_occupancy
 _atom_site_hle17_bader_spin_density
 _atom_site_hle17_ddec_charge
 _atom_site_hle17_ddec_spin_density
 _atom_site_hle17_ddec_sum_bond_order
 _atom_site_hle17_magmom
 _atom_site_hse06_10hf_bader_spin_density
 _atom_site_hse06_10hf_ddec_charge
 _atom_site_hse06_10hf_ddec_spin_density
 _atom_site_hse06_10hf_ddec_sum_bond_order
 _atom_site_hse06_10hf_magmom
 _atom_site_hse06_bader_spin_density
 _atom_site_hse06_ddec_charge
 _atom_site_hse06_ddec_spin_density
 _atom_site_hse06_ddec_sum_bond_order
 _atom_site_hse06_magmom
 _atom_site_pbe_bader_spin_density
 _atom_site_pbe_cm5_charge
 _atom_site_pbe_ddec_charge
 _atom_site_pbe_ddec_spin_density
 _atom_site_pbe_ddec_sum_bond_order
 _atom_site_pbe_magmom
Cd  Cd0  1  0.99999860  0.00000122  0.99999967  1  0  0.947164  0  1.931137  0  0  0.77644  0  2.390901  0  0  0.823469  0  2.351523  0  0  0.592531  0.743211  0  2.418463  0
Cd  Cd1  1  0.65444697  0.94207139  0.06903929  1  0  0.970523  0  1.970144  0  0  0.817967  0  2.424714  0  0  0.864505  0  2.382491  0  0  0.582129  0.784431  0  2.453883  0
Cd  Cd2  1  0.34554869  0.05792802  0.93096494  1  0  0.970487  0  1.970201  0  0  0.817923  0  2.424775  0  0  0.86446  0  2.382554  0  0  0.582116  0.784386  0  2.453949  0
H  H3  1  0.26146295  0.67474252  0.24106549  1  0  0.094591  0  0.964181  0  0  0.108083  0  1.030588  0  0  0.109367  0  1.030303  0  0  0.090132  0.106787  0  1.031229  0
H  H4  1  0.73853099  0.32526133  0.75893473  1  0  0.094575  0  0.964179  0  0  0.108076  0  1.030567  0  0  0.109358  0  1.030281  0  0  0.090122  0.106781  0  1.031211  0
H  H5  1  0.46035689  0.60774310  0.15438907  1  0  0.10173  0  0.975121  0  0  0.111945  0  1.048632  0  0  0.113767  0  1.047915  0  0  0.087579  0.110594  0  1.048568  0
H  H6  1  0.53963939  0.39226298  0.84560984  1  0  0.101743  0  0.975102  0  0  0.111958  0  1.048604  0  0  0.113778  0  1.04789  0  0  0.087591  0.110608  0  1.048542  0
H  H7  1  0.47069454  0.34282588  0.20676225  1  0  0.04867  0  0.959909  0  0  0.057749  0  1.036308  0  0  0.058607  0  1.035963  0  0  0.079422  0.056733  0  1.03731  0
H  H8  1  0.52930606  0.65718016  0.79323267  1  0  0.04867  0  0.959869  0  0  0.057775  0  1.036273  0  0  0.058632  0  1.035929  0  0  0.079422  0.056744  0  1.037287  0
H  H9  1  0.27121945  0.40863994  0.29518009  1  0  0.046459  0  0.979636  0  0  0.055103  0  1.054607  0  0  0.05632  0  1.053115  0  0  0.086999  0.053913  0  1.05581  0
H  H10  1  0.72878103  0.59135826  0.70481598  1  0  0.046471  0  0.979648  0  0  0.055087  0  1.054677  0  0  0.056304  0  1.053188  0  0  0.086995  0.053901  0  1.055875  0
H  H11  1  0.48178922  0.30454184  0.52243841  1  0  0.062467  0  0.939748  0  0  0.076118  0  1.006893  0  0  0.076246  0  1.006413  0  0  0.102086  0.075849  0  1.007285  0
H  H12  1  0.51821182  0.69546308  0.47755665  1  0  0.062436  0  0.939734  0  0  0.076104  0  1.006904  0  0  0.076231  0  1.006425  0  0  0.102088  0.075835  0  1.007294  0
H  H13  1  0.48528739  0.20087579  0.41849451  1  0  0.053857  0  0.932605  0  0  0.070124  0  0.996029  0  0  0.070568  0  0.995612  0  0  0.095384  0.06976  0  0.996309  0
H  H14  1  0.51471345  0.79912690  0.58150204  1  0  0.053764  0  0.932582  0  0  0.07006  0  0.996027  0  0  0.070509  0  0.995605  0  0  0.09537  0.069696  0  0.996308  0
H  H15  1  0.19091271  0.42291161  0.57609525  1  0  0.046308  0  0.976549  0  0  0.050138  0  1.061047  0  0  0.051505  0  1.0599  0  0  0.088001  0.048704  0  1.062659  0
H  H16  1  0.80908854  0.57708999  0.42390317  1  0  0.046335  0  0.976543  0  0  0.050173  0  1.061045  0  0  0.05154  0  1.059898  0  0  0.088007  0.048738  0  1.062657  0
H  H17  1  0.27621458  0.22846235  0.63409052  1  0  0.050988  0  0.947499  0  0  0.062863  0  1.018579  0  0  0.063134  0  1.018807  0  0  0.085788  0.062335  0  1.018833  0
H  H18  1  0.72378927  0.77153810  0.36590648  1  0  0.050938  0  0.947557  0  0  0.062835  0  1.018628  0  0  0.063107  0  1.018855  0  0  0.085768  0.062296  0  1.018892  0
H  H19  1  0.95785287  0.40364109  0.58053700  1  0  0.055912  0  0.930647  0  0  0.068353  0  0.998551  0  0  0.068785  0  0.998467  0  0  0.096381  0.06769  0  0.99944  0
H  H20  1  0.04214647  0.59635717  0.41946460  1  0  0.055897  0  0.930651  0  0  0.068331  0  0.998556  0  0  0.068767  0  0.998466  0  0  0.096371  0.06766  0  0.999454  0
H  H21  1  0.03969960  0.22166611  0.66344132  1  0  0.054299  0  0.936322  0  0  0.064939  0  1.009292  0  0  0.064885  0  1.009816  0  0  0.090096  0.064906  0  1.009157  0
H  H22  1  0.96030555  0.77833101  0.33655782  1  0  0.054289  0  0.936295  0  0  0.064941  0  1.009255  0  0  0.064875  0  1.009792  0  0  0.090096  0.064907  0  1.009119  0
H  H23  1  0.85127812  0.21891688  0.59088635  1  0  0.049604  0  0.938184  0  0  0.064152  0  1.006268  0  0  0.064602  0  1.005404  0  0  0.095532  0.064333  0  1.006602  0
H  H24  1  0.14872381  0.78108025  0.40911469  1  0  0.049613  0  0.938195  0  0  0.06416  0  1.006303  0  0  0.064616  0  1.00543  0  0  0.095529  0.064334  0  1.006641  0
H  H25  1  0.03776958  0.10097087  0.50602588  1  0  0.040816  0  0.944673  0  0  0.054781  0  1.016616  0  0  0.055207  0  1.015879  0  0  0.094359  0.054466  0  1.017472  0
H  H26  1  0.96223405  0.89902738  0.49397433  1  0  0.040822  0  0.9447  0  0  0.054793  0  1.016646  0  0  0.055216  0  1.015911  0  0  0.094349  0.054477  0  1.017497  0
H  H27  1  0.71474204  0.29876990  0.44466810  1  0  0.049928  0  0.934802  0  0  0.065172  0  0.999048  0  0  0.066078  0  0.998008  0  0  0.09768  0.064255  0  1.000106  0
H  H28  1  0.28525962  0.70123060  0.55533304  1  0  0.049912  0  0.934809  0  0  0.065171  0  0.999051  0  0  0.066076  0  0.998012  0  0  0.097685  0.064255  0  1.000107  0
H  H29  1  0.87473686  0.13751542  0.38059205  1  0  0.052012  0  0.930158  0  0  0.066121  0  0.998896  0  0  0.066426  0  0.99845  0  0  0.095446  0.065831  0  0.999451  0
H  H30  1  0.12526310  0.86248397  0.61940992  1  0  0.052004  0  0.930165  0  0  0.066124  0  0.998904  0  0  0.066428  0  0.998459  0  0  0.095449  0.065833  0  0.999459  0
H  H31  1  0.74579513  0.28812217  0.22425045  1  0  0.1221  0  0.948478  0  0  0.139459  0  1.005252  0  0  0.140517  0  1.005585  0  0  0.098429  0.138054  0  1.006323  0
H  H32  1  0.25420573  0.71187497  0.77575094  1  0  0.122123  0  0.94845  0  0  0.139487  0  1.005217  0  0  0.140545  0  1.005552  0  0  0.098447  0.138081  0  1.006289  0
H  H33  1  0.93464769  0.28658934  0.17358450  1  0  0.108121  0  0.959828  0  0  0.118371  0  1.029654  0  0  0.119152  0  1.030338  0  0  0.092016  0.117532  0  1.029821  0
H  H34  1  0.06535165  0.71340893  0.82641709  1  0  0.108115  0  0.959827  0  0  0.118368  0  1.029653  0  0  0.11915  0  1.030337  0  0  0.092007  0.117528  0  1.029819  0
H  H35  1  0.28135133  0.09622310  0.30036454  1  0  0.090067  0  0.952693  0  0  0.101453  0  1.025459  0  0  0.102907  0  1.024517  0  0  0.087535  0.099882  0  1.027123  0
H  H36  1  0.71864781  0.90377293  0.69963854  1  0  0.090025  0  0.952675  0  0  0.101401  0  1.025468  0  0  0.102855  0  1.024526  0  0  0.087509  0.099829  0  1.027135  0
H  H37  1  0.44907816  0.03211088  0.35054719  1  0  0.084157  0  0.953293  0  0  0.102507  0  1.018789  0  0  0.103078  0  1.018513  0  0  0.090799  0.101901  0  1.019386  0
H  H38  1  0.55092034  0.96788406  0.64945811  1  0  0.084165  0  0.953263  0  0  0.102525  0  1.018753  0  0  0.103096  0  1.018478  0  0  0.090812  0.101919  0  1.01935  0
H  H39  1  0.30918116  0.94865117  0.43024833  1  0  0.063544  0  0.960317  0  0  0.07869  0  1.035327  0  0  0.079326  0  1.034726  0  0  0.086601  0.078027  0  1.036246  0
H  H40  1  0.69081643  0.05134602  0.56975755  1  0  0.063528  0  0.960415  0  0  0.07871  0  1.03539  0  0  0.079344  0  1.034791  0  0  0.0866  0.078049  0  1.036301  0
H  H41  1  0.38355826  0.88547006  0.21523923  1  0  0.36029  0  0.883485  0  0  0.339619  0  0.952508  0  0  0.348065  0  0.943467  0  0  0.284988  0.33354  0  0.95908  0
H  H42  1  0.61644091  0.11452042  0.78476870  1  0  0.360254  0  0.88353  0  0  0.33958  0  0.952542  0  0  0.348024  0  0.943503  0  0  0.284997  0.333502  0  0.959114  0
C  C43  1  0.12827398  0.61798722  0.08941531  1  0  0.072027  0  3.758233  0  0  0.064782  0  4.066051  0  0  0.075101  0  4.080854  0  0  0.114788  0.05714  0  4.056647  0
C  C44  1  0.87172429  0.38201659  0.91058093  1  0  0.072035  0  3.758116  0  0  0.064784  0  4.065984  0  0  0.075103  0  4.080788  0  0  0.114809  0.057142  0  4.056582  0
C  C45  1  0.88983996  0.57931486  0.15654683  1  0  0.073307  0  3.769976  0  0  0.061138  0  4.08678  0  0  0.073845  0  4.101547  0  0  0.119363  0.051925  0  4.075879  0
C  C46  1  0.11016109  0.42068452  0.84345394  1  0  0.073277  0  3.769962  0  0  0.061115  0  4.086754  0  0  0.07382  0  4.101521  0  0  0.119343  0.051901  0  4.075854  0
C  C47  1  0.35394028  0.58555499  0.18672792  1  0  -0.179624  0  3.672114  0  0  -0.216276  0  3.932077  0  0  -0.216578  0  3.942013  0  0  -0.15866  -0.215467  0  3.924309  0
C  C48  1  0.64605494  0.41445107  0.81326961  1  0  -0.17961  0  3.672  0  0  -0.216243  0  3.931988  0  0  -0.216537  0  3.941917  0  0  -0.158632  -0.215435  0  3.924226  0
C  C49  1  0.37745298  0.43156665  0.26268223  1  0  0.076095  0  3.664555  0  0  0.019705  0  3.933367  0  0  0.026027  0  3.939644  0  0  -0.091514  0.015227  0  3.929492  0
C  C50  1  0.62254590  0.56843828  0.73731439  1  0  0.076061  0  3.664547  0  0  0.019598  0  3.933484  0  0  0.025917  0  3.939746  0  0  -0.091538  0.015131  0  3.929617  0
C  C51  1  0.41936853  0.30470149  0.46263714  1  0  0.058418  0  3.656549  0  0  -0.000355  0  3.925909  0  0  0.006139  0  3.931731  0  0  -0.076034  -0.004347  0  3.921232  0
C  C52  1  0.58063231  0.69530120  0.53735941  1  0  0.058675  0  3.656388  0  0  -0.000202  0  3.925921  0  0  0.006281  0  3.931747  0  0  -0.075987  -0.004189  0  3.921231  0
C  C53  1  0.26125938  0.30965344  0.54820257  1  0  0.032786  0  3.677372  0  0  -0.024743  0  3.94803  0  0  -0.01893  0  3.954141  0  0  -0.08806  -0.028564  0  3.943902  0
C  C54  1  0.73874142  0.69034929  0.45179657  1  0  0.032707  0  3.677466  0  0  -0.024845  0  3.948207  0  0  -0.019032  0  3.954319  0  0  -0.088072  -0.028658  0  3.944082  0
C  C55  1  0.03262611  0.28486324  0.56930292  1  0  0.053551  0  3.66746  0  0  -0.002618  0  3.937066  0  0  0.003672  0  3.943071  0  0  -0.078933  -0.006714  0  3.932903  0
C  C56  1  0.96737388  0.71513613  0.43069732  1  0  0.053549  0  3.667402  0  0  -0.002585  0  3.936971  0  0  0.003708  0  3.942979  0  0  -0.078917  -0.006678  0  3.932806  0
C  C57  1  0.96123531  0.21867465  0.51932860  1  0  0.069583  0  3.671613  0  0  0.006368  0  3.946761  0  0  0.013343  0  3.951776  0  0  -0.073627  0.001692  0  3.942547  0
C  C58  1  0.03876725  0.78132361  0.48067196  1  0  0.069586  0  3.671628  0  0  0.006341  0  3.946843  0  0  0.013308  0  3.951849  0  0  -0.073618  0.001672  0  3.942621  0
C  C59  1  0.83054567  0.26068729  0.37540463  1  0  0.097928  0  3.68421  0  0  0.038548  0  3.956485  0  0  0.045135  0  3.963259  0  0  -0.07589  0.034078  0  3.951599  0
C  C60  1  0.16945431  0.73931209  0.62459648  1  0  0.097984  0  3.684195  0  0  0.038589  0  3.956534  0  0  0.045167  0  3.963312  0  0  -0.075851  0.034119  0  3.951644  0
C  C61  1  0.82060260  0.32653175  0.24332895  1  0  -0.193814  0  3.644516  0  0  -0.230324  0  3.903746  0  0  -0.23048  0  3.914074  0  0  -0.155582  -0.23051  0  3.897146  0
C  C62  1  0.17939846  0.67346762  0.75667095  1  0  -0.193838  0  3.644492  0  0  -0.230346  0  3.903744  0  0  -0.230506  0  3.914078  0  0  -0.155588  -0.23053  0  3.897143  0
C  C63  1  0.36702032  0.99778558  0.33852645  1  0  -0.029756  0  3.637366  0  0  -0.128407  0  3.911848  0  0  -0.12151  0  3.915239  0  0  -0.164383  -0.133381  0  3.910965  0
C  C64  1  0.63297838  0.00221158  0.66147649  1  0  -0.029658  0  3.637307  0  0  -0.128346  0  3.911772  0  0  -0.121449  0  3.915164  0  0  -0.164334  -0.133313  0  3.910884  0
S  S65  1  0.07664298  0.46477260  0.16163295  1  0  0.203035  0  2.570555  0  0  0.196181  0  2.919078  0  0  0.199373  0  2.917759  0  0  0.161745  0.194237  0  2.919306  0
S  S66  1  0.92335935  0.53522898  0.83836425  1  0  0.20308  0  2.570532  0  0  0.196226  0  2.919053  0  0  0.199415  0  2.917735  0  0  0.161784  0.194283  0  2.919284  0
S  S67  1  0.31540189  0.61271502  0.03951639  1  0  0.039867  0  2.549709  0  0  0.035923  0  2.923883  0  0  0.030837  0  2.925739  0  0  0.02711  0.039405  0  2.921748  0
S  S68  1  0.68459760  0.38729105  0.96048061  1  0  0.039882  0  2.549738  0  0  0.035969  0  2.92385  0  0  0.030879  0  2.925706  0  0  0.027108  0.039446  0  2.921731  0
S  S69  1  0.73158942  0.52938619  0.21557967  1  0  0.127202  0  2.455883  0  0  0.118331  0  2.818242  0  0  0.114012  0  2.817308  0  0  0.079445  0.123911  0  2.815454  0
S  S70  1  0.26841209  0.47061205  0.78441951  1  0  0.127173  0  2.455901  0  0  0.118306  0  2.818261  0  0  0.11399  0  2.81733  0  0  0.079428  0.123888  0  2.815476  0
N  N71  1  0.87600906  0.71850643  0.10262557  1  0  -0.248857  0  3.219163  0  0  -0.200835  0  3.503693  0  0  -0.216584  0  3.522965  0  0  -0.238489  -0.189214  0  3.489911  0
N  N72  1  0.12399050  0.28149405  0.89737368  1  0  -0.248834  0  3.219075  0  0  -0.200803  0  3.503597  0  0  -0.216551  0  3.522866  0  0  -0.238496  -0.18919  0  3.489841  0
N  N73  1  0.01013002  0.74006603  0.06687111  1  0  -0.217324  0  3.23977  0  0  -0.166163  0  3.513694  0  0  -0.178619  0  3.533743  0  0  -0.221718  -0.156664  0  3.499686  0
N  N74  1  0.98986912  0.25993555  0.93312628  1  0  -0.217396  0  3.239672  0  0  -0.166234  0  3.513572  0  0  -0.178692  0  3.533623  0  0  -0.221744  -0.156734  0  3.499564  0
Cl  Cl75  1  0.84750475  0.01352280  0.85154843  1  0  -0.554892  0  0.991564  0  0  -0.488841  0  1.268706  0  0  -0.507794  0  1.249606  0  0  -0.286117  -0.476005  0  1.283318  0
Cl  Cl76  1  0.15249007  0.98647882  0.14845293  1  0  -0.554888  0  0.991583  0  0  -0.488838  0  1.268747  0  0  -0.507792  0  1.249646  0  0  -0.286117  -0.476003  0  1.283361  0
Cl  Cl77  1  0.74652840  0.04324901  0.19445880  1  0  -0.53878  0  1.028957  0  0  -0.475631  0  1.311313  0  0  -0.495143  0  1.292153  0  0  -0.280861  -0.461813  0  1.326282  0
Cl  Cl78  1  0.25347006  0.95675149  0.80554252  1  0  -0.538781  0  1.028952  0  0  -0.475629  0  1.311301  0  0  -0.49514  0  1.292145  0  0  -0.280866  -0.461811  0  1.326272  0
Cl  Cl79  1  0.42593268  0.19603706  0.03313980  1  0  -0.567264  0  1.130532  0  0  -0.507117  0  1.438715  0  0  -0.528185  0  1.420508  0  0  -0.288283  -0.492187  0  1.450322  0
Cl  Cl80  1  0.57406601  0.80396011  0.96686488  1  0  -0.56727  0  1.13055  0  0  -0.507114  0  1.438729  0  0  -0.528179  0  1.420509  0  0  -0.288281  -0.492186  0  1.450334  0
O  O81  1  0.41741808  0.43287138  0.36862737  1  0  -0.305548  0  2.190346  0  0  -0.235257  0  2.437496  0  0  -0.250324  0  2.437874  0  0  -0.241981  -0.224463  0  2.435661  0
O  O82  1  0.58257910  0.56713244  0.63137008  1  0  -0.305573  0  2.190341  0  0  -0.235225  0  2.437534  0  0  -0.250281  0  2.437913  0  0  -0.241997  -0.22443  0  2.435696  0
O  O83  1  0.18380984  0.27226299  0.48845763  1  0  -0.304678  0  2.233615  0  0  -0.229256  0  2.478249  0  0  -0.245197  0  2.480325  0  0  -0.23392  -0.217782  0  2.476334  0
O  O84  1  0.81619140  0.72773861  0.51154165  1  0  -0.304673  0  2.233673  0  0  -0.229225  0  2.478275  0  0  -0.245162  0  2.480345  0  0  -0.233906  -0.217757  0  2.476363  0
O  O85  1  0.93219869  0.30149378  0.40308079  1  0  -0.31537  0  2.264698  0  0  -0.242127  0  2.516804  0  0  -0.25822  0  2.518922  0  0  -0.233691  -0.230466  0  2.514826  0
O  O86  1  0.06780280  0.69850448  0.59692012  1  0  -0.315371  0  2.264651  0  0  -0.24216  0  2.516811  0  0  -0.258234  0  2.518925  0  0  -0.233735  -0.230498  0  2.514831  0
O  O87  1  0.45526348  0.88700978  0.25279048  1  0  -0.527877  0  2.177332  0  0  -0.454933  0  2.416911  0  0  -0.474679  0  2.407879  0  0  -0.418345  -0.441141  0  2.423586  0
O  O88  1  0.54473543  0.11298406  0.74721668  1  0  -0.527906  0  2.177366  0  0  -0.454953  0  2.416974  0  0  -0.474699  0  2.407945  0  0  -0.418395  -0.441161  0  2.42365  0
