# generated using pymatgen
data_ZnPH9C4N4O3
_symmetry_space_group_name_H-M   'P 1'
_cell_length_a   8.96107387
_cell_length_b   9.64283653
_cell_length_c   10.72602866
_cell_angle_alpha   106.32588908
_cell_angle_beta   89.99988786
_cell_angle_gamma   90.00003282
_symmetry_Int_Tables_number   1
_chemical_formula_structural   ZnPH9C4N4O3
_chemical_formula_sum   'Zn4 P4 H36 C16 N16 O12'
_cell_volume   889.46635163
_cell_formula_units_Z   4
loop_
 _symmetry_equiv_pos_site_id
 _symmetry_equiv_pos_as_xyz
  1  'x, y, z'
loop_
 _atom_site_type_symbol
 _atom_site_label
 _atom_site_symmetry_multiplicity
 _atom_site_fract_x
 _atom_site_fract_y
 _atom_site_fract_z
 _atom_site_occupancy
 _atom_site_hle17_bader_spin_density
 _atom_site_hle17_ddec_charge
 _atom_site_hle17_ddec_spin_density
 _atom_site_hle17_ddec_sum_bond_order
 _atom_site_hle17_magmom
 _atom_site_hse06_10hf_bader_spin_density
 _atom_site_hse06_10hf_ddec_charge
 _atom_site_hse06_10hf_ddec_spin_density
 _atom_site_hse06_10hf_ddec_sum_bond_order
 _atom_site_hse06_10hf_magmom
 _atom_site_hse06_bader_spin_density
 _atom_site_hse06_ddec_charge
 _atom_site_hse06_ddec_spin_density
 _atom_site_hse06_ddec_sum_bond_order
 _atom_site_hse06_magmom
 _atom_site_pbe_bader_spin_density
 _atom_site_pbe_cm5_charge
 _atom_site_pbe_ddec_charge
 _atom_site_pbe_ddec_spin_density
 _atom_site_pbe_ddec_sum_bond_order
 _atom_site_pbe_magmom
Zn  Zn0  1  0.03884509  0.21463580  0.65202941  1  0  1.153858  0  1.849874  0  0  0.975803  0  2.33668  0  0  1.018211  0  2.277603  0  0  0.720446  0.946234  0  2.377035  0
Zn  Zn1  1  0.53884581  0.28536295  0.34796964  1  0  1.153848  0  1.849861  0  0  0.9758  0  2.336654  0  0  1.018224  0  2.27758  0  0  0.720439  0.946223  0  2.377001  0
Zn  Zn2  1  0.96115361  0.78536375  0.34797044  1  0  1.153877  0  1.849819  0  0  0.975825  0  2.336608  0  0  1.018237  0  2.277532  0  0  0.720463  0.946253  0  2.376959  0
Zn  Zn3  1  0.46115401  0.71463769  0.65203050  1  0  1.153874  0  1.849864  0  0  0.975815  0  2.336649  0  0  1.018231  0  2.277571  0  0  0.720459  0.946247  0  2.377003  0
P  P4  1  0.31076801  0.39429253  0.57119437  1  0  1.445415  0  4.956233  0  0  1.261866  0  5.451835  0  0  1.311889  0  5.415758  0  0  0.287505  1.227158  0  5.475841  0
P  P5  1  0.81076731  0.10570836  0.42880666  1  0  1.44541  0  4.956227  0  0  1.261867  0  5.451827  0  0  1.311893  0  5.415745  0  0  0.287479  1.227156  0  5.475834  0
P  P6  1  0.68923181  0.60570810  0.42880577  1  0  1.445399  0  4.956284  0  0  1.261838  0  5.4519  0  0  1.311867  0  5.41582  0  0  0.287474  1.227129  0  5.475906  0
P  P7  1  0.18923139  0.89429226  0.57119441  1  0  1.445416  0  4.95625  0  0  1.261856  0  5.451855  0  0  1.311886  0  5.415776  0  0  0.287488  1.22715  0  5.47586  0
H  H8  1  0.03414310  0.26430111  0.17857505  1  0  0.130961  0  0.950724  0  0  0.154704  0  1.002956  0  0  0.155916  0  1.003206  0  0  0.104089  0.153941  0  1.002552  0
H  H9  1  0.53414268  0.23569872  0.82142337  1  0  0.130978  0  0.950688  0  0  0.154719  0  1.002931  0  0  0.155932  0  1.00318  0  0  0.104098  0.153958  0  1.002526  0
H  H10  1  0.96585672  0.73569953  0.82142416  1  0  0.130955  0  0.950718  0  0  0.154693  0  1.002959  0  0  0.155906  0  1.003208  0  0  0.104088  0.153932  0  1.002553  0
H  H11  1  0.46585714  0.76430191  0.17857677  1  0  0.130955  0  0.95072  0  0  0.1547  0  1.002962  0  0  0.155912  0  1.003213  0  0  0.104089  0.153938  0  1.002558  0
H  H12  1  0.83919837  0.28666765  0.20779203  1  0  0.148554  0  0.956706  0  0  0.164568  0  1.020153  0  0  0.167408  0  1.018173  0  0  0.105939  0.162469  0  1.021466  0
H  H13  1  0.33919732  0.21333218  0.79220681  1  0  0.148539  0  0.95667  0  0  0.164573  0  1.020102  0  0  0.167407  0  1.018129  0  0  0.105953  0.162476  0  1.021416  0
H  H14  1  0.16080256  0.71333190  0.79220782  1  0  0.148542  0  0.956715  0  0  0.16456  0  1.020162  0  0  0.1674  0  1.018181  0  0  0.105947  0.162462  0  1.021475  0
H  H15  1  0.66080361  0.78666737  0.20779304  1  0  0.148524  0  0.956665  0  0  0.164554  0  1.020108  0  0  0.16739  0  1.018132  0  0  0.105947  0.162456  0  1.02142  0
H  H16  1  0.95457407  0.44076668  0.23610843  1  0  0.13306  0  0.953717  0  0  0.151721  0  1.01484  0  0  0.153344  0  1.014715  0  0  0.102732  0.150463  0  1.015077  0
H  H17  1  0.45457299  0.05923422  0.76389237  1  0  0.133069  0  0.953683  0  0  0.151732  0  1.01481  0  0  0.153358  0  1.014683  0  0  0.102722  0.150476  0  1.015048  0
H  H18  1  0.04542575  0.55923396  0.76389170  1  0  0.133061  0  0.953693  0  0  0.151722  0  1.014815  0  0  0.153346  0  1.014692  0  0  0.102719  0.150465  0  1.015053  0
H  H19  1  0.54542683  0.94076532  0.23610842  1  0  0.133056  0  0.95367  0  0  0.151723  0  1.014801  0  0  0.153348  0  1.014674  0  0  0.102724  0.150465  0  1.015038  0
H  H20  1  0.77689506  0.42213411  0.68258382  1  0  0.14472  0  0.954428  0  0  0.163228  0  1.015081  0  0  0.165283  0  1.014038  0  0  0.103668  0.161726  0  1.015872  0
H  H21  1  0.27689615  0.07786680  0.31741541  1  0  0.144719  0  0.954391  0  0  0.163233  0  1.01504  0  0  0.165287  0  1.013996  0  0  0.10367  0.161729  0  1.015831  0
H  H22  1  0.22310588  0.57786653  0.31741539  1  0  0.144726  0  0.954378  0  0  0.163236  0  1.015031  0  0  0.16529  0  1.013988  0  0  0.103667  0.161733  0  1.015822  0
H  H23  1  0.72310478  0.92213383  0.68258473  1  0  0.144714  0  0.954385  0  0  0.163227  0  1.015034  0  0  0.165281  0  1.013992  0  0  0.103661  0.161724  0  1.015826  0
H  H24  1  0.73523029  0.57094602  0.82251248  1  0  0.136366  0  0.947551  0  0  0.151752  0  1.014516  0  0  0.153481  0  1.015085  0  0  0.102478  0.150515  0  1.014132  0
H  H25  1  0.23522858  0.92905435  0.17748762  1  0  0.136358  0  0.947557  0  0  0.151747  0  1.014525  0  0  0.153469  0  1.015103  0  0  0.102476  0.15051  0  1.014142  0
H  H26  1  0.26477065  0.42905461  0.17748766  1  0  0.136349  0  0.947555  0  0  0.151737  0  1.014523  0  0  0.15346  0  1.015098  0  0  0.102478  0.1505  0  1.01414  0
H  H27  1  0.76477235  0.07094521  0.82251224  1  0  0.136364  0  0.94759  0  0  0.151753  0  1.014549  0  0  0.153482  0  1.015117  0  0  0.10249  0.150516  0  1.014166  0
H  H28  1  0.61615082  0.42079103  0.77924123  1  0  0.147444  0  0.940241  0  0  0.168431  0  0.994136  0  0  0.170803  0  0.993084  0  0  0.10644  0.166656  0  0.995021  0
H  H29  1  0.11615214  0.07920989  0.22075733  1  0  0.147455  0  0.940259  0  0  0.168444  0  0.99415  0  0  0.170816  0  0.993097  0  0  0.106455  0.166668  0  0.995035  0
H  H30  1  0.38385012  0.57920962  0.22075705  1  0  0.147453  0  0.940197  0  0  0.168438  0  0.994101  0  0  0.17081  0  0.993048  0  0  0.106452  0.166661  0  0.994987  0
H  H31  1  0.88384991  0.92078968  0.77924160  1  0  0.147433  0  0.940235  0  0  0.168421  0  0.994136  0  0  0.170794  0  0.993083  0  0  0.10645  0.166646  0  0.995021  0
H  H32  1  0.61344772  0.41779005  0.08120382  1  0  0.271269  0  0.960808  0  0  0.251379  0  1.046308  0  0  0.257755  0  1.039946  0  0  0.286361  0.246704  0  1.051042  0
H  H33  1  0.11344740  0.08220869  0.91879604  1  0  0.271265  0  0.960823  0  0  0.251374  0  1.046315  0  0  0.25775  0  1.039955  0  0  0.286365  0.2467  0  1.05105  0
H  H34  1  0.38655210  0.58220950  0.91879603  1  0  0.271269  0  0.960815  0  0  0.251381  0  1.046303  0  0  0.257757  0  1.039942  0  0  0.28637  0.246707  0  1.051037  0
H  H35  1  0.88655242  0.91778978  0.08120447  1  0  0.271249  0  0.960822  0  0  0.25136  0  1.046319  0  0  0.257737  0  1.039957  0  0  0.286358  0.246686  0  1.051053  0
H  H36  1  0.73378258  0.54747661  0.15524111  1  0  0.291207  0  0.939218  0  0  0.278414  0  1.003813  0  0  0.284034  0  0.999405  0  0  0.294664  0.274376  0  1.007063  0
H  H37  1  0.23378155  0.95252268  0.84475871  1  0  0.291317  0  0.939059  0  0  0.278498  0  1.003701  0  0  0.284121  0  0.999283  0  0  0.294697  0.274462  0  1.006951  0
H  H38  1  0.26621836  0.45252296  0.84475781  1  0  0.291328  0  0.93902  0  0  0.278516  0  1.003651  0  0  0.284138  0  0.999236  0  0  0.294711  0.274481  0  1.006902  0
H  H39  1  0.76621827  0.04747687  0.15524208  1  0  0.291228  0  0.93917  0  0  0.278438  0  1.00376  0  0  0.284057  0  0.999354  0  0  0.294685  0.2744  0  1.00701  0
H  H40  1  0.21342153  0.45061986  0.49349489  1  0  -0.156113  0  0.87847  0  0  -0.120491  0  0.955163  0  0  -0.123984  0  0.950346  0  0  0.082324  -0.118318  0  0.958941  0
H  H41  1  0.71342173  0.04938103  0.50650631  1  0  -0.156081  0  0.878424  0  0  -0.120466  0  0.955127  0  0  -0.123959  0  0.950307  0  0  0.082334  -0.118293  0  0.958907  0
H  H42  1  0.78657606  0.54938184  0.50650646  1  0  -0.156106  0  0.878481  0  0  -0.120487  0  0.955185  0  0  -0.12398  0  0.950364  0  0  0.082333  -0.118314  0  0.958963  0
H  H43  1  0.28657698  0.95061852  0.49349355  1  0  -0.15611  0  0.878471  0  0  -0.12049  0  0.955171  0  0  -0.123981  0  0.950349  0  0  0.082326  -0.118316  0  0.958948  0
C  C44  1  0.93765538  0.33115816  0.17199549  1  0  -0.384551  0  3.692657  0  0  -0.462603  0  3.927742  0  0  -0.466317  0  3.933727  0  0  -0.231542  -0.459632  0  3.923489  0
C  C45  1  0.43765310  0.16884275  0.82800441  1  0  -0.384553  0  3.692507  0  0  -0.462627  0  3.927602  0  0  -0.466336  0  3.933591  0  0  -0.231538  -0.459654  0  3.923351  0
C  C46  1  0.06234556  0.66884247  0.82800465  1  0  -0.384536  0  3.692624  0  0  -0.462585  0  3.927701  0  0  -0.466298  0  3.933687  0  0  -0.231531  -0.459613  0  3.923449  0
C  C47  1  0.56234672  0.83115681  0.17199545  1  0  -0.384465  0  3.692515  0  0  -0.462571  0  3.92762  0  0  -0.466281  0  3.933609  0  0  -0.231536  -0.459599  0  3.923367  0
C  C48  1  0.91803178  0.33280181  0.03583546  1  0  0.341277  0  3.721749  0  0  0.310485  0  4.01312  0  0  0.324858  0  4.026433  0  0  0.229103  0.300645  0  4.004143  0
C  C49  1  0.41803029  0.16719802  0.96416326  1  0  0.341341  0  3.721624  0  0  0.310562  0  4.012979  0  0  0.324936  0  4.026287  0  0  0.229136  0.30072  0  4.004006  0
C  C50  1  0.08196916  0.66719775  0.96416347  1  0  0.341375  0  3.721697  0  0  0.310589  0  4.013057  0  0  0.324962  0  4.026368  0  0  0.229163  0.300748  0  4.004082  0
C  C51  1  0.58196953  0.83280153  0.03583660  1  0  0.341168  0  3.721657  0  0  0.310449  0  4.012945  0  0  0.324824  0  4.026253  0  0  0.229076  0.300609  0  4.003967  0
C  C52  1  0.82557761  0.38609432  0.86399083  1  0  0.354097  0  3.719795  0  0  0.322686  0  3.997572  0  0  0.338609  0  4.011931  0  0  0.234725  0.312206  0  3.987354  0
C  C53  1  0.32557804  0.11390550  0.13600897  1  0  0.354108  0  3.719788  0  0  0.322702  0  3.99757  0  0  0.338625  0  4.011926  0  0  0.234715  0.312221  0  3.987349  0
C  C54  1  0.17442332  0.61390414  0.13600968  1  0  0.35406  0  3.719741  0  0  0.322662  0  3.997514  0  0  0.338583  0  4.011872  0  0  0.234703  0.312181  0  3.987295  0
C  C55  1  0.67442289  0.88609405  0.86399088  1  0  0.354063  0  3.719798  0  0  0.322652  0  3.99758  0  0  0.338574  0  4.011939  0  0  0.23469  0.312171  0  3.987362  0
C  C56  1  0.73378181  0.45299290  0.78214573  1  0  -0.39461  0  3.697528  0  0  -0.475236  0  3.939105  0  0  -0.479494  0  3.94477  0  0  -0.230787  -0.472187  0  3.935254  0
C  C57  1  0.23378201  0.04700693  0.21785328  1  0  -0.394609  0  3.697517  0  0  -0.475244  0  3.939091  0  0  -0.479495  0  3.944761  0  0  -0.230799  -0.472195  0  3.935236  0
C  C58  1  0.26621801  0.54700667  0.21785226  1  0  -0.394593  0  3.697471  0  0  -0.47522  0  3.939047  0  0  -0.479471  0  3.944718  0  0  -0.230787  -0.47217  0  3.935191  0
C  C59  1  0.76621893  0.95299370  0.78214686  1  0  -0.394587  0  3.697477  0  0  -0.475224  0  3.939074  0  0  -0.479482  0  3.944739  0  0  -0.230801  -0.472175  0  3.935224  0
N  N60  1  0.94279014  0.29946400  0.82795055  1  0  -0.358067  0  3.224558  0  0  -0.296718  0  3.539729  0  0  -0.314439  0  3.5506  0  0  -0.256713  -0.284907  0  3.53247  0
N  N61  1  0.44278943  0.20053582  0.17204906  1  0  -0.358059  0  3.224569  0  0  -0.296727  0  3.539759  0  0  -0.314452  0  3.550634  0  0  -0.256726  -0.284913  0  3.532492  0
N  N62  1  0.05720968  0.70053663  0.17204959  1  0  -0.358028  0  3.224452  0  0  -0.296689  0  3.539624  0  0  -0.314409  0  3.550495  0  0  -0.256732  -0.284876  0  3.532359  0
N  N63  1  0.55721040  0.79946481  0.82795108  1  0  -0.358025  0  3.224577  0  0  -0.296679  0  3.539754  0  0  -0.3144  0  3.550624  0  0  -0.256715  -0.284869  0  3.532494  0
N  N64  1  0.00222193  0.26709966  0.93554122  1  0  -0.285324  0  2.951305  0  0  -0.266145  0  3.235936  0  0  -0.275671  0  3.2496  0  0  -0.228997  -0.259753  0  3.226617  0
N  N65  1  0.50222105  0.23290125  0.06445846  1  0  -0.285366  0  2.951274  0  0  -0.266185  0  3.235901  0  0  -0.27571  0  3.249565  0  0  -0.229011  -0.259792  0  3.226581  0
N  N66  1  0.99777900  0.73290098  0.06445892  1  0  -0.285396  0  2.95128  0  0  -0.26622  0  3.235913  0  0  -0.275748  0  3.249576  0  0  -0.229015  -0.259828  0  3.226592  0
N  N67  1  0.49777877  0.76709831  0.93554047  1  0  -0.285317  0  2.951248  0  0  -0.266163  0  3.235857  0  0  -0.275687  0  3.24952  0  0  -0.228994  -0.25977  0  3.226536  0
N  N68  1  0.80683976  0.40817313  0.99437011  1  0  -0.038751  0  3.544775  0  0  0.042111  0  3.768008  0  0  0.027241  0  3.791251  0  0  -0.145037  0.051856  0  3.75198  0
N  N69  1  0.30683936  0.09182669  0.00562972  1  0  -0.038823  0  3.544839  0  0  0.042035  0  3.768061  0  0  0.027164  0  3.791301  0  0  -0.145044  0.051778  0  3.752033  0
N  N70  1  0.19316006  0.59182752  0.00562817  1  0  -0.038798  0  3.544812  0  0  0.042054  0  3.768035  0  0  0.027182  0  3.79128  0  0  -0.14505  0.051795  0  3.752011  0
N  N71  1  0.69316157  0.90817285  0.99437107  1  0  -0.038736  0  3.544815  0  0  0.042115  0  3.768006  0  0  0.027244  0  3.791246  0  0  -0.144981  0.051858  0  3.751976  0
N  N72  1  0.69146631  0.49070635  0.06616448  1  0  -0.500478  0  2.897744  0  0  -0.503334  0  3.14392  0  0  -0.511457  0  3.14359  0  0  -0.505617  -0.497479  0  3.144378  0
N  N73  1  0.19146591  0.00929347  0.93383554  1  0  -0.500558  0  2.897672  0  0  -0.503389  0  3.143833  0  0  -0.511512  0  3.143501  0  0  -0.505657  -0.497534  0  3.144292  0
N  N74  1  0.30853351  0.50929321  0.93383445  1  0  -0.500576  0  2.897607  0  0  -0.503417  0  3.143773  0  0  -0.511537  0  3.143441  0  0  -0.505679  -0.49756  0  3.144233  0
N  N75  1  0.80853391  0.99070499  0.06616496  1  0  -0.500456  0  2.897732  0  0  -0.503313  0  3.143906  0  0  -0.511435  0  3.143574  0  0  -0.505634  -0.497457  0  3.144364  0
O  O76  1  0.21231986  0.34154159  0.66663785  1  0  -0.864353  0  2.104489  0  0  -0.758445  0  2.402225  0  0  -0.786877  0  2.376535  0  0  -0.381411  -0.737886  0  2.418446  0
O  O77  1  0.71232054  0.15845822  0.33336306  1  0  -0.864347  0  2.104519  0  0  -0.758435  0  2.402241  0  0  -0.786879  0  2.376561  0  0  -0.381402  -0.73787  0  2.41845  0
O  O78  1  0.78767885  0.65845796  0.33336294  1  0  -0.864337  0  2.104512  0  0  -0.758421  0  2.402233  0  0  -0.786864  0  2.376552  0  0  -0.381398  -0.737863  0  2.418456  0
O  O79  1  0.28767929  0.84154133  0.66663679  1  0  -0.864381  0  2.104526  0  0  -0.758443  0  2.402244  0  0  -0.786898  0  2.376569  0  0  -0.3814  -0.737886  0  2.418463  0
O  O80  1  0.39750656  0.26810305  0.48065062  1  0  -0.854188  0  2.032169  0  0  -0.75577  0  2.328764  0  0  -0.784031  0  2.303163  0  0  -0.391099  -0.736254  0  2.345771  0
O  O81  1  0.89750462  0.23189784  0.51935027  1  0  -0.854209  0  2.032187  0  0  -0.755785  0  2.328781  0  0  -0.784043  0  2.303174  0  0  -0.391081  -0.73627  0  2.345792  0
O  O82  1  0.60249326  0.73189758  0.51934952  1  0  -0.854182  0  2.032154  0  0  -0.755762  0  2.328761  0  0  -0.78402  0  2.303153  0  0  -0.391091  -0.736247  0  2.345769  0
O  O83  1  0.10249297  0.76810278  0.48065080  1  0  -0.854193  0  2.03216  0  0  -0.75577  0  2.328755  0  0  -0.784027  0  2.303147  0  0  -0.391097  -0.736255  0  2.345762  0
O  O84  1  0.41165319  0.51723884  0.64754191  1  0  -0.861804  0  2.069521  0  0  -0.758419  0  2.375882  0  0  -0.786578  0  2.350049  0  0  -0.389273  -0.738546  0  2.392853  0
O  O85  1  0.91165291  0.98276045  0.35245762  1  0  -0.861815  0  2.069524  0  0  -0.758437  0  2.375883  0  0  -0.786594  0  2.350046  0  0  -0.389283  -0.738563  0  2.392853  0
O  O86  1  0.58834663  0.48276072  0.35245794  1  0  -0.861805  0  2.06952  0  0  -0.758423  0  2.375885  0  0  -0.786586  0  2.350055  0  0  -0.38928  -0.738549  0  2.392852  0
O  O87  1  0.08834692  0.01723909  0.64754317  1  0  -0.861789  0  2.069464  0  0  -0.758418  0  2.375858  0  0  -0.78658  0  2.35003  0  0  -0.389287  -0.738545  0  2.392829  0
