# generated using pymatgen
data_ZnH10C11S2(NCl)2
_symmetry_space_group_name_H-M   'P 1'
_cell_length_a   5.71504625
_cell_length_b   10.22344514
_cell_length_c   12.97855584
_cell_angle_alpha   72.56753339
_cell_angle_beta   75.81674642
_cell_angle_gamma   87.51159345
_symmetry_Int_Tables_number   1
_chemical_formula_structural   ZnH10C11S2(NCl)2
_chemical_formula_sum   'Zn2 H20 C22 S4 N4 Cl4'
_cell_volume   701.05331543
_cell_formula_units_Z   2
loop_
 _symmetry_equiv_pos_site_id
 _symmetry_equiv_pos_as_xyz
  1  'x, y, z'
loop_
 _atom_site_type_symbol
 _atom_site_label
 _atom_site_symmetry_multiplicity
 _atom_site_fract_x
 _atom_site_fract_y
 _atom_site_fract_z
 _atom_site_occupancy
 _atom_site_pbe_bader_spin_density
 _atom_site_pbe_cm5_charge
 _atom_site_pbe_ddec_charge
 _atom_site_pbe_ddec_spin_density
 _atom_site_pbe_ddec_sum_bond_order
 _atom_site_pbe_magmom
Zn  Zn0  1  0.33362464  0.68979662  0.75908659  1  0  0.561912  0.635935  0  2.629017  0
Zn  Zn1  1  0.66637435  0.31019776  0.24091382  1  0  0.56191  0.635938  0  2.629023  0
H  H2  1  0.60691270  0.90571894  0.95843005  1  0  0.09568  0.103023  0  1.046217  0
H  H3  1  0.39308818  0.09427540  0.04156633  1  0  0.095664  0.103012  0  1.046366  0
H  H4  1  0.34075570  0.64617911  0.99559416  1  0  0.105799  0.087874  0  1.026772  0
H  H5  1  0.65925974  0.35381826  0.00440458  1  0  0.105827  0.087886  0  1.026951  0
H  H6  1  0.12916303  0.72981457  0.15143740  1  0  0.101137  0.116095  0  1.033828  0
H  H7  1  0.87084933  0.27019001  0.84856070  1  0  0.101163  0.116108  0  1.033716  0
H  H8  1  0.73638940  0.52176697  0.58835736  1  0  0.10241  0.1226  0  1.003782  0
H  H9  1  0.26359929  0.47823255  0.41163671  1  0  0.102454  0.122672  0  1.003886  0
H  H10  1  0.14194900  0.89884095  0.38177128  1  0  0.093378  0.11557  0  1.053947  0
H  H11  1  0.85804539  0.10116689  0.61823561  1  0  0.093451  0.115706  0  1.054016  0
H  H12  1  0.95495245  0.52043892  0.73050731  1  0  0.105065  0.080343  0  1.036818  0
H  H13  1  0.04502319  0.47955768  0.26949730  1  0  0.105093  0.080408  0  1.03682  0
H  H14  1  0.33881911  0.88051508  0.53290930  1  0  0.099531  0.07743  0  1.047723  0
H  H15  1  0.66116185  0.11948365  0.46710580  1  0  0.09962  0.077557  0  1.047723  0
H  H16  1  0.84433078  0.81716008  0.80932519  1  0  0.09819  0.081403  0  1.063948  0
H  H17  1  0.15566392  0.18282509  0.19067712  1  0  0.098162  0.081298  0  1.064046  0
H  H18  1  0.78704822  0.95529058  0.31018745  1  0  0.102762  0.140981  0  1.003928  0
H  H19  1  0.21297310  0.04471185  0.68980561  1  0  0.102771  0.141002  0  1.003913  0
H  H20  1  0.03913203  0.88674570  0.23069082  1  0  0.103381  0.124045  0  1.011849  0
H  H21  1  0.96087476  0.11325687  0.76930835  1  0  0.103401  0.124041  0  1.011744  0
C  C22  1  0.77113074  0.85091636  0.96982763  1  0  -0.095595  -0.174512  0  3.955331  0
C  C23  1  0.22889171  0.14907682  0.03016678  1  0  -0.095551  -0.17433  0  3.954489  0
C  C24  1  0.18009106  0.70697773  0.98943795  1  0  0.046993  0.109599  0  3.933299  0
C  C25  1  0.81989992  0.29303004  0.01056006  1  0  0.046979  0.109539  0  3.933065  0
C  C26  1  0.92040851  0.70999950  0.47031370  1  0  0.007465  0.100403  0  4.023965  0
C  C27  1  0.07958547  0.29000004  0.52968521  1  0  0.007444  0.100501  0  4.02396  0
C  C28  1  0.05957858  0.75488157  0.07711370  1  0  -0.094457  -0.186495  0  3.96116  0
C  C29  1  0.94044643  0.24512187  0.92287874  1  0  -0.094512  -0.186441  0  3.961302  0
C  C30  1  0.87159072  0.60244476  0.57088840  1  0  -0.094545  -0.182155  0  3.979362  0
C  C31  1  0.12840717  0.39756099  0.42911632  1  0  -0.094598  -0.182314  0  3.97901  0
C  C32  1  0.09199632  0.81194520  0.45653468  1  0  -0.100468  -0.188728  0  3.967696  0
C  C33  1  0.90800862  0.18806058  0.54347700  1  0  -0.100591  -0.188936  0  3.967597  0
C  C34  1  0.85075486  0.83034756  0.06761009  1  0  0.007382  0.098095  0  4.038306  0
C  C35  1  0.14923469  0.16966218  0.93237757  1  0  0.007432  0.09803  0  4.038475  0
C  C36  1  0.99294725  0.60119881  0.65131590  1  0  0.037659  0.092169  0  3.9813  0
C  C37  1  0.00703573  0.39879664  0.34867898  1  0  0.037719  0.092226  0  3.980963  0
C  C38  1  0.20453355  0.80290453  0.54143242  1  0  0.038222  0.100125  0  3.964359  0
C  C39  1  0.79544592  0.19709514  0.45857182  1  0  0.038133  0.099954  0  3.964033  0
C  C40  1  0.90312708  0.80072027  0.88610812  1  0  0.0392  0.100316  0  3.938248  0
C  C41  1  0.09684845  0.19927532  0.11389829  1  0  0.039214  0.100255  0  3.938286  0
C  C42  1  0.84456622  0.87497908  0.26974888  1  0  -0.137387  -0.238403  0  3.903295  0
C  C43  1  0.15545546  0.12502849  0.73024445  1  0  -0.137454  -0.238496  0  3.903435  0
S  S44  1  0.76428741  0.70712660  0.37114113  1  0  0.040346  0.061144  0  2.720051  0
S  S45  1  0.23571416  0.29287804  0.62885654  1  0  0.040352  0.061154  0  2.72016  0
S  S46  1  0.67792986  0.90435740  0.16500179  1  0  0.042344  0.068457  0  2.817423  0
S  S47  1  0.32208376  0.09563999  0.83499792  1  0  0.042276  0.068377  0  2.817528  0
N  N48  1  0.15781663  0.69950888  0.63770627  1  0  -0.346629  -0.235129  0  3.588015  0
N  N49  1  0.84217179  0.30049076  0.36230014  1  0  -0.346631  -0.235098  0  3.588319  0
N  N50  1  0.10700796  0.73092001  0.89443718  1  0  -0.34114  -0.235343  0  3.589834  0
N  N51  1  0.89300349  0.26907226  0.10556322  1  0  -0.341104  -0.2352  0  3.590024  0
Cl  Cl52  1  0.58426659  0.87896330  0.67931397  1  0  -0.292937  -0.477691  0  1.28634  0
Cl  Cl53  1  0.41572905  0.12103417  0.32068450  1  0  -0.292944  -0.477695  0  1.286336  0
Cl  Cl54  1  0.46106813  0.47966576  0.82717788  1  0  -0.32569  -0.497148  0  1.236704  0
Cl  Cl55  1  0.53894192  0.52033375  0.17282707  1  0  -0.325687  -0.497159  0  1.236738  0
