# generated using pymatgen
data_HgH4C5S2N3
_symmetry_space_group_name_H-M   'P 1'
_cell_length_a   9.38497898
_cell_length_b   9.38489977
_cell_length_c   11.17403321
_cell_angle_alpha   70.06738801
_cell_angle_beta   70.06725610
_cell_angle_gamma   72.14206854
_symmetry_Int_Tables_number   1
_chemical_formula_structural   HgH4C5S2N3
_chemical_formula_sum   'Hg4 H16 C20 S8 N12'
_cell_volume   849.35929458
_cell_formula_units_Z   4
loop_
 _symmetry_equiv_pos_site_id
 _symmetry_equiv_pos_as_xyz
  1  'x, y, z'
loop_
 _atom_site_type_symbol
 _atom_site_label
 _atom_site_symmetry_multiplicity
 _atom_site_fract_x
 _atom_site_fract_y
 _atom_site_fract_z
 _atom_site_occupancy
 _atom_site_hle17_bader_spin_density
 _atom_site_hle17_ddec_charge
 _atom_site_hle17_ddec_spin_density
 _atom_site_hle17_ddec_sum_bond_order
 _atom_site_hle17_magmom
 _atom_site_hse06_10hf_bader_spin_density
 _atom_site_hse06_10hf_ddec_charge
 _atom_site_hse06_10hf_ddec_spin_density
 _atom_site_hse06_10hf_ddec_sum_bond_order
 _atom_site_hse06_10hf_magmom
 _atom_site_hse06_bader_spin_density
 _atom_site_hse06_ddec_charge
 _atom_site_hse06_ddec_spin_density
 _atom_site_hse06_ddec_sum_bond_order
 _atom_site_hse06_magmom
 _atom_site_pbe_bader_spin_density
 _atom_site_pbe_cm5_charge
 _atom_site_pbe_ddec_charge
 _atom_site_pbe_ddec_spin_density
 _atom_site_pbe_ddec_sum_bond_order
 _atom_site_pbe_magmom
Hg  Hg0  1  0.64840886  0.82035883  0.89688310  1  0  0.665113  0  2.041277  0  0  0.521949  0  2.515734  0  0  0.563627  0  2.489017  0  0  0.535885  0.493499  0  2.534291  0
Hg  Hg1  1  0.17963629  0.35158998  0.60312237  1  0  0.665186  0  2.041215  0  0  0.522023  0  2.515678  0  0  0.563699  0  2.488961  0  0  0.53591  0.49357  0  2.534234  0
Hg  Hg2  1  0.35158854  0.17963882  0.10312135  1  0  0.665131  0  2.041313  0  0  0.521971  0  2.515777  0  0  0.563647  0  2.489061  0  0  0.535901  0.49352  0  2.534342  0
Hg  Hg3  1  0.82036398  0.64840999  0.39687611  1  0  0.665144  0  2.041307  0  0  0.521989  0  2.515731  0  0  0.563666  0  2.489012  0  0  0.535895  0.493539  0  2.534289  0
H  H4  1  0.62655863  0.45121642  0.11521506  1  0  0.123151  0  0.978165  0  0  0.141513  0  1.044021  0  0  0.141543  0  1.045829  0  0  0.089523  0.141428  0  1.042858  0
H  H5  1  0.54878869  0.37343984  0.38478532  1  0  0.123136  0  0.978226  0  0  0.141478  0  1.0441  0  0  0.141508  0  1.045907  0  0  0.089495  0.141392  0  1.042938  0
H  H6  1  0.37344166  0.54878357  0.88478610  1  0  0.123161  0  0.978155  0  0  0.141538  0  1.043986  0  0  0.141568  0  1.045793  0  0  0.089536  0.141451  0  1.042823  0
H  H7  1  0.45121827  0.62655552  0.61521524  1  0  0.12311  0  0.978225  0  0  0.141503  0  1.044047  0  0  0.141533  0  1.045855  0  0  0.08952  0.141417  0  1.042883  0
H  H8  1  0.74331151  0.26712679  0.09611069  1  0  0.12795  0  0.945812  0  0  0.149685  0  1.003038  0  0  0.150998  0  1.003031  0  0  0.090695  0.14881  0  1.002896  0
H  H9  1  0.73288021  0.25668942  0.40388599  1  0  0.127897  0  0.945813  0  0  0.149611  0  1.00307  0  0  0.150924  0  1.003063  0  0  0.090657  0.148737  0  1.002926  0
H  H10  1  0.25669053  0.73287552  0.90388839  1  0  0.12792  0  0.945824  0  0  0.149642  0  1.003061  0  0  0.150954  0  1.003054  0  0  0.090668  0.148768  0  1.002919  0
H  H11  1  0.26712762  0.74330709  0.59611219  1  0  0.127944  0  0.945762  0  0  0.149674  0  1.003007  0  0  0.150986  0  1.003001  0  0  0.090686  0.148799  0  1.002866  0
H  H12  1  0.69460880  0.41548796  0.95815605  1  0  0.123177  0  0.97344  0  0  0.139829  0  1.043302  0  0  0.140375  0  1.044633  0  0  0.086974  0.139365  0  1.042503  0
H  H13  1  0.58451615  0.30538889  0.54184529  1  0  0.123164  0  0.973458  0  0  0.139806  0  1.043323  0  0  0.140353  0  1.044654  0  0  0.086967  0.139341  0  1.042524  0
H  H14  1  0.30539211  0.58451435  0.04184425  1  0  0.123192  0  0.973402  0  0  0.139826  0  1.04328  0  0  0.140372  0  1.044612  0  0  0.086969  0.139362  0  1.042484  0
H  H15  1  0.41548993  0.69460530  0.45815407  1  0  0.123156  0  0.973441  0  0  0.139798  0  1.043331  0  0  0.140344  0  1.044663  0  0  0.086941  0.139334  0  1.042534  0
H  H16  1  0.99863663  0.77165460  0.88942233  1  0  0.083755  0  0.950259  0  0  0.08931  0  1.019084  0  0  0.0916  0  1.018162  0  0  0.108905  0.087587  0  1.020022  0
H  H17  1  0.22834964  0.00137262  0.61057037  1  0  0.083705  0  0.950268  0  0  0.089303  0  1.019055  0  0  0.091593  0  1.018134  0  0  0.108887  0.087577  0  1.019989  0
H  H18  1  0.00136402  0.22834886  0.11057682  1  0  0.083733  0  0.950299  0  0  0.089296  0  1.019122  0  0  0.091586  0  1.018199  0  0  0.108908  0.087576  0  1.02006  0
H  H19  1  0.77165403  0.99862735  0.38942533  1  0  0.08372  0  0.950317  0  0  0.089279  0  1.019153  0  0  0.091569  0  1.018232  0  0  0.108865  0.087558  0  1.020092  0
C  C20  1  0.72603909  0.39229838  0.05000335  1  0  -0.38154  0  3.713462  0  0  -0.464037  0  3.947887  0  0  -0.466872  0  3.957479  0  0  -0.249239  -0.461728  0  3.941135  0
C  C21  1  0.60770689  0.27396339  0.44999548  1  0  -0.381475  0  3.713414  0  0  -0.463905  0  3.947809  0  0  -0.466741  0  3.957402  0  0  -0.249161  -0.461598  0  3.941055  0
C  C22  1  0.27396156  0.60770508  0.94999669  1  0  -0.381585  0  3.713327  0  0  -0.46404  0  3.947737  0  0  -0.466874  0  3.957329  0  0  -0.249213  -0.461732  0  3.940987  0
C  C23  1  0.39229755  0.72603311  0.55000369  1  0  -0.381499  0  3.713281  0  0  -0.464004  0  3.947687  0  0  -0.466844  0  3.957286  0  0  -0.249216  -0.461696  0  3.940932  0
C  C24  1  0.99997175  0.64898434  0.93917222  1  0  0.031491  0  3.67487  0  0  -0.000182  0  3.92435  0  0  0.001395  0  3.943367  0  0  0.049161  -0.001312  0  3.911614  0
C  C25  1  0.35102097  0.00003022  0.56082291  1  0  0.031533  0  3.674924  0  0  -0.000189  0  3.924366  0  0  0.001385  0  3.943384  0  0  0.049166  -0.001313  0  3.911621  0
C  C26  1  0.00002916  0.35101797  0.06082898  1  0  0.031532  0  3.67497  0  0  -0.000183  0  3.924452  0  0  0.001393  0  3.943468  0  0  0.049128  -0.001316  0  3.91172  0
C  C27  1  0.64898634  0.99996859  0.43916939  1  0  0.031511  0  3.674952  0  0  -0.00021  0  3.924454  0  0  0.001363  0  3.943474  0  0  0.049207  -0.001344  0  3.911721  0
C  C28  1  0.86771488  0.45000881  0.02350807  1  0  0.271928  0  3.718556  0  0  0.277692  0  3.967363  0  0  0.28275  0  3.988142  0  0  0.125921  0.274102  0  3.953287  0
C  C29  1  0.54999576  0.13228455  0.47648809  1  0  0.272114  0  3.71841  0  0  0.277846  0  3.967253  0  0  0.282908  0  3.988034  0  0  0.12601  0.274256  0  3.953181  0
C  C30  1  0.13228602  0.54999350  0.97649134  1  0  0.272026  0  3.718437  0  0  0.277725  0  3.967303  0  0  0.282783  0  3.988083  0  0  0.125898  0.274134  0  3.95323  0
C  C31  1  0.45000953  0.86771310  0.52350602  1  0  0.271971  0  3.718564  0  0  0.277723  0  3.967377  0  0  0.282785  0  3.98816  0  0  0.125959  0.274136  0  3.9533  0
C  C32  1  0.57219534  0.69227134  0.20280877  1  0  0.259073  0  3.908439  0  0  0.237945  0  4.213134  0  0  0.257132  0  4.228492  0  0  0.154803  0.224897  0  4.202641  0
C  C33  1  0.30772861  0.42779864  0.29719146  1  0  0.258977  0  3.908616  0  0  0.237856  0  4.213314  0  0  0.257042  0  4.228671  0  0  0.154728  0.22481  0  4.202823  0
C  C34  1  0.42779902  0.30772977  0.79719109  1  0  0.259047  0  3.908587  0  0  0.237928  0  4.213282  0  0  0.257111  0  4.228636  0  0  0.154769  0.224881  0  4.202785  0
C  C35  1  0.69227091  0.57219433  0.70280389  1  0  0.258999  0  3.908251  0  0  0.237864  0  4.212969  0  0  0.257052  0  4.228326  0  0  0.154779  0.224816  0  4.202465  0
C  C36  1  0.91216124  0.83943787  0.62675927  1  0  0.236944  0  3.933592  0  0  0.226793  0  4.236083  0  0  0.243013  0  4.254363  0  0  0.128993  0.215888  0  4.223513  0
C  C37  1  0.16056555  0.08783659  0.87324625  1  0  0.236937  0  3.933821  0  0  0.226786  0  4.236319  0  0  0.243005  0  4.2546  0  0  0.128988  0.21588  0  4.223755  0
C  C38  1  0.08783565  0.16056211  0.37324377  1  0  0.236906  0  3.933667  0  0  0.226758  0  4.236163  0  0  0.242975  0  4.254448  0  0  0.128996  0.215852  0  4.223595  0
C  C39  1  0.83942807  0.91216802  0.12675907  1  0  0.236812  0  3.933716  0  0  0.226647  0  4.236223  0  0  0.242864  0  4.254508  0  0  0.128913  0.215744  0  4.223657  0
S  S40  1  0.45023943  0.78309935  0.10909018  1  0  -0.165574  0  2.418914  0  0  -0.125217  0  2.803377  0  0  -0.142191  0  2.796146  0  0  -0.060491  -0.113609  0  2.808458  0
S  S41  1  0.21689763  0.54975639  0.39091262  1  0  -0.165643  0  2.418823  0  0  -0.12529  0  2.803284  0  0  -0.142261  0  2.796045  0  0  -0.060519  -0.113684  0  2.808367  0
S  S42  1  0.54975431  0.21689944  0.89091321  1  0  -0.165641  0  2.418815  0  0  -0.125305  0  2.803312  0  0  -0.142282  0  2.796088  0  0  -0.060515  -0.113706  0  2.808404  0
S  S43  1  0.78310087  0.45024124  0.60908436  1  0  -0.16551  0  2.418916  0  0  -0.12514  0  2.80336  0  0  -0.142112  0  2.796126  0  0  -0.060469  -0.113539  0  2.808441  0
S  S44  1  0.80507139  0.97700202  0.70239188  1  0  -0.198629  0  2.344904  0  0  -0.164224  0  2.705839  0  0  -0.18234  0  2.703769  0  0  -0.086114  -0.152058  0  2.707861  0
S  S45  1  0.02299761  0.19492599  0.79761719  1  0  -0.198654  0  2.344939  0  0  -0.164242  0  2.705859  0  0  -0.182358  0  2.70379  0  0  -0.08611  -0.152075  0  2.707884  0
S  S46  1  0.19492436  0.02299795  0.29761148  1  0  -0.198637  0  2.345052  0  0  -0.164232  0  2.705986  0  0  -0.182347  0  2.703919  0  0  -0.086125  -0.152064  0  2.708013  0
S  S47  1  0.97699689  0.80507979  0.20238665  1  0  -0.198585  0  2.34502  0  0  -0.164177  0  2.705965  0  0  -0.182294  0  2.703899  0  0  -0.0861  -0.15201  0  2.707991  0
N  N48  1  0.87111313  0.60044648  0.96195137  1  0  -0.293149  0  3.181743  0  0  -0.228257  0  3.435368  0  0  -0.244585  0  3.456891  0  0  -0.293178  -0.216737  0  3.420522  0
N  N49  1  0.39955787  0.12889041  0.53804376  1  0  -0.293233  0  3.181827  0  0  -0.228326  0  3.43546  0  0  -0.244656  0  3.456986  0  0  -0.29326  -0.216809  0  3.420613  0
N  N50  1  0.12888778  0.39955583  0.03804893  1  0  -0.293184  0  3.181766  0  0  -0.228259  0  3.4354  0  0  -0.244586  0  3.456919  0  0  -0.293193  -0.216741  0  3.420557  0
N  N51  1  0.60044630  0.87110724  0.46195158  1  0  -0.293243  0  3.181906  0  0  -0.228319  0  3.435521  0  0  -0.244645  0  3.457037  0  0  -0.293275  -0.216801  0  3.420676  0
N  N52  1  0.65448173  0.62373590  0.27289431  1  0  -0.432235  0  2.782774  0  0  -0.381132  0  3.044871  0  0  -0.399581  0  3.054833  0  0  -0.338556  -0.368645  0  3.0381  0
N  N53  1  0.37626536  0.34551418  0.22710913  1  0  -0.432065  0  2.782986  0  0  -0.380972  0  3.045085  0  0  -0.399423  0  3.055054  0  0  -0.338459  -0.36848  0  3.0383  0
N  N54  1  0.34551541  0.37626291  0.72710898  1  0  -0.432124  0  2.783007  0  0  -0.381037  0  3.045114  0  0  -0.399488  0  3.055085  0  0  -0.338495  -0.368537  0  3.03831  0
N  N55  1  0.62373090  0.65448346  0.77289298  1  0  -0.432221  0  2.782504  0  0  -0.381114  0  3.044598  0  0  -0.399568  0  3.05457  0  0  -0.338567  -0.368626  0  3.037818  0
N  N56  1  0.99131191  0.74543890  0.57005625  1  0  -0.451492  0  2.667777  0  0  -0.421683  0  2.915403  0  0  -0.436876  0  2.927624  0  0  -0.34326  -0.411503  0  2.907385  0
N  N57  1  0.25456311  0.00868661  0.92994374  1  0  -0.451473  0  2.667961  0  0  -0.421667  0  2.915593  0  0  -0.436856  0  2.927814  0  0  -0.343258  -0.411487  0  2.907581  0
N  N58  1  0.00868333  0.25456339  0.42994570  1  0  -0.451469  0  2.667768  0  0  -0.421664  0  2.915404  0  0  -0.436855  0  2.927628  0  0  -0.343248  -0.411483  0  2.907388  0
N  N59  1  0.74542710  0.99131799  0.07006078  1  0  -0.451384  0  2.667733  0  0  -0.421578  0  2.915386  0  0  -0.436767  0  2.927611  0  0  -0.343183  -0.411392  0  2.907361  0
