# generated using pymatgen
data_SrP4H14(C2O7)2
_symmetry_space_group_name_H-M   'P 1'
_cell_length_a   7.96998155
_cell_length_b   10.96142678
_cell_length_c   10.96145613
_cell_angle_alpha   68.39769642
_cell_angle_beta   82.32198413
_cell_angle_gamma   82.32161188
_symmetry_Int_Tables_number   1
_chemical_formula_structural   SrP4H14(C2O7)2
_chemical_formula_sum   'Sr2 P8 H28 C8 O28'
_cell_volume   878.66331343
_cell_formula_units_Z   2
loop_
 _symmetry_equiv_pos_site_id
 _symmetry_equiv_pos_as_xyz
  1  'x, y, z'
loop_
 _atom_site_type_symbol
 _atom_site_label
 _atom_site_symmetry_multiplicity
 _atom_site_fract_x
 _atom_site_fract_y
 _atom_site_fract_z
 _atom_site_occupancy
 _atom_site_pbe_bader_spin_density
 _atom_site_pbe_cm5_charge
 _atom_site_pbe_ddec_charge
 _atom_site_pbe_ddec_spin_density
 _atom_site_pbe_ddec_sum_bond_order
 _atom_site_pbe_magmom
Sr  Sr0  1  0.24999787  0.03524240  0.96476006  1  0  1.023469  1.473925  0  1.498866  0
Sr  Sr1  1  0.74999903  0.96476066  0.03523843  1  0  1.023441  1.473918  0  1.498822  0
P  P2  1  0.97049772  0.11907271  0.70900046  1  0  0.4014  1.284041  0  5.202399  0
P  P3  1  0.52949244  0.29101243  0.88092846  1  0  0.401475  1.283958  0  5.202319  0
P  P4  1  0.02949943  0.88092838  0.29099871  1  0  0.401234  1.283737  0  5.202685  0
P  P5  1  0.47050234  0.70898764  0.11907316  1  0  0.40146  1.283912  0  5.20245  0
P  P6  1  0.22628524  0.87918876  0.72437595  1  0  0.372676  1.25207  0  5.311824  0
P  P7  1  0.27372220  0.27562910  0.12081739  1  0  0.372678  1.252048  0  5.311783  0
P  P8  1  0.77371436  0.12081330  0.27562536  1  0  0.37267  1.252046  0  5.311902  0
P  P9  1  0.72627661  0.72436903  0.87918359  1  0  0.372641  1.251991  0  5.311936  0
H  H10  1  0.33423684  0.07362085  0.46933726  1  0  0.097814  0.154986  0  1.007883  0
H  H11  1  0.16574320  0.53066131  0.92638755  1  0  0.097793  0.154919  0  1.007752  0
H  H12  1  0.66576870  0.92637435  0.53066588  1  0  0.097832  0.15503  0  1.007936  0
H  H13  1  0.83425667  0.46933876  0.07361534  1  0  0.097797  0.15495  0  1.007705  0
H  H14  1  0.20518033  0.22081277  0.46469518  1  0  0.094912  0.140283  0  0.990284  0
H  H15  1  0.29478244  0.53530484  0.77919335  1  0  0.094901  0.140302  0  0.990346  0
H  H16  1  0.79482613  0.77918446  0.53530166  1  0  0.094903  0.140299  0  0.990219  0
H  H17  1  0.70521479  0.46469620  0.22081039  1  0  0.094892  0.140291  0  0.99034  0
H  H18  1  0.11122914  0.08404367  0.46014175  1  0  0.099675  0.158077  0  1.028609  0
H  H19  1  0.38874544  0.53987029  0.91595116  1  0  0.099686  0.158012  0  1.028755  0
H  H20  1  0.88877508  0.91595155  0.53985787  1  0  0.099671  0.158093  0  1.028628  0
H  H21  1  0.61125470  0.46012780  0.08405333  1  0  0.099683  0.158017  0  1.028746  0
H  H22  1  0.41479419  0.10304523  0.66435678  1  0  0.349576  0.393503  0  0.843782  0
H  H23  1  0.08519999  0.33565039  0.89695156  1  0  0.349586  0.393509  0  0.843797  0
H  H24  1  0.58520728  0.89695193  0.33564426  1  0  0.349574  0.39351  0  0.843798  0
H  H25  1  0.91479594  0.66435066  0.10305049  1  0  0.349562  0.393477  0  0.843851  0
H  H26  1  0.89265013  0.28899187  0.54344536  1  0  0.36291  0.428296  0  0.819615  0
H  H27  1  0.60732685  0.45656671  0.71101445  1  0  0.362924  0.42827  0  0.819548  0
H  H28  1  0.10735985  0.71100737  0.45654856  1  0  0.362931  0.428319  0  0.819583  0
H  H29  1  0.39267012  0.54343630  0.28898861  1  0  0.362949  0.428292  0  0.81957  0
H  H30  1  0.78245926  0.96684521  0.74828925  1  0  0.312631  0.412797  0  0.932771  0
H  H31  1  0.71753052  0.25171133  0.03315447  1  0  0.312692  0.412861  0  0.932655  0
H  H32  1  0.21754051  0.03315493  0.25170816  1  0  0.31264  0.412874  0  0.932666  0
H  H33  1  0.28246638  0.74829173  0.96684402  1  0  0.312678  0.412872  0  0.932645  0
H  H34  1  0.49618892  0.78288953  0.72877997  1  0  0.302971  0.402184  0  0.945892  0
H  H35  1  0.00381322  0.27121533  0.21711615  1  0  0.302998  0.402233  0  0.945821  0
H  H36  1  0.50381219  0.21711057  0.27122096  1  0  0.302982  0.402218  0  0.945846  0
H  H37  1  0.99618665  0.72878475  0.78288675  1  0  0.302983  0.402209  0  0.945841  0
C  C38  1  0.18413029  0.06138158  0.65137607  1  0  0.056969  -0.152887  0  3.940619  0
C  C39  1  0.31586455  0.34862075  0.93862585  1  0  0.056974  -0.152855  0  3.940501  0
C  C40  1  0.81587472  0.93861758  0.34862388  1  0  0.056935  -0.152847  0  3.940548  0
C  C41  1  0.68413550  0.65137740  0.06137407  1  0  0.05694  -0.152911  0  3.940582  0
C  C42  1  0.20983457  0.11286755  0.50210002  1  0  -0.251192  -0.424357  0  3.95297  0
C  C43  1  0.29014663  0.49790624  0.88713367  1  0  -0.251143  -0.424226  0  3.952857  0
C  C44  1  0.79016944  0.88712961  0.49790167  1  0  -0.251199  -0.424438  0  3.952995  0
C  C45  1  0.70985196  0.50209385  0.11286844  1  0  -0.251139  -0.424239  0  3.952811  0
O  O46  1  0.30076488  0.11459945  0.70664087  1  0  -0.400365  -0.50598  0  2.319894  0
O  O47  1  0.19922520  0.29335745  0.88541302  1  0  -0.400366  -0.505949  0  2.319888  0
O  O48  1  0.69923606  0.88540166  0.29335790  1  0  -0.400354  -0.505995  0  2.319873  0
O  O49  1  0.80077061  0.70664459  0.11458869  1  0  -0.40031  -0.5059  0  2.319931  0
O  O50  1  0.96623701  0.09835752  0.85355739  1  0  -0.435266  -0.81037  0  2.189408  0
O  O51  1  0.53375620  0.14644116  0.90164312  1  0  -0.435301  -0.810391  0  2.189076  0
O  O52  1  0.03376150  0.90164262  0.14644016  1  0  -0.435193  -0.810256  0  2.189467  0
O  O53  1  0.46624220  0.85355995  0.09835500  1  0  -0.435309  -0.810404  0  2.189123  0
O  O54  1  0.94401702  0.27304044  0.62476719  1  0  -0.365096  -0.611232  0  2.143692  0
O  O55  1  0.55596650  0.37523627  0.72696530  1  0  -0.365093  -0.611123  0  2.143752  0
O  O56  1  0.05597910  0.72695869  0.37523189  1  0  -0.365117  -0.611215  0  2.143689  0
O  O57  1  0.44403054  0.62476580  0.27303444  1  0  -0.365108  -0.611129  0  2.14387  0
O  O58  1  0.83587684  0.05458962  0.67030228  1  0  -0.357276  -0.675637  0  2.269664  0
O  O59  1  0.66411575  0.32969708  0.94541048  1  0  -0.357292  -0.67559  0  2.269709  0
O  O60  1  0.16412685  0.94540956  0.32969507  1  0  -0.357226  -0.675599  0  2.269654  0
O  O61  1  0.33588165  0.67030204  0.05458937  1  0  -0.357267  -0.675571  0  2.26974  0
O  O62  1  0.10439270  0.80811484  0.68498000  1  0  -0.36605  -0.711931  0  2.18769  0
O  O63  1  0.39561343  0.31502178  0.19188662  1  0  -0.365918  -0.711862  0  2.187908  0
O  O64  1  0.89560727  0.19188427  0.31502141  1  0  -0.366053  -0.711951  0  2.187747  0
O  O65  1  0.60438804  0.68497538  0.80811442  1  0  -0.365935  -0.71185  0  2.187944  0
O  O66  1  0.21634833  0.85110176  0.87447238  1  0  -0.408016  -0.794892  0  2.290781  0
O  O67  1  0.28366057  0.12552478  0.14890367  1  0  -0.408019  -0.794896  0  2.290591  0
O  O68  1  0.78365282  0.14889831  0.12553130  1  0  -0.408031  -0.794885  0  2.290817  0
O  O69  1  0.71633415  0.87447533  0.85109429  1  0  -0.408022  -0.79485  0  2.290623  0
O  O70  1  0.41320006  0.85887393  0.66576440  1  0  -0.38007  -0.675995  0  2.265263  0
O  O71  1  0.08680027  0.33423203  0.14114475  1  0  -0.380195  -0.676092  0  2.265235  0
O  O72  1  0.58680348  0.14112715  0.33423775  1  0  -0.380052  -0.675989  0  2.265249  0
O  O73  1  0.91319710  0.66576801  0.85886025  1  0  -0.380132  -0.676035  0  2.265212  0
