# generated using pymatgen
data_CaVP2H14(C4O3)3
_symmetry_space_group_name_H-M   'P 1'
_cell_length_a   7.03015084
_cell_length_b   8.84897904
_cell_length_c   14.79748026
_cell_angle_alpha   72.60534515
_cell_angle_beta   86.32805929
_cell_angle_gamma   77.59805555
_symmetry_Int_Tables_number   1
_chemical_formula_structural   CaVP2H14(C4O3)3
_chemical_formula_sum   'Ca2 V2 P4 H28 C24 O18'
_cell_volume   857.94935930
_cell_formula_units_Z   2
loop_
 _symmetry_equiv_pos_site_id
 _symmetry_equiv_pos_as_xyz
  1  'x, y, z'
loop_
 _atom_site_type_symbol
 _atom_site_label
 _atom_site_symmetry_multiplicity
 _atom_site_fract_x
 _atom_site_fract_y
 _atom_site_fract_z
 _atom_site_occupancy
 _atom_site_hle17_ddec_charge
 _atom_site_hle17_ddec_spin_density
 _atom_site_hle17_ddec_sum_bond_order
 _atom_site_hle17_magmom
 _atom_site_hse06_10hf_ddec_charge
 _atom_site_hse06_10hf_ddec_spin_density
 _atom_site_hse06_10hf_ddec_sum_bond_order
 _atom_site_hse06_10hf_magmom
 _atom_site_hse06_ddec_charge
 _atom_site_hse06_ddec_spin_density
 _atom_site_hse06_ddec_sum_bond_order
 _atom_site_hse06_magmom
 _atom_site_pbe_cm5_charge
 _atom_site_pbe_ddec_charge
 _atom_site_pbe_ddec_spin_density
 _atom_site_pbe_ddec_sum_bond_order
 _atom_site_pbe_magmom
Ca  Ca0  1  0.07114843  0.27612897  0.95689302  1  1.58867  5.5e-05  1.066007  0.0  1.471262  8.7e-05  1.398325  0.0  1.511137  5.9e-05  1.356517  0.0  0.923796  1.441577  9.7e-05  1.427381  0.0
Ca  Ca1  1  0.57121680  0.23292628  0.04316685  1  1.589719  -5.1e-05  1.064482  0.0  1.472582  -7.5e-05  1.396252  0.0  1.512479  -5e-05  1.354412  0.0  0.924095  1.442431  -9.5e-05  1.426138  0.0
V  V2  1  0.29349215  0.75960200  0.99140482  1  1.947887  -1.255812  2.39915  -1.208  1.981788  -1.0464  2.76098  -1.013  2.078099  -1.078937  2.722921  -1.045  1.404186  1.911962  -1.018633  2.794026  -0.985
V  V3  1  0.79350329  0.75099217  0.00857074  1  1.949286  1.255539  2.395929  1.208  1.983337  1.046286  2.757755  1.013  2.079434  1.078814  2.719909  1.045  1.403687  1.91324  1.018519  2.791322  0.986
P  P4  1  0.50611392  0.06076078  0.88000766  1  1.514217  0.000262  4.817472  0.0  1.364763  0.000133  5.311062  0.0  1.420606  0.000168  5.266559  0.0  0.359145  1.325655  0.000129  5.340536  0.0
P  P5  1  0.00626236  0.94071979  0.11998713  1  1.520161  -0.000269  4.811187  0.0  1.370798  -0.000156  5.304465  0.0  1.426686  -0.000181  5.259841  0.0  0.361982  1.331636  -0.000146  5.334043  0.0
P  P6  1  0.64091497  0.57001268  0.87970368  1  1.514751  0.000417  4.806943  0.0  1.364811  0.000133  5.301296  0.0  1.420572  0.000204  5.256754  0.0  0.36151  1.325693  9.3e-05  5.330907  0.0
P  P7  1  0.14102682  0.44973753  0.12029790  1  1.51568  -0.000431  4.80847  0.0  1.365982  -0.000134  5.302596  0.0  1.421774  -0.000202  5.258025  0.0  0.361997  1.326827  -9.3e-05  5.332266  0.0
H  H8  1  0.12830611  0.05222037  0.84884997  1  0.422828  0.0004  0.874901  0.0  0.396391  0.000416  0.933545  0.0  0.406747  0.000382  0.918238  0.0  0.304217  0.389162  0.00043  0.944215  0.0
H  H9  1  0.62835833  0.90096690  0.15119388  1  0.423177  -0.000401  0.874687  0.0  0.396925  -0.000417  0.932647  0.0  0.407233  -0.000383  0.917428  0.0  0.304196  0.389695  -0.000431  0.943315  0.0
H  H10  1  0.90412649  0.08342103  0.87005415  1  0.435263  -0.000355  0.861928  0.0  0.407972  -0.000308  0.92018  0.0  0.418257  -0.000291  0.905101  0.0  0.306835  0.400718  -0.000324  0.930816  0.0
H  H11  1  0.40417850  0.95337840  0.12991827  1  0.434339  0.000353  0.862959  0.0  0.406765  0.000306  0.921811  0.0  0.417097  0.000289  0.906641  0.0  0.305847  0.399503  0.000322  0.93245  0.0
H  H12  1  0.24429193  0.55217772  0.86926396  1  0.429497  0.000386  0.871414  0.0  0.401298  0.000407  0.931604  0.0  0.4115  0.000378  0.916659  0.0  0.305176  0.394166  0.00042  0.942025  0.0
H  H13  1  0.74428089  0.42160296  0.13070815  1  0.430789  -0.000385  0.869576  0.0  0.402385  -0.000407  0.930217  0.0  0.41257  -0.000377  0.915303  0.0  0.305388  0.395226  -0.00042  0.94068  0.0
H  H14  1  0.01761355  0.60961356  0.85639025  1  0.42968  -0.000165  0.867387  0.0  0.403881  -0.000162  0.923566  0.0  0.414628  -0.000155  0.90768  0.0  0.303423  0.396343  -0.000173  0.934696  0.0
H  H15  1  0.51760441  0.46615499  0.14356147  1  0.429635  0.000163  0.867194  0.0  0.403917  0.000161  0.9236  0.0  0.414647  0.000154  0.907726  0.0  0.303164  0.39636  0.000171  0.934762  0.0
H  H16  1  0.30046432  0.34185394  0.73609722  1  0.101069  -2.2e-05  0.948911  0.0  0.113573  7e-06  1.007548  0.0  0.116594  3e-06  1.005837  0.0  0.113212  0.111367  1.1e-05  1.008858  0.0
H  H17  1  0.80069949  0.07806929  0.26376271  1  0.100854  2.2e-05  0.949656  0.0  0.112951  -7e-06  1.008752  0.0  0.115855  -4e-06  1.007179  0.0  0.11284  0.110819  -1.1e-05  1.009978  0.0
H  H18  1  0.33189431  0.42918636  0.56104236  1  0.081079  2e-05  0.964654  0.0  0.093778  1.8e-05  1.023261  0.0  0.09604  1.2e-05  1.023098  0.0  0.098571  0.092131  2.4e-05  1.023511  0.0
H  H19  1  0.83175549  0.99045858  0.43882985  1  0.081736  -2e-05  0.963758  0.0  0.094083  -1.7e-05  1.022665  0.0  0.096478  -1.3e-05  1.022355  0.0  0.098584  0.092388  -2.4e-05  1.022942  0.0
H  H20  1  0.59870075  0.28022006  0.48176941  1  0.08156  -2.5e-05  0.956906  0.0  0.09278  -1e-06  1.017343  0.0  0.095412  -1e-06  1.016391  0.0  0.099103  0.090858  -1e-06  1.018118  0.0
H  H21  1  0.09832549  0.76208522  0.51827856  1  0.080976  2.4e-05  0.956611  0.0  0.092271  1e-06  1.01709  0.0  0.094893  1e-06  1.01612  0.0  0.098951  0.090373  1e-06  1.01784  0.0
H  H22  1  0.83398325  0.04282497  0.57847300  1  0.081469  1.1e-05  0.960157  0.0  0.094546  -0.0  1.017418  0.0  0.097033  1e-06  1.016921  0.0  0.098779  0.092754  -2e-06  1.017889  0.0
H  H23  1  0.33372309  0.62122782  0.42173343  1  0.081998  -1.1e-05  0.961137  0.0  0.095147  -1e-06  1.018185  0.0  0.097642  -2e-06  1.017661  0.0  0.098992  0.093357  -0.0  1.018656  0.0
H  H24  1  0.79479253  0.94851724  0.75317997  1  0.103856  -3.8e-05  0.939157  0.0  0.117114  7.5e-05  0.993052  0.0  0.120419  2e-05  0.991038  0.0  0.107954  0.11469  0.000125  0.994637  0.0
H  H25  1  0.29487667  0.70154709  0.24700697  1  0.104909  3.5e-05  0.938206  0.0  0.117783  -7.6e-05  0.992318  0.0  0.121182  -2.1e-05  0.990164  0.0  0.108199  0.115292  -0.000126  0.993988  0.0
H  H26  1  0.35732842  0.80983612  0.74923517  1  0.102191  8.9e-05  0.94265  0.0  0.11478  3.4e-05  0.997725  0.0  0.118087  6.7e-05  0.995614  0.0  0.107318  0.112328  -4e-06  0.999406  0.0
H  H27  1  0.85755877  0.55892414  0.25082317  1  0.102226  -9e-05  0.941398  0.0  0.114849  -3.4e-05  0.996535  0.0  0.118143  -6.7e-05  0.994451  0.0  0.107285  0.11242  4e-06  0.998178  0.0
H  H28  1  0.33172594  0.89452453  0.57396197  1  0.080777  -1.3e-05  0.964136  0.0  0.094156  -2e-06  1.021219  0.0  0.096562  -3e-06  1.020761  0.0  0.098799  0.092411  -1e-06  1.021666  0.0
H  H29  1  0.83213490  0.46815406  0.42610473  1  0.081152  1.3e-05  0.964217  0.0  0.093953  1e-06  1.021837  0.0  0.09639  2e-06  1.021338  0.0  0.098607  0.092193  -1e-06  1.022287  0.0
H  H30  1  0.57822645  0.75889907  0.47919944  1  0.082478  1.4e-05  0.954305  0.0  0.093917  1e-06  1.014235  0.0  0.096572  1e-06  1.013302  0.0  0.099408  0.091992  1e-06  1.014974  0.0
H  H31  1  0.07873418  0.23771233  0.52078119  1  0.082652  -1.8e-05  0.954731  0.0  0.09405  -1e-06  1.014588  0.0  0.096698  -2e-06  1.013678  0.0  0.099751  0.092132  -1e-06  1.015308  0.0
H  H32  1  0.84427072  0.53232028  0.56102919  1  0.081755  -2.6e-05  0.96279  0.0  0.094314  -2.2e-05  1.021141  0.0  0.096707  -1.6e-05  1.020856  0.0  0.09887  0.092609  -2.9e-05  1.021429  0.0
H  H33  1  0.34463173  0.09303753  0.43886791  1  0.081306  2.7e-05  0.96344  0.0  0.093941  2.2e-05  1.022004  0.0  0.096282  1.6e-05  1.021742  0.0  0.09857  0.092258  3e-05  1.022273  0.0
H  H34  1  0.86271961  0.44015483  0.73642126  1  0.101413  1.1e-05  0.949994  0.0  0.11292  -1.2e-05  1.010268  0.0  0.115862  -1e-05  1.008541  0.0  0.113361  0.110773  -1.2e-05  1.011591  0.0
H  H35  1  0.36289157  0.17644679  0.26347564  1  0.100942  -1e-05  0.950644  0.0  0.112817  1.2e-05  1.010629  0.0  0.115658  1.1e-05  1.008992  0.0  0.113092  0.110741  1.2e-05  1.011872  0.0
C  C36  1  0.54546649  0.13916435  0.75532193  1  -0.24637  0.00137  3.762153  0.001  -0.201457  0.001277  3.996608  0.001  -0.213037  0.001064  4.019556  0.001  -0.021113  -0.193871  0.001444  3.981549  0.001
C  C37  1  0.04560275  0.89443718  0.24469385  1  -0.249198  -0.001402  3.763315  -0.001  -0.204361  -0.001284  3.997794  -0.001  -0.215992  -0.00107  4.020764  -0.001  -0.022352  -0.196772  -0.001452  3.982781  -0.001
C  C38  1  0.41531633  0.27506443  0.70130177  1  -0.031337  0.000868  3.732431  0.001  -0.054814  0.000279  3.970006  0.0  -0.054281  0.000294  3.991919  0.0  -0.07349  -0.055002  0.000238  3.955203  0.0
C  C39  1  0.91544233  0.97646823  0.29862979  1  -0.030298  -0.000877  3.732722  -0.001  -0.053346  -0.000275  3.970166  0.0  -0.052744  -0.000294  3.992148  0.0  -0.073207  -0.05358  -0.000225  3.955347  0.0
C  C40  1  0.43434900  0.32460429  0.60301022  1  -0.076195  -0.000435  3.78074  0.0  -0.087478  1.2e-05  4.030032  0.0  -0.091396  -3.5e-05  4.053559  0.0  -0.090457  -0.084832  6.2e-05  4.013942  0.0
C  C41  1  0.93427943  0.92775197  0.39693296  1  -0.079042  0.000411  3.780739  0.0  -0.090121  -1.8e-05  4.030163  0.0  -0.094144  3e-05  4.053616  0.0  -0.091211  -0.087423  -6.8e-05  4.014163  0.0
C  C42  1  0.58434173  0.24124464  0.55865832  1  -0.069361  0.000899  3.781022  0.001  -0.086414  0.000124  4.034879  0.0  -0.087204  0.000167  4.05705  0.0  -0.090358  -0.085631  6.6e-05  4.019629  0.0
C  C43  1  0.08414534  0.79997760  0.44137582  1  -0.065881  -0.000859  3.780549  -0.001  -0.082885  -0.000124  4.034114  0.0  -0.083641  -0.000163  4.056317  0.0  -0.088924  -0.082139  -6.6e-05  4.018853  0.0
C  C44  1  0.71623593  0.10787461  0.61271856  1  -0.081356  -0.000382  3.777081  0.0  -0.092006  -4.3e-05  4.026671  0.0  -0.096076  -5.5e-05  4.049898  0.0  -0.091973  -0.089263  -4.4e-05  4.010812  0.0
C  C45  1  0.21607357  0.72055467  0.38739970  1  -0.083387  0.000357  3.78061  0.0  -0.094235  4.8e-05  4.030353  0.0  -0.098323  5.8e-05  4.053587  0.0  -0.092503  -0.09148  5.3e-05  4.01448  0.0
C  C46  1  0.69618359  0.05558265  0.71085586  1  -0.026794  0.000643  3.735088  0.0  -0.051478  0.000216  3.977383  0.0  -0.050505  0.0002  3.99825  0.0  -0.077691  -0.051997  0.000228  3.963371  0.0
C  C47  1  0.19628197  0.76640615  0.28924738  1  -0.026035  -0.000588  3.735978  0.0  -0.050316  -0.000214  3.978053  0.0  -0.049373  -0.000194  3.998882  0.0  -0.077325  -0.050799  -0.000233  3.964068  0.0
C  C48  1  0.61143114  0.61999085  0.75388207  1  -0.245185  -0.001823  3.75586  -0.001  -0.201907  -0.001539  3.992583  -0.001  -0.213379  -0.001322  4.015308  -0.001  -0.020872  -0.194348  -0.001714  3.977589  -0.001
C  C49  1  0.11166173  0.37373141  0.24610449  1  -0.247457  0.001798  3.758953  0.001  -0.203317  0.001534  3.994685  0.001  -0.214788  0.001317  4.017377  0.001  -0.021061  -0.195757  0.001711  3.979723  0.001
C  C50  1  0.46141504  0.74729050  0.70783530  1  -0.028664  -0.000288  3.737287  0.0  -0.052773  -2.4e-05  3.980115  0.0  -0.051876  -3.1e-05  4.001086  0.0  -0.078513  -0.053238  -2.4e-05  3.966002  0.0
C  C51  1  0.96172436  0.45497331  0.29219042  1  -0.02814  0.000347  3.73614  0.0  -0.052348  2.8e-05  3.978598  0.0  -0.051474  3.9e-05  3.999595  0.0  -0.078441  -0.052807  2.2e-05  3.964477  0.0
C  C52  1  0.44870218  0.79552869  0.60930890  1  -0.082883  0.000226  3.781717  0.0  -0.093874  3.4e-05  4.031336  0.0  -0.097934  4.1e-05  4.054678  0.0  -0.092528  -0.091115  4.8e-05  4.015387  0.0
C  C53  1  0.94904484  0.40455572  0.39071326  1  -0.08391  -0.000248  3.781391  0.0  -0.094497  -2.8e-05  4.031286  0.0  -0.098573  -3.5e-05  4.054548  0.0  -0.093082  -0.091725  -3.5e-05  4.015369  0.0
C  C54  1  0.58697263  0.71924859  0.55631186  1  -0.067364  -0.000504  3.783006  0.0  -0.084569  -4e-05  4.036926  0.0  -0.085292  -9e-05  4.059067  0.0  -0.089301  -0.083839  2e-05  4.02168  0.0
C  C55  1  0.08736151  0.27523817  0.44367248  1  -0.068845  0.000562  3.783161  0.0  -0.085969  4.8e-05  4.037094  0.0  -0.086716  9.8e-05  4.059231  0.0  -0.09013  -0.085224  -1.2e-05  4.021847  0.0
C  C56  1  0.73636401  0.59234474  0.60214315  1  -0.079985  0.000282  3.777663  0.0  -0.09055  -4.6e-05  4.026177  0.0  -0.094648  3e-06  4.049581  0.0  -0.091871  -0.087802  -9.6e-05  4.010207  0.0
C  C57  1  0.23669726  0.19421971  0.39780043  1  -0.076989  -0.000316  3.778248  0.0  -0.087777  3.5e-05  4.026797  0.0  -0.091804  -1.2e-05  4.05022  0.0  -0.090199  -0.085059  8.3e-05  4.010794  0.0
C  C58  1  0.74825682  0.54132094  0.70075820  1  -0.029481  -0.000762  3.727  -0.001  -0.052258  -0.000296  3.965244  0.0  -0.051579  -0.00031  3.98704  0.0  -0.07293  -0.052553  -0.000256  3.950532  0.0
C  C59  1  0.24852685  0.24189822  0.29919145  1  -0.028487  0.000749  3.728981  0.001  -0.051963  0.000301  3.967414  0.0  -0.05117  0.000309  3.989138  0.0  -0.072483  -0.052319  0.000269  3.952716  0.0
O  O60  1  0.40038911  0.19611080  0.92065965  1  -0.955103  -0.002855  1.941214  -0.003  -0.869727  -0.002661  2.209374  -0.003  -0.899864  -0.002142  2.189285  -0.002  -0.465801  -0.847886  -0.003103  2.222519  -0.003
O  O61  1  0.90048800  0.11674229  0.07936132  1  -0.95739  0.002857  1.939871  0.003  -0.871888  0.002662  2.208016  0.003  -0.901917  0.002146  2.187657  0.002  -0.466594  -0.850086  0.003105  2.221333  0.003
O  O62  1  0.38097404  0.93256288  0.88805701  1  -0.913142  -0.013475  2.0996  0.001  -0.861448  -0.023046  2.376463  -0.008  -0.895924  -0.020803  2.360547  -0.007  -0.41167  -0.836263  -0.0248  2.386682  -0.009
O  O63  1  0.88110755  0.82058998  0.11192052  1  -0.91549  0.013493  2.098  -0.001  -0.864236  0.023069  2.374853  0.008  -0.898597  0.020826  2.358779  0.007  -0.413663  -0.839029  0.024817  2.38521  0.009
O  O64  1  0.70779655  0.98409566  0.92965724  1  -0.908599  0.008572  2.049068  -0.005  -0.852664  0.018202  2.321602  0.004  -0.883756  0.01644  2.302415  0.003  -0.396619  -0.829823  0.019601  2.334075  0.005
O  O65  1  0.20791816  0.91369002  0.07034370  1  -0.910055  -0.008622  2.050272  0.005  -0.853695  -0.018201  2.322563  -0.004  -0.884829  -0.016449  2.303221  -0.003  -0.396823  -0.830953  -0.019597  2.335247  -0.005
O  O66  1  0.07326618  0.78074859  0.94961318  1  -0.833256  0.194514  1.529871  0.192  -0.868402  0.081116  1.832613  0.083  -0.917333  0.097  1.829726  0.1  -0.616351  -0.834948  0.069913  1.835457  0.071
O  O67  1  0.57328280  0.73035983  0.05031601  1  -0.833229  -0.194232  1.528659  -0.192  -0.868482  -0.081036  1.831545  -0.083  -0.917256  -0.09691  1.828459  -0.1  -0.615984  -0.834994  -0.069845  1.834415  -0.071
O  O68  1  0.01386835  0.13903349  0.84825288  1  -0.866485  0.000811  1.790037  0.001  -0.818051  0.000459  1.96164  0.0  -0.837478  0.000448  1.930958  0.0  -0.623157  -0.804077  0.000446  1.982787  0.0
O  O69  1  0.51389654  0.98717177  0.15177368  1  -0.866117  -0.000808  1.790698  -0.001  -0.817497  -0.000458  1.961763  0.0  -0.836975  -0.000447  1.931155  0.0  -0.622216  -0.803439  -0.000445  1.982957  0.0
O  O70  1  0.12795936  0.52304254  0.85033058  1  -0.869886  0.001019  1.785551  0.001  -0.820852  0.000623  1.957357  0.001  -0.840668  0.000569  1.926374  0.001  -0.625793  -0.806582  0.000648  1.978734  0.001
O  O71  1  0.62796492  0.37352639  0.14963588  1  -0.871333  -0.001023  1.784004  -0.001  -0.822369  -0.000626  1.955571  -0.001  -0.842159  -0.000569  1.924622  -0.001  -0.625758  -0.808003  -0.000649  1.977053  -0.001
O  O72  1  0.74183727  0.39262360  0.92037509  1  -0.955266  0.00291  1.937358  0.003  -0.868647  0.002356  2.203893  0.002  -0.898772  0.001905  2.18387  0.002  -0.465468  -0.846829  0.002736  2.217027  0.003
O  O73  1  0.24196799  0.31305127  0.07960806  1  -0.954578  -0.002903  1.938685  -0.003  -0.868701  -0.002354  2.205868  -0.002  -0.898847  -0.001902  2.18587  -0.002  -0.465417  -0.846869  -0.002732  2.21901  -0.003
O  O74  1  0.43612124  0.59815490  0.92589886  1  -0.919024  -0.010622  2.077097  0.003  -0.863949  -0.018458  2.353753  -0.004  -0.896114  -0.016758  2.334848  -0.004  -0.398006  -0.840382  -0.019785  2.365978  -0.005
O  O75  1  0.93619605  0.52401979  0.07409933  1  -0.919226  0.01058  2.076337  -0.003  -0.864257  0.018436  2.353046  0.004  -0.896351  0.016729  2.334088  0.004  -0.398193  -0.840657  0.019764  2.365358  0.005
O  O76  1  0.76729293  0.68610343  0.89289874  1  -0.895536  0.010603  2.075387  -0.003  -0.84142  0.021632  2.346649  0.007  -0.874437  0.019393  2.329879  0.006  -0.409479  -0.817267  0.023364  2.357564  0.008
O  O77  1  0.26725661  0.57910026  0.10709614  1  -0.895612  -0.010547  2.07544  0.004  -0.841583  -0.021585  2.346209  -0.007  -0.874746  -0.019351  2.329621  -0.006  -0.409879  -0.817417  -0.023319  2.357004  -0.008
