# generated using pymatgen
data_AgH6C14N7O3
_symmetry_space_group_name_H-M   'P 1'
_cell_length_a   5.24957726
_cell_length_b   5.67502227
_cell_length_c   13.26837261
_cell_angle_alpha   99.62998039
_cell_angle_beta   98.09527463
_cell_angle_gamma   98.72549165
_symmetry_Int_Tables_number   1
_chemical_formula_structural   AgH6C14N7O3
_chemical_formula_sum   'Ag1 H6 C14 N7 O3'
_cell_volume   379.56049671
_cell_formula_units_Z   1
loop_
 _symmetry_equiv_pos_site_id
 _symmetry_equiv_pos_as_xyz
  1  'x, y, z'
loop_
 _atom_site_type_symbol
 _atom_site_label
 _atom_site_symmetry_multiplicity
 _atom_site_fract_x
 _atom_site_fract_y
 _atom_site_fract_z
 _atom_site_occupancy
 _atom_site_hle17_bader_spin_density
 _atom_site_hle17_ddec_charge
 _atom_site_hle17_ddec_spin_density
 _atom_site_hle17_ddec_sum_bond_order
 _atom_site_hle17_magmom
 _atom_site_hse06_10hf_bader_spin_density
 _atom_site_hse06_10hf_ddec_charge
 _atom_site_hse06_10hf_ddec_spin_density
 _atom_site_hse06_10hf_ddec_sum_bond_order
 _atom_site_hse06_10hf_magmom
 _atom_site_hse06_bader_spin_density
 _atom_site_hse06_ddec_charge
 _atom_site_hse06_ddec_spin_density
 _atom_site_hse06_ddec_sum_bond_order
 _atom_site_hse06_magmom
 _atom_site_pbe_bader_spin_density
 _atom_site_pbe_cm5_charge
 _atom_site_pbe_ddec_charge
 _atom_site_pbe_ddec_spin_density
 _atom_site_pbe_ddec_sum_bond_order
 _atom_site_pbe_magmom
Ag  Ag0  1  0.53980094  0.39168322  0.00815488  1  0  0.531632  0  1.409218  0  0  0.389254  0  1.853031  0  0  0.414563  0  1.806406  0  0  0.466893  0.3741  0  1.884229  0
H  H1  1  0.67330815  0.82648399  0.20049930  1  0  0.093141  0  0.95525  0  0  0.096114  0  1.027328  0  0  0.099075  0  1.024436  0  0  0.116934  0.093853  0  1.029581  0
H  H2  1  0.43561580  0.59154517  0.79929548  1  0  0.092222  0  0.945741  0  0  0.095521  0  1.01674  0  0  0.098382  0  1.014091  0  0  0.118827  0.09334  0  1.018812  0
H  H3  1  0.98534379  0.96689669  0.36691127  1  0  0.133467  0  0.968522  0  0  0.138018  0  1.035222  0  0  0.141805  0  1.033463  0  0  0.115347  0.135358  0  1.036578  0
H  H4  1  0.60102034  0.58029004  0.63213395  1  0  0.133883  0  0.966274  0  0  0.138354  0  1.03348  0  0  0.142064  0  1.031734  0  0  0.115349  0.135799  0  1.034787  0
H  H5  1  0.00310047  0.21432947  0.12219645  1  0  0.110736  0  0.946464  0  0  0.116565  0  1.012712  0  0  0.119978  0  1.009241  0  0  0.125597  0.113841  0  1.015538  0
H  H6  1  0.84904490  0.06198187  0.88008896  1  0  0.11183  0  0.949403  0  0  0.116328  0  1.016476  0  0  0.119929  0  1.012905  0  0  0.125384  0.113489  0  1.019376  0
C  C7  1  0.82091401  0.72011598  0.22235990  1  0  0.141474  0  3.651814  0  0  0.106775  0  3.909107  0  0  0.114658  0  3.925198  0  0  0.058063  0.101485  0  3.898563  0
C  C8  1  0.56838126  0.46857620  0.77822966  1  0  0.14236  0  3.653407  0  0  0.107427  0  3.914596  0  0  0.115337  0  3.93042  0  0  0.059793  0.102195  0  3.904083  0
C  C9  1  0.99696533  0.80003974  0.31493623  1  0  -0.113512  0  3.647363  0  0  -0.133589  0  3.892019  0  0  -0.140751  0  3.912041  0  0  -0.05874  -0.12903  0  3.87875  0
C  C10  1  0.66072769  0.46281021  0.68468467  1  0  -0.114566  0  3.647107  0  0  -0.135597  0  3.892919  0  0  -0.142764  0  3.913317  0  0  -0.057972  -0.130957  0  3.879144  0
C  C11  1  0.18991317  0.66365838  0.33876562  1  0  0.072342  0  3.803843  0  0  0.078585  0  4.032271  0  0  0.083339  0  4.049302  0  0  0.040066  0.075425  0  4.020889  0
C  C12  1  0.83474492  0.30645911  0.66096842  1  0  0.068579  0  3.80806  0  0  0.07611  0  4.036416  0  0  0.080151  0  4.054018  0  0  0.040878  0.073576  0  4.02456  0
C  C13  1  0.19374720  0.44788518  0.26836570  1  0  -0.034003  0  3.817348  0  0  -0.017872  0  4.050285  0  0  -0.023227  0  4.069494  0  0  0.025006  -0.014621  0  4.037775  0
C  C14  1  0.90275097  0.15635714  0.73180110  1  0  -0.030281  0  3.805448  0  0  -0.014221  0  4.035785  0  0  -0.019563  0  4.055654  0  0  0.025053  -0.011  0  4.022717  0
C  C15  1  0.00480569  0.37966416  0.17791402  1  0  0.119687  0  3.628303  0  0  0.077931  0  3.8819  0  0  0.085494  0  3.896273  0  0  0.071455  0.072627  0  3.873009  0
C  C16  1  0.79678950  0.17330579  0.82349716  1  0  0.123939  0  3.613306  0  0  0.08522  0  3.861452  0  0  0.092223  0  3.876551  0  0  0.073182  0.080456  0  3.851814  0
C  C17  1  0.38345025  0.74110678  0.42984676  1  0  0.281499  0  3.703332  0  0  0.266509  0  3.979379  0  0  0.275809  0  3.994676  0  0  0.202728  0.260075  0  3.969318  0
C  C18  1  0.94822010  0.30146076  0.56943873  1  0  0.288432  0  3.708309  0  0  0.272282  0  3.983119  0  0  0.28225  0  3.998582  0  0  0.205996  0.265374  0  3.972711  0
C  C19  1  0.38366690  0.29939371  0.28686754  1  0  0.272072  0  3.759098  0  0  0.254229  0  4.038302  0  0  0.264235  0  4.058318  0  0  0.193001  0.247369  0  4.02512  0
C  C20  1  0.07647821  0.99088412  0.71317559  1  0  0.271447  0  3.749821  0  0  0.254279  0  4.026537  0  0  0.264191  0  4.047263  0  0  0.193002  0.247532  0  4.012752  0
N  N21  1  0.82309309  0.51394492  0.15550826  1  0  -0.265386  0  3.304749  0  0  -0.189426  0  3.594506  0  0  -0.205231  0  3.607098  0  0  -0.325579  -0.179415  0  3.586393  0
N  N22  1  0.63524073  0.32816186  0.84631453  1  0  -0.264097  0  3.27872  0  0  -0.19146  0  3.566609  0  0  -0.206999  0  3.57906  0  0  -0.322441  -0.181523  0  3.558528  0
N  N23  1  0.54823708  0.80306288  0.50249353  1  0  -0.350173  0  2.571351  0  0  -0.331871  0  2.797883  0  0  -0.341102  0  2.811168  0  0  -0.271702  -0.325821  0  2.789139  0
N  N24  1  0.04897684  0.29834750  0.49642627  1  0  -0.361121  0  2.582864  0  0  -0.340166  0  2.809687  0  0  -0.350496  0  2.823219  0  0  -0.275784  -0.333012  0  2.80055  0
N  N25  1  0.53733610  0.17398410  0.29977871  1  0  -0.364801  0  2.588454  0  0  -0.340724  0  2.817197  0  0  -0.352909  0  2.833806  0  0  -0.277804  -0.332576  0  2.806155  0
N  N26  1  0.21863645  0.85329532  0.70066426  1  0  -0.364834  0  2.584873  0  0  -0.340617  0  2.812173  0  0  -0.353013  0  2.829118  0  0  -0.278661  -0.33227  0  2.80083  0
N  N27  1  0.31028073  0.85804886  0.99730580  1  0  0.684359  0  4.144931  0  0  0.720797  0  4.418595  0  0  0.748797  0  4.427655  0  0  0.087164  0.701828  0  4.411671  0
O  O28  1  0.18664895  0.03478167  0.99401378  1  0  -0.477659  0  1.821935  0  0  -0.450767  0  2.056658  0  0  -0.469587  0  2.047381  0  0  -0.19864  -0.437026  0  2.062341  0
O  O29  1  0.55785338  0.89945076  0.01808133  1  0  -0.474957  0  1.772429  0  0  -0.460607  0  2.005972  0  0  -0.476336  0  1.996806  0  0  -0.193346  -0.449337  0  2.011721  0
O  O30  1  0.18340126  0.64240152  0.97928058  1  0  -0.457712  0  1.780331  0  0  -0.443383  0  2.015132  0  0  -0.460302  0  2.007714  0  0  -0.199047  -0.431133  0  2.01959  0
