# generated using pymatgen
data_CdH2C2SBrN3
_symmetry_space_group_name_H-M   'P 1'
_cell_length_a   7.97559705
_cell_length_b   10.89148952
_cell_length_c   14.17681091
_cell_angle_alpha   89.99999600
_cell_angle_beta   89.99989648
_cell_angle_gamma   89.99991989
_symmetry_Int_Tables_number   1
_chemical_formula_structural   CdH2C2SBrN3
_chemical_formula_sum   'Cd8 H16 C16 S8 Br8 N24'
_cell_volume   1231.48472274
_cell_formula_units_Z   8
loop_
 _symmetry_equiv_pos_site_id
 _symmetry_equiv_pos_as_xyz
  1  'x, y, z'
loop_
 _atom_site_type_symbol
 _atom_site_label
 _atom_site_symmetry_multiplicity
 _atom_site_fract_x
 _atom_site_fract_y
 _atom_site_fract_z
 _atom_site_occupancy
 _atom_site_hle17_bader_spin_density
 _atom_site_hle17_ddec_charge
 _atom_site_hle17_ddec_spin_density
 _atom_site_hle17_ddec_sum_bond_order
 _atom_site_hle17_magmom
 _atom_site_hse06_10hf_bader_spin_density
 _atom_site_hse06_10hf_ddec_charge
 _atom_site_hse06_10hf_ddec_spin_density
 _atom_site_hse06_10hf_ddec_sum_bond_order
 _atom_site_hse06_10hf_magmom
 _atom_site_hse06_bader_spin_density
 _atom_site_hse06_ddec_charge
 _atom_site_hse06_ddec_spin_density
 _atom_site_hse06_ddec_sum_bond_order
 _atom_site_hse06_magmom
 _atom_site_pbe_bader_spin_density
 _atom_site_pbe_cm5_charge
 _atom_site_pbe_ddec_charge
 _atom_site_pbe_ddec_spin_density
 _atom_site_pbe_ddec_sum_bond_order
 _atom_site_pbe_magmom
Cd  Cd0  1  0.80913053  0.31493995  0.66260911  1  0  0.844443  0  2.020442  0  0  0.665185  0  2.499917  0  0  0.711982  0  2.461519  0  0  0.572931  0.632427  0  2.525693  0
Cd  Cd1  1  0.69087072  0.18505973  0.16260886  1  0  0.844488  0  2.020445  0  0  0.665242  0  2.499913  0  0  0.712036  0  2.461518  0  0  0.572947  0.632485  0  2.525691  0
Cd  Cd2  1  0.80913114  0.68506103  0.83739171  1  0  0.844488  0  2.020425  0  0  0.665229  0  2.499903  0  0  0.712019  0  2.461511  0  0  0.572942  0.632469  0  2.525674  0
Cd  Cd3  1  0.69086984  0.81493959  0.33739074  1  0  0.844456  0  2.020478  0  0  0.665206  0  2.499946  0  0  0.711996  0  2.461554  0  0  0.572935  0.632446  0  2.525722  0
Cd  Cd4  1  0.19087103  0.68506045  0.33739100  1  0  0.844487  0  2.020413  0  0  0.665233  0  2.499887  0  0  0.712023  0  2.461497  0  0  0.572939  0.632472  0  2.525663  0
Cd  Cd5  1  0.30912958  0.81494068  0.83739126  1  0  0.844481  0  2.020468  0  0  0.665221  0  2.499957  0  0  0.71201  0  2.461565  0  0  0.572948  0.632463  0  2.525731  0
Cd  Cd6  1  0.19087041  0.31493937  0.16260840  1  0  0.844467  0  2.020444  0  0  0.665211  0  2.499933  0  0  0.712001  0  2.461542  0  0  0.572931  0.632452  0  2.525704  0
Cd  Cd7  1  0.30912921  0.18506081  0.66260866  1  0  0.844475  0  2.020426  0  0  0.665224  0  2.499887  0  0  0.712014  0  2.461497  0  0  0.572939  0.632464  0  2.525664  0
H  H8  1  0.17368844  0.51778214  0.54405244  1  0  0.296181  0  0.928602  0  0  0.272222  0  1.004945  0  0  0.281039  0  0.998303  0  0  0.283951  0.265912  0  1.009832  0
H  H9  1  0.32631187  0.98221810  0.04405344  1  0  0.296191  0  0.928614  0  0  0.272233  0  1.004954  0  0  0.281049  0  0.998313  0  0  0.283965  0.265923  0  1.009843  0
H  H10  1  0.17368781  0.48221857  0.95594762  1  0  0.296175  0  0.928639  0  0  0.272221  0  1.004971  0  0  0.281034  0  0.998337  0  0  0.283948  0.26591  0  1.009858  0
H  H11  1  0.32631337  0.01778067  0.45594723  1  0  0.296165  0  0.928627  0  0  0.272207  0  1.004965  0  0  0.281021  0  0.99833  0  0  0.283966  0.265896  0  1.009851  0
H  H12  1  0.82631311  0.48221826  0.45594697  1  0  0.296178  0  0.928621  0  0  0.272225  0  1.004955  0  0  0.281037  0  0.998321  0  0  0.283977  0.265914  0  1.009843  0
H  H13  1  0.67368468  0.01778046  0.95594667  1  0  0.296191  0  0.928542  0  0  0.272214  0  1.004933  0  0  0.281031  0  0.99829  0  0  0.283956  0.265903  0  1.009822  0
H  H14  1  0.82631375  0.51778091  0.04405320  1  0  0.296195  0  0.928559  0  0  0.272228  0  1.004935  0  0  0.281044  0  0.998293  0  0  0.283974  0.265913  0  1.009823  0
H  H15  1  0.67368818  0.98221882  0.54405359  1  0  0.296196  0  0.928612  0  0  0.272245  0  1.004941  0  0  0.281058  0  0.998306  0  0  0.283979  0.265934  0  1.009828  0
H  H16  1  0.40579870  0.62013349  0.64656409  1  0  0.109467  0  0.928441  0  0  0.117196  0  0.994258  0  0  0.119993  0  0.990717  0  0  0.13418  0.115021  0  0.996998  0
H  H17  1  0.09420253  0.87986582  0.14656463  1  0  0.109422  0  0.928439  0  0  0.117154  0  0.994257  0  0  0.119951  0  0.990716  0  0  0.134159  0.114981  0  0.996999  0
H  H18  1  0.40579734  0.37986790  0.85343644  1  0  0.109423  0  0.928439  0  0  0.117157  0  0.994254  0  0  0.119954  0  0.990714  0  0  0.134161  0.114983  0  0.996996  0
H  H19  1  0.09420417  0.12013135  0.35343557  1  0  0.109423  0  0.928445  0  0  0.117163  0  0.994254  0  0  0.11996  0  0.990714  0  0  0.134156  0.114988  0  0.996997  0
H  H20  1  0.59420411  0.37986691  0.35343531  1  0  0.109432  0  0.928445  0  0  0.117138  0  0.994288  0  0  0.119934  0  0.990749  0  0  0.134164  0.114964  0  0.99703  0
H  H21  1  0.90579652  0.12013182  0.85343619  1  0  0.10946  0  0.928421  0  0  0.117168  0  0.994254  0  0  0.119965  0  0.990715  0  0  0.134165  0.114995  0  0.996996  0
H  H22  1  0.59420422  0.62013158  0.14656438  1  0  0.109453  0  0.928429  0  0  0.117189  0  0.994248  0  0  0.119988  0  0.990705  0  0  0.134164  0.115015  0  0.996991  0
H  H23  1  0.90579613  0.87986814  0.64656454  1  0  0.109415  0  0.92845  0  0  0.117175  0  0.994245  0  0  0.119972  0  0.990702  0  0  0.134159  0.115  0  0.996987  0
C  C24  1  0.00155815  0.58767441  0.64729366  1  0  0.36606  0  3.800541  0  0  0.329291  0  4.091175  0  0  0.348557  0  4.103929  0  0  0.206481  0.316314  0  4.082366  0
C  C25  1  0.49844183  0.91232582  0.14729308  1  0  0.366143  0  3.800493  0  0  0.329381  0  4.091113  0  0  0.34865  0  4.103863  0  0  0.206498  0.316406  0  4.082308  0
C  C26  1  0.00155924  0.41232556  0.85270728  1  0  0.366246  0  3.800451  0  0  0.329466  0  4.0911  0  0  0.348734  0  4.10385  0  0  0.206538  0.31649  0  4.082292  0
C  C27  1  0.49844228  0.08767460  0.35270742  1  0  0.366127  0  3.800545  0  0  0.329369  0  4.091172  0  0  0.348636  0  4.103925  0  0  0.206521  0.316392  0  4.082366  0
C  C28  1  0.99844341  0.41232416  0.35270646  1  0  0.36615  0  3.800512  0  0  0.3294  0  4.091137  0  0  0.348668  0  4.10389  0  0  0.206542  0.316424  0  4.08233  0
C  C29  1  0.50155597  0.08767458  0.85270562  1  0  0.366102  0  3.800464  0  0  0.329323  0  4.091113  0  0  0.348589  0  4.103867  0  0  0.206504  0.316347  0  4.082305  0
C  C30  1  0.99844232  0.58767576  0.14729283  1  0  0.366143  0  3.800465  0  0  0.329372  0  4.091118  0  0  0.348643  0  4.103866  0  0  0.206535  0.316396  0  4.08231  0
C  C31  1  0.50155802  0.91232488  0.64729340  1  0  0.366202  0  3.800433  0  0  0.329447  0  4.091046  0  0  0.348714  0  4.103797  0  0  0.206545  0.316471  0  4.082238  0
C  C32  1  0.27216480  0.62057978  0.66092635  1  0  0.243287  0  3.629181  0  0  0.176743  0  3.905258  0  0  0.192596  0  3.915147  0  0  0.159616  0.166344  0  3.898513  0
C  C33  1  0.22783513  0.87942045  0.16092604  1  0  0.243476  0  3.629046  0  0  0.176935  0  3.905119  0  0  0.192789  0  3.915005  0  0  0.159704  0.166535  0  3.898379  0
C  C34  1  0.27216474  0.37942175  0.83907361  1  0  0.243448  0  3.629067  0  0  0.176903  0  3.905148  0  0  0.192757  0  3.915035  0  0  0.15969  0.166503  0  3.898406  0
C  C35  1  0.22783682  0.12057842  0.33907402  1  0  0.243402  0  3.629071  0  0  0.176847  0  3.905151  0  0  0.192701  0  3.91504  0  0  0.159692  0.166448  0  3.89841  0
C  C36  1  0.72783676  0.37942063  0.33907377  1  0  0.243428  0  3.629089  0  0  0.176907  0  3.905166  0  0  0.192764  0  3.91505  0  0  0.159717  0.166507  0  3.898424  0
C  C37  1  0.77216266  0.12057903  0.83907407  1  0  0.243282  0  3.62912  0  0  0.176773  0  3.905193  0  0  0.192626  0  3.91508  0  0  0.159668  0.166373  0  3.898451  0
C  C38  1  0.72783682  0.62057865  0.16092650  1  0  0.243255  0  3.629112  0  0  0.176715  0  3.905197  0  0  0.192571  0  3.915084  0  0  0.159647  0.166315  0  3.898454  0
C  C39  1  0.77216473  0.87942199  0.66092609  1  0  0.24346  0  3.629091  0  0  0.176895  0  3.905168  0  0  0.19275  0  3.915056  0  0  0.159704  0.166496  0  3.898428  0
S  S40  1  0.80747410  0.54050598  0.60936935  1  0  -0.46382  0  2.178592  0  0  -0.428988  0  2.548096  0  0  -0.448  0  2.539354  0  0  -0.208213  -0.415472  0  2.554144  0
S  S41  1  0.69252386  0.95949466  0.10936767  1  0  -0.463879  0  2.178594  0  0  -0.42904  0  2.548104  0  0  -0.448057  0  2.539362  0  0  -0.208221  -0.415522  0  2.554157  0
S  S42  1  0.80747623  0.45949500  0.89063148  1  0  -0.463885  0  2.178558  0  0  -0.429036  0  2.548071  0  0  -0.44805  0  2.539327  0  0  -0.208217  -0.415519  0  2.554116  0
S  S43  1  0.69252554  0.04050556  0.39063123  1  0  -0.463854  0  2.178596  0  0  -0.429029  0  2.548099  0  0  -0.448041  0  2.539357  0  0  -0.208223  -0.415511  0  2.554149  0
S  S44  1  0.19252621  0.45949443  0.39063006  1  0  -0.463867  0  2.178619  0  0  -0.429039  0  2.548118  0  0  -0.448053  0  2.539375  0  0  -0.20822  -0.415523  0  2.554167  0
S  S45  1  0.30747142  0.04050574  0.89062963  1  0  -0.463826  0  2.178524  0  0  -0.428985  0  2.548032  0  0  -0.447998  0  2.539289  0  0  -0.208185  -0.415469  0  2.554084  0
S  S46  1  0.19252533  0.54050540  0.10937004  1  0  -0.46388  0  2.178577  0  0  -0.429041  0  2.548087  0  0  -0.448054  0  2.539345  0  0  -0.208236  -0.415526  0  2.554135  0
S  S47  1  0.30747476  0.95949392  0.60936959  1  0  -0.463866  0  2.178585  0  0  -0.429043  0  2.548084  0  0  -0.448055  0  2.539343  0  0  -0.208221  -0.415526  0  2.554132  0
Br  Br48  1  0.01020882  0.18115150  0.55463531  1  0  -0.482845  0  1.077576  0  0  -0.415362  0  1.408154  0  0  -0.435693  0  1.384999  0  0  -0.270739  -0.400674  0  1.424347  0
Br  Br49  1  0.48977987  0.31884686  0.05463897  1  0  -0.482856  0  1.077604  0  0  -0.415381  0  1.408193  0  0  -0.43571  0  1.38504  0  0  -0.270745  -0.400692  0  1.424385  0
Br  Br50  1  0.01022012  0.81884663  0.94536139  1  0  -0.482845  0  1.077615  0  0  -0.415367  0  1.408207  0  0  -0.435695  0  1.38505  0  0  -0.270738  -0.400679  0  1.424399  0
Br  Br51  1  0.48979143  0.68115266  0.44536506  1  0  -0.482862  0  1.077593  0  0  -0.415382  0  1.408172  0  0  -0.43571  0  1.385017  0  0  -0.270753  -0.400695  0  1.424363  0
Br  Br52  1  0.98978020  0.81884798  0.44536128  1  0  -0.482862  0  1.077604  0  0  -0.415393  0  1.408205  0  0  -0.435719  0  1.385046  0  0  -0.270748  -0.400705  0  1.424396  0
Br  Br53  1  0.51020790  0.68115170  0.94536467  1  0  -0.482864  0  1.077562  0  0  -0.415382  0  1.40814  0  0  -0.435711  0  1.384988  0  0  -0.270753  -0.400693  0  1.424332  0
Br  Br54  1  0.98978018  0.18115378  0.05463872  1  0  -0.482825  0  1.077584  0  0  -0.415353  0  1.408183  0  0  -0.435683  0  1.38503  0  0  -0.270729  -0.400664  0  1.424375  0
Br  Br55  1  0.51020888  0.31884866  0.55463505  1  0  -0.48286  0  1.077575  0  0  -0.415375  0  1.408141  0  0  -0.435703  0  1.384984  0  0  -0.270747  -0.400686  0  1.424333  0
N  N56  1  0.19724234  0.67677874  0.73204887  1  0  -0.252821  0  3.213688  0  0  -0.186944  0  3.499033  0  0  -0.203942  0  3.51813  0  0  -0.255385  -0.175404  0  3.485757  0
N  N57  1  0.30275736  0.82322240  0.23204919  1  0  -0.2529  0  3.21368  0  0  -0.187032  0  3.499052  0  0  -0.204028  0  3.518146  0  0  -0.255429  -0.175488  0  3.485777  0
N  N58  1  0.19724262  0.32322195  0.76795117  1  0  -0.252886  0  3.213702  0  0  -0.187011  0  3.499071  0  0  -0.204009  0  3.518167  0  0  -0.255433  -0.175471  0  3.485799  0
N  N59  1  0.30275792  0.17677731  0.26795080  1  0  -0.252874  0  3.213643  0  0  -0.186988  0  3.499011  0  0  -0.203984  0  3.518106  0  0  -0.255427  -0.175447  0  3.485739  0
N  N60  1  0.80275922  0.32322167  0.26795054  1  0  -0.252884  0  3.213631  0  0  -0.186993  0  3.498978  0  0  -0.203991  0  3.518071  0  0  -0.25544  -0.175453  0  3.485706  0
N  N61  1  0.69724169  0.17677800  0.76795021  1  0  -0.252756  0  3.213654  0  0  -0.186886  0  3.498997  0  0  -0.203883  0  3.518093  0  0  -0.255371  -0.175343  0  3.485721  0
N  N62  1  0.80275769  0.67677845  0.23204965  1  0  -0.252792  0  3.213668  0  0  -0.186905  0  3.499001  0  0  -0.203902  0  3.518097  0  0  -0.255399  -0.175364  0  3.485728  0
N  N63  1  0.69724238  0.82322218  0.73204932  1  0  -0.252915  0  3.213707  0  0  -0.187047  0  3.49909  0  0  -0.204045  0  3.518185  0  0  -0.255444  -0.175506  0  3.485817  0
N  N64  1  0.02782433  0.65665302  0.72391454  1  0  -0.321247  0  3.117896  0  0  -0.259949  0  3.391148  0  0  -0.27816  0  3.41031  0  0  -0.256909  -0.247732  0  3.378021  0
N  N65  1  0.47217665  0.84334721  0.22391399  1  0  -0.321286  0  3.117882  0  0  -0.259987  0  3.391129  0  0  -0.278198  0  3.410288  0  0  -0.256911  -0.247767  0  3.378001  0
N  N66  1  0.02782455  0.34334876  0.77608566  1  0  -0.321322  0  3.117943  0  0  -0.260034  0  3.391229  0  0  -0.278246  0  3.410389  0  0  -0.256923  -0.247817  0  3.378105  0
N  N67  1  0.47217722  0.15665233  0.27608583  1  0  -0.321281  0  3.117912  0  0  -0.260011  0  3.391192  0  0  -0.278223  0  3.410353  0  0  -0.256926  -0.247794  0  3.378068  0
N  N68  1  0.97217723  0.34334830  0.27608557  1  0  -0.3213  0  3.117942  0  0  -0.260027  0  3.391212  0  0  -0.278236  0  3.410372  0  0  -0.256938  -0.247809  0  3.378086  0
N  N69  1  0.52782365  0.15665411  0.77608541  1  0  -0.321317  0  3.117899  0  0  -0.260013  0  3.391164  0  0  -0.278224  0  3.410324  0  0  -0.256931  -0.247794  0  3.378037  0
N  N70  1  0.97217576  0.65665164  0.22391445  1  0  -0.321312  0  3.117929  0  0  -0.260015  0  3.391197  0  0  -0.278225  0  3.410355  0  0  -0.256926  -0.247798  0  3.378072  0
N  N71  1  0.52782434  0.84334715  0.72391499  1  0  -0.321281  0  3.117826  0  0  -0.259988  0  3.391089  0  0  -0.278198  0  3.410248  0  0  -0.256909  -0.24777  0  3.377963  0
N  N72  1  0.15490475  0.56378228  0.60727753  1  0  -0.338711  0  3.396215  0  0  -0.269393  0  3.628484  0  0  -0.288366  0  3.638224  0  0  -0.36593  -0.256738  0  3.621827  0
N  N73  1  0.34509661  0.93621795  0.10727710  1  0  -0.338813  0  3.396256  0  0  -0.269505  0  3.628537  0  0  -0.288479  0  3.638278  0  0  -0.36596  -0.256848  0  3.621885  0
N  N74  1  0.15490441  0.43621937  0.89272325  1  0  -0.338827  0  3.396259  0  0  -0.269511  0  3.628547  0  0  -0.288484  0  3.63829  0  0  -0.365954  -0.256855  0  3.621891  0
N  N75  1  0.34509698  0.06377988  0.39272284  1  0  -0.338724  0  3.396235  0  0  -0.269407  0  3.628504  0  0  -0.288381  0  3.638252  0  0  -0.365951  -0.256749  0  3.621846  0
N  N76  1  0.84509681  0.43621996  0.39272188  1  0  -0.338762  0  3.396252  0  0  -0.269459  0  3.628529  0  0  -0.288435  0  3.638278  0  0  -0.365982  -0.256802  0  3.621872  0
N  N77  1  0.65490119  0.06378061  0.89272230  1  0  -0.338738  0  3.396194  0  0  -0.269418  0  3.628471  0  0  -0.288393  0  3.638214  0  0  -0.365995  -0.256762  0  3.621815  0
N  N78  1  0.84509715  0.56377920  0.10727827  1  0  -0.338681  0  3.396153  0  0  -0.269398  0  3.628474  0  0  -0.288377  0  3.638222  0  0  -0.365965  -0.256736  0  3.621823  0
N  N79  1  0.65490333  0.93621961  0.60727797  1  0  -0.338833  0  3.396272  0  0  -0.26954  0  3.628575  0  0  -0.288515  0  3.638322  0  0  -0.36601  -0.256884  0  3.621919  0
