# generated using pymatgen
data_ZnH24C32N2(ClO)2
_symmetry_space_group_name_H-M   'P 1'
_cell_length_a   11.22598415
_cell_length_b   16.11446077
_cell_length_c   19.55317096
_cell_angle_alpha   89.99986824
_cell_angle_beta   89.99953016
_cell_angle_gamma   90.00020006
_symmetry_Int_Tables_number   1
_chemical_formula_structural   ZnH24C32N2(ClO)2
_chemical_formula_sum   'Zn4 H96 C128 N8 Cl8 O8'
_cell_volume   3537.18194537
_cell_formula_units_Z   4
loop_
 _symmetry_equiv_pos_site_id
 _symmetry_equiv_pos_as_xyz
  1  'x, y, z'
loop_
 _atom_site_type_symbol
 _atom_site_label
 _atom_site_symmetry_multiplicity
 _atom_site_fract_x
 _atom_site_fract_y
 _atom_site_fract_z
 _atom_site_occupancy
 _atom_site_pbe_bader_charge
 _atom_site_pbe_bader_spin_density
 _atom_site_pbe_cm5_charge
 _atom_site_pbe_ddec_charge
 _atom_site_pbe_ddec_spin_density
 _atom_site_pbe_ddec_sum_bond_order
 _atom_site_pbe_magmom
Zn  Zn0  1  0.56059020  0.25805453  0.50592968  1  1.121502  0  0.553166  0.624212  0  2.677382  0
Zn  Zn1  1  0.93940632  0.74194529  0.00593167  1  1.121511  0  0.553148  0.624238  0  2.677445  0
Zn  Zn2  1  0.43940750  0.75805554  0.99407026  1  1.121502  0  0.553171  0.624192  0  2.677464  0
Zn  Zn3  1  0.06059221  0.24194419  0.49407039  1  1.121523  0  0.553169  0.62422  0  2.677451  0
H  H4  1  0.06972848  0.49204248  0.53728000  1  0.110311  0  0.096256  0.089292  0  1.021764  0
H  H5  1  0.43027331  0.50795914  0.03727942  1  0.110287  0  0.096234  0.089262  0  1.02177  0
H  H6  1  0.93026773  0.99204601  0.96272103  1  0.110353  0  0.096237  0.089258  0  1.021588  0
H  H7  1  0.56972761  0.00795439  0.46271951  1  0.110464  0  0.096253  0.089311  0  1.021758  0
H  H8  1  0.16987207  0.57434815  0.56133614  1  0.06854  0  0.099318  0.064866  0  1.030287  0
H  H9  1  0.33012759  0.42565278  0.06133772  1  0.068517  0  0.099324  0.064855  0  1.030318  0
H  H10  1  0.83012292  0.07435155  0.93866414  1  0.068491  0  0.099358  0.06491  0  1.030253  0
H  H11  1  0.66987454  0.92565078  0.43866297  1  0.068504  0  0.099342  0.06486  0  1.030236  0
H  H12  1  0.32149203  0.49275136  0.61656169  1  0.100552  0  0.103547  0.111924  0  1.038414  0
H  H13  1  0.17850951  0.50725004  0.11656485  1  0.10048  0  0.103571  0.111927  0  1.03844  0
H  H14  1  0.67850863  0.99275326  0.88343934  1  0.100667  0  0.103559  0.111914  0  1.038444  0
H  H15  1  0.82149318  0.00724737  0.38343766  1  0.10051  0  0.103533  0.111881  0  1.038444  0
H  H16  1  0.48013181  0.38389592  0.60687808  1  0.149433  0  0.108397  0.085689  0  1.018889  0
H  H17  1  0.01986720  0.61610426  0.10688229  1  0.149379  0  0.108425  0.085744  0  1.018838  0
H  H18  1  0.51987097  0.88389430  0.89312060  1  0.149418  0  0.108403  0.085664  0  1.018971  0
H  H19  1  0.98013337  0.11610381  0.39311950  1  0.149375  0  0.108369  0.08565  0  1.018902  0
H  H20  1  0.37041349  0.31990943  0.41170698  1  0.097605  0  0.112557  0.090166  0  1.001446  0
H  H21  1  0.12958561  0.68009239  0.91171000  1  0.097853  0  0.11252  0.090099  0  1.001439  0
H  H22  1  0.62958632  0.81990769  0.08829237  1  0.097781  0  0.112549  0.090159  0  1.00144  0
H  H23  1  0.87040902  0.18009376  0.58828958  1  0.097841  0  0.112584  0.090203  0  1.001423  0
H  H24  1  0.20881545  0.42671144  0.41256595  1  0.11244  0  0.109567  0.125129  0  1.009398  0
H  H25  1  0.29118364  0.57329037  0.91256738  1  0.112227  0  0.10957  0.125161  0  1.009325  0
H  H26  1  0.79118134  0.92671258  0.08743474  1  0.112558  0  0.109585  0.125163  0  1.009364  0
H  H27  1  0.70880867  0.07329259  0.58743086  1  0.112159  0  0.10956  0.12518  0  1.009294  0
H  H28  1  0.94588849  0.70394553  0.25724797  1  0.094259  0  0.091638  0.096404  0  1.039376  0
H  H29  1  0.55411423  0.29605420  0.75724797  1  0.094275  0  0.091646  0.096409  0  1.039416  0
H  H30  1  0.05411163  0.20394636  0.24275110  1  0.094298  0  0.091654  0.096428  0  1.039391  0
H  H31  1  0.44588099  0.79605096  0.74275189  1  0.094362  0  0.091653  0.096395  0  1.039421  0
H  H32  1  0.77213930  0.79192348  0.23519662  1  0.069616  0  0.090466  0.099014  0  1.027312  0
H  H33  1  0.72786286  0.20807508  0.73519700  1  0.069596  0  0.090481  0.099037  0  1.027297  0
H  H34  1  0.22786127  0.29192528  0.26480176  1  0.069593  0  0.090489  0.099035  0  1.027352  0
H  H35  1  0.27213548  0.70806764  0.76480098  1  0.069559  0  0.090458  0.098995  0  1.027255  0
H  H36  1  0.63895842  0.83683315  0.33137055  1  0.031355  0  0.093359  0.086504  0  1.020536  0
H  H37  1  0.86104325  0.16316762  0.83137141  1  0.031362  0  0.09337  0.086548  0  1.020482  0
H  H38  1  0.36104238  0.33683679  0.16862723  1  0.031299  0  0.093378  0.086498  0  1.020483  0
H  H39  1  0.13895932  0.66315701  0.66862614  1  0.031287  0  0.093374  0.08645  0  1.020512  0
H  H40  1  0.68091813  0.78844917  0.44998451  1  0.060838  0  0.096583  0.096571  0  1.031346  0
H  H41  1  0.81908006  0.21155375  0.94998496  1  0.060054  0  0.096568  0.096561  0  1.031372  0
H  H42  1  0.31907974  0.28845303  0.05001439  1  0.061083  0  0.096574  0.09651  0  1.031446  0
H  H43  1  0.18092008  0.71154731  0.55001404  1  0.061074  0  0.096575  0.096505  0  1.031433  0
H  H44  1  0.80546413  0.71173860  0.53087808  1  0.087954  0  0.099638  0.102404  0  1.019399  0
H  H45  1  0.69453560  0.28826486  0.03087748  1  0.088026  0  0.099653  0.102405  0  1.019374  0
H  H46  1  0.19453958  0.21173728  0.96912041  1  0.087903  0  0.099695  0.10246  0  1.019414  0
H  H47  1  0.30546316  0.78826252  0.46912193  1  0.087953  0  0.099675  0.102432  0  1.019408  0
H  H48  1  0.97522880  0.61870681  0.55415890  1  0.054203  0  0.102079  0.109509  0  1.027035  0
H  H49  1  0.52476971  0.38129597  0.05415842  1  0.054192  0  0.10204  0.109415  0  1.027139  0
H  H50  1  0.02477266  0.11870514  0.94584079  1  0.054183  0  0.102068  0.109466  0  1.027061  0
H  H51  1  0.47522864  0.88129534  0.44584133  1  0.054202  0  0.102073  0.109452  0  1.027106  0
H  H52  1  0.04111217  0.37327923  0.32396951  1  0.114888  0  0.099086  0.084428  0  1.031422  0
H  H53  1  0.45889176  0.62672469  0.82396954  1  0.114874  0  0.099073  0.084434  0  1.031441  0
H  H54  1  0.95889237  0.87328052  0.17603281  1  0.114782  0  0.099092  0.084462  0  1.031348  0
H  H55  1  0.54110974  0.12672192  0.67603167  1  0.114716  0  0.09906  0.084447  0  1.031326  0
H  H56  1  0.93682571  0.39530348  0.25737767  1  0.081988  0  0.107791  0.083973  0  0.956818  0
H  H57  1  0.56317791  0.60469625  0.75737807  1  0.0822  0  0.107815  0.084005  0  0.956829  0
H  H58  1  0.06317984  0.89530615  0.24262461  1  0.082132  0  0.107882  0.084071  0  0.956739  0
H  H59  1  0.43681991  0.10469366  0.74262267  1  0.082195  0  0.107836  0.084052  0  0.956762  0
H  H60  1  0.85114228  0.48399306  0.42307981  1  0.140995  0  0.110342  0.123478  0  1.015468  0
H  H61  1  0.64886253  0.51600436  0.92307742  1  0.141004  0  0.110342  0.123497  0  1.015494  0
H  H62  1  0.14886193  0.98399577  0.07692230  1  0.140972  0  0.11035  0.123515  0  1.0155  0
H  H63  1  0.35113840  0.01600388  0.57692144  1  0.140954  0  0.110325  0.123463  0  1.015515  0
H  H64  1  0.69918251  0.41868745  0.49978748  1  0.082445  0  0.118783  0.08871  0  0.976674  0
H  H65  1  0.80081764  0.58130975  0.99978630  1  0.082444  0  0.118788  0.08871  0  0.976607  0
H  H66  1  0.30081603  0.91868950  0.00021271  1  0.08242  0  0.118737  0.088692  0  0.976697  0
H  H67  1  0.19918184  0.08130912  0.50021346  1  0.082412  0  0.118744  0.088702  0  0.976641  0
H  H68  1  0.69271387  0.20366644  0.38410877  1  0.128401  0  0.103865  0.075035  0  1.05113  0
H  H69  1  0.80728348  0.79633418  0.88411175  1  0.128353  0  0.103902  0.075106  0  1.05114  0
H  H70  1  0.30728358  0.70366757  0.11589030  1  0.128459  0  0.103859  0.07501  0  1.051084  0
H  H71  1  0.19271798  0.29633259  0.61588914  1  0.12848  0  0.103881  0.075098  0  1.051017  0
H  H72  1  0.84890756  0.25785596  0.30455296  1  0.068398  0  0.10595  0.115271  0  1.02179  0
H  H73  1  0.65109449  0.74214613  0.80455422  1  0.068731  0  0.105933  0.115242  0  1.021846  0
H  H74  1  0.15109283  0.75785710  0.19544753  1  0.068433  0  0.105931  0.115261  0  1.021758  0
H  H75  1  0.34890937  0.24214470  0.69544472  1  0.068446  0  0.105963  0.115288  0  1.021748  0
H  H76  1  0.16672856  0.76476869  0.36723446  1  0.052842  0  0.096821  0.096232  0  1.022286  0
H  H77  1  0.33327653  0.23523077  0.86723378  1  0.052834  0  0.096805  0.096191  0  1.022232  0
H  H78  1  0.83327454  0.26476860  0.13276449  1  0.052829  0  0.096795  0.096173  0  1.022275  0
H  H79  1  0.66672373  0.73522837  0.63276774  1  0.053275  0  0.096785  0.096183  0  1.022234  0
H  H80  1  0.35276612  0.83660444  0.33337551  1  0.049773  0  0.09765  0.094401  0  0.997013  0
H  H81  1  0.14723856  0.16339574  0.83337635  1  0.049802  0  0.097634  0.094427  0  0.997004  0
H  H82  1  0.64723467  0.33660195  0.16662331  1  0.049831  0  0.097639  0.09441  0  0.997036  0
H  H83  1  0.85276134  0.66339369  0.66662632  1  0.049776  0  0.097633  0.094438  0  0.996941  0
H  H84  1  0.49732934  0.76783481  0.25397839  1  0.058228  0  0.09893  0.09937  0  1.006666  0
H  H85  1  0.00267291  0.23216620  0.75398132  1  0.058366  0  0.098936  0.099409  0  1.006597  0
H  H86  1  0.50266932  0.26783051  0.24601902  1  0.058336  0  0.098942  0.099407  0  1.006579  0
H  H87  1  0.99732644  0.73216615  0.74602071  1  0.058303  0  0.098922  0.099399  0  1.006635  0
H  H88  1  0.45510495  0.62780098  0.20889028  1  0.085471  0  0.097805  0.103512  0  1.011012  0
H  H89  1  0.04489973  0.37220079  0.70889121  1  0.085508  0  0.097821  0.103563  0  1.010962  0
H  H90  1  0.54489568  0.12779603  0.29110790  1  0.085123  0  0.097802  0.103526  0  1.011077  0
H  H91  1  0.95509944  0.87220051  0.79111004  1  0.085506  0  0.097837  0.10358  0  1.010989  0
H  H92  1  0.32698048  0.50323072  0.20555927  1  0.042002  0  0.100275  0.098754  0  1.004197  0
H  H93  1  0.17302692  0.49676794  0.70555732  1  0.042918  0  0.10029  0.098784  0  1.004197  0
H  H94  1  0.67302219  0.00322856  0.29444068  1  0.042764  0  0.100273  0.098794  0  1.00413  0
H  H95  1  0.82697288  0.99676673  0.79444472  1  0.042942  0  0.100291  0.098767  0  1.004185  0
H  H96  1  0.14142307  0.43066209  0.23745691  1  0.08519  0  0.099321  0.105726  0  1.059286  0
H  H97  1  0.35858209  0.56933897  0.73745547  1  0.085192  0  0.099321  0.105761  0  1.059188  0
H  H98  1  0.85858176  0.93066228  0.26254479  1  0.085229  0  0.099337  0.105763  0  1.059205  0
H  H99  1  0.64141822  0.06933744  0.76254431  1  0.085248  0  0.099297  0.105723  0  1.059223  0
C  C100  1  0.14968692  0.52759514  0.52194007  1  0.414083  0  -0.062669  -0.031227  0  3.906384  0
C  C101  1  0.35031330  0.47240528  0.02194146  1  0.414055  0  -0.062643  -0.03111  0  3.90615  0
C  C102  1  0.85030962  0.02759786  0.97805980  1  0.414069  0  -0.062666  -0.031188  0  3.906128  0
C  C103  1  0.64968728  0.97240374  0.47805914  1  0.413869  0  -0.062638  -0.031154  0  3.906253  0
C  C104  1  0.25138748  0.46804069  0.51527038  1  -0.000288  0  0.015009  0.148501  0  3.936371  0
C  C105  1  0.24861195  0.53196037  0.01527214  1  -0.000336  0  0.015016  0.148451  0  3.936144  0
C  C106  1  0.74861039  0.96804372  0.98473069  1  -0.000483  0  0.015019  0.148426  0  3.936476  0
C  C107  1  0.75138553  0.03195849  0.48472828  1  -0.000245  0  0.015059  0.148583  0  3.936275  0
C  C108  1  0.32974901  0.45635865  0.56994062  1  -0.033996  0  -0.085601  -0.180305  0  3.947237  0
C  C109  1  0.17025231  0.54364287  0.06994375  1  -0.034052  0  -0.085544  -0.180137  0  3.947091  0
C  C110  1  0.67025058  0.95635916  0.93005945  1  -0.034125  0  -0.085617  -0.180278  0  3.947336  0
C  C111  1  0.82974790  0.04364195  0.43005766  1  -0.034079  0  -0.085606  -0.180259  0  3.947216  0
C  C112  1  0.41826853  0.39663663  0.56507732  1  0.398057  0  0.042561  0.092426  0  3.951464  0
C  C113  1  0.08173108  0.60336429  0.06508280  1  0.398441  0  0.042476  0.092279  0  3.95143  0
C  C114  1  0.58173165  0.89663691  0.93492184  1  0.398037  0  0.042503  0.092394  0  3.951462  0
C  C115  1  0.91826853  0.10336295  0.43492004  1  0.398567  0  0.042566  0.092444  0  3.951325  0
C  C116  1  0.35793331  0.36118967  0.45531371  1  0.51197  0  0.048639  0.100075  0  3.929516  0
C  C117  1  0.14206606  0.63881141  0.95531777  1  0.511817  0  0.048631  0.10012  0  3.929603  0
C  C118  1  0.64206671  0.86118994  0.04468608  1  0.51163  0  0.04865  0.10007  0  3.929473  0
C  C119  1  0.85792836  0.13881349  0.54468291  1  0.511838  0  0.048669  0.100058  0  3.929448  0
C  C120  1  0.26736767  0.41991631  0.45649731  1  -0.007086  0  -0.077534  -0.161465  0  3.924095  0
C  C121  1  0.23263080  0.58008538  0.95650105  1  -0.006749  0  -0.077602  -0.161569  0  3.924054  0
C  C122  1  0.73262998  0.91991805  0.04350288  1  -0.00686  0  -0.077587  -0.161499  0  3.924091  0
C  C123  1  0.76736334  0.08008538  0.54349973  1  -0.00684  0  -0.077623  -0.16164  0  3.923981  0
C  C124  1  0.03501354  0.61645442  0.44807704  1  0.450492  0  0.082816  0.20224  0  4.060283  0
C  C125  1  0.46498594  0.38354853  0.94807597  1  0.450481  0  0.082872  0.20233  0  4.060209  0
C  C126  1  0.96498525  0.11645550  0.05192270  1  0.45034  0  0.082851  0.202278  0  4.060094  0
C  C127  1  0.53501240  0.88354604  0.55192322  1  0.450925  0  0.082832  0.202288  0  4.06019  0
C  C128  1  0.01587278  0.64356493  0.38119225  1  0.052087  0  -0.019634  -0.076806  0  3.987866  0
C  C129  1  0.48412943  0.35643636  0.88119166  1  0.052261  0  -0.019665  -0.076848  0  3.987993  0
C  C130  1  0.98412971  0.14356587  0.11880692  1  0.05241  0  -0.019702  -0.076886  0  3.98804  0
C  C131  1  0.51586965  0.85643363  0.61880707  1  0.05219  0  -0.019664  -0.076772  0  3.987978  0
C  C132  1  0.91717217  0.69606795  0.36714326  1  -0.024295  0  -0.004692  0.050309  0  3.972951  0
C  C133  1  0.58282810  0.30393396  0.86714414  1  -0.02424  0  -0.004627  0.050356  0  3.972909  0
C  C134  1  0.08282881  0.19606977  0.13285531  1  -0.024111  0  -0.004605  0.050384  0  3.973126  0
C  C135  1  0.41716894  0.80393096  0.63285622  1  -0.024373  0  -0.004655  0.050291  0  3.972976  0
C  C136  1  0.88994125  0.72370964  0.29984628  1  -0.045151  0  -0.096907  -0.132918  0  3.974637  0
C  C137  1  0.61005819  0.27629122  0.79984606  1  -0.0451  0  -0.096919  -0.132911  0  3.974563  0
C  C138  1  0.11005808  0.22371134  0.20015172  1  -0.045157  0  -0.096933  -0.132973  0  3.974806  0
C  C139  1  0.38993782  0.77628672  0.70015281  1  -0.044858  0  -0.096949  -0.133014  0  3.97476  0
C  C140  1  0.79209793  0.77333143  0.28760600  1  -0.057613  0  -0.100021  -0.084218  0  4.032743  0
C  C141  1  0.70790437  0.22666884  0.78760695  1  -0.057687  0  -0.100108  -0.084345  0  4.032798  0
C  C142  1  0.20790344  0.27333333  0.21239345  1  -0.057543  0  -0.100085  -0.084324  0  4.032806  0
C  C143  1  0.29209407  0.72666221  0.71239203  1  -0.057531  0  -0.100032  -0.084183  0  4.032826  0
C  C144  1  0.71664408  0.79817044  0.34195539  1  -0.065126  0  -0.10699  -0.109445  0  4.069636  0
C  C145  1  0.78335565  0.20183030  0.84195399  1  -0.065146  0  -0.107011  -0.109504  0  4.069559  0
C  C146  1  0.28335651  0.29817454  0.15804298  1  -0.065151  0  -0.107043  -0.109384  0  4.069387  0
C  C147  1  0.21664266  0.70182115  0.65804299  1  -0.065204  0  -0.10697  -0.109286  0  4.069552  0
C  C148  1  0.73986645  0.77189026  0.40772321  1  -0.047786  0  -0.094703  -0.129879  0  3.995345  0
C  C149  1  0.76013412  0.22811154  0.90772340  1  -0.047067  0  -0.09468  -0.129835  0  3.995099  0
C  C150  1  0.26013312  0.27189324  0.09227419  1  -0.048062  0  -0.094633  -0.129822  0  3.995181  0
C  C151  1  0.23986521  0.72810574  0.59227557  1  -0.048132  0  -0.094675  -0.12987  0  3.995314  0
C  C152  1  0.83964990  0.72077168  0.42213348  1  -0.011065  0  -0.016213  0.063056  0  4.015552  0
C  C153  1  0.66035047  0.27923132  0.92213506  1  -0.011426  0  -0.016257  0.062974  0  4.01561  0
C  C154  1  0.16035031  0.22077260  0.07786453  1  -0.011502  0  -0.016329  0.062969  0  4.015582  0
C  C155  1  0.33964823  0.77922705  0.57786535  1  -0.010993  0  -0.016303  0.06302  0  4.015548  0
C  C156  1  0.86351541  0.69208309  0.48914508  1  -0.019652  0  -0.089863  -0.108383  0  4.007052  0
C  C157  1  0.63648222  0.30792096  0.98914366  1  -0.019317  0  -0.08978  -0.108287  0  4.007208  0
C  C158  1  0.13648376  0.19208290  0.01085349  1  -0.019182  0  -0.089868  -0.10843  0  4.007201  0
C  C159  1  0.36351484  0.80791755  0.51085465  1  -0.019749  0  -0.089872  -0.108393  0  4.007187  0
C  C160  1  0.95890638  0.64058411  0.50229981  1  -0.108605  0  -0.111842  -0.216965  0  4.060677  0
C  C161  1  0.54109287  0.35941944  0.00229980  1  -0.108535  0  -0.111838  -0.216884  0  4.060748  0
C  C162  1  0.04109518  0.14058419  0.99769933  1  -0.10865  0  -0.111818  -0.216874  0  4.06059  0
C  C163  1  0.45890358  0.85941677  0.49770050  1  -0.10896  0  -0.111792  -0.216869  0  4.060679  0
C  C164  1  0.95886974  0.40785676  0.31145068  1  0.390113  0  -0.055604  -0.019506  0  3.898384  0
C  C165  1  0.54113221  0.59214407  0.81145069  1  0.389728  0  -0.055671  -0.019666  0  3.898356  0
C  C166  1  0.04113497  0.90785828  0.18855158  1  0.389101  0  -0.055645  -0.019591  0  3.898231  0
C  C167  1  0.45886733  0.09214230  0.68854956  1  0.389523  0  -0.055643  -0.019687  0  3.898174  0
C  C168  1  0.86213839  0.37605781  0.35733812  1  0.043213  0  0.014171  0.139649  0  3.938018  0
C  C169  1  0.63786557  0.62394165  0.85733762  1  0.042851  0  0.014211  0.139783  0  3.937783  0
C  C170  1  0.13786438  0.87605969  0.14266266  1  0.043613  0  0.014199  0.139708  0  3.937911  0
C  C171  1  0.36213680  0.12394102  0.64266103  1  0.043886  0  0.014154  0.139731  0  3.93764  0
C  C172  1  0.81835398  0.42174583  0.41265351  1  -0.018748  0  -0.082075  -0.16592  0  3.930918  0
C  C173  1  0.68164920  0.57825347  0.91265186  1  -0.018817  0  -0.082092  -0.166059  0  3.93103  0
C  C174  1  0.18164902  0.92174860  0.08734719  1  -0.018806  0  -0.082044  -0.165971  0  3.930842  0
C  C175  1  0.31835116  0.07825164  0.58734637  1  -0.018811  0  -0.082013  -0.16593  0  3.930786  0
C  C176  1  0.73348085  0.38590581  0.45513329  1  0.430812  0  0.048894  0.103109  0  3.953111  0
C  C177  1  0.76651727  0.61409213  0.95513221  1  0.430802  0  0.048946  0.10325  0  3.953266  0
C  C178  1  0.26651930  0.88590766  0.04486645  1  0.430797  0  0.04893  0.103166  0  3.953148  0
C  C179  1  0.23348149  0.11409146  0.54486698  1  0.430761  0  0.048977  0.103233  0  3.953209  0
C  C180  1  0.73186511  0.26498780  0.39095763  1  0.431012  0  0.040721  0.094895  0  3.948034  0
C  C181  1  0.76813571  0.73501218  0.89095938  1  0.43087  0  0.040652  0.094803  0  3.947861  0
C  C182  1  0.26813354  0.76499009  0.10904234  1  0.431033  0  0.040781  0.094997  0  3.947979  0
C  C183  1  0.23186811  0.23501071  0.60904213  1  0.430866  0  0.040767  0.094893  0  3.947794  0
C  C184  1  0.81773147  0.29593098  0.34693692  1  0.023338  0  -0.084172  -0.176544  0  3.954772  0
C  C185  1  0.68227087  0.70407099  0.84693913  1  0.023629  0  -0.084099  -0.176437  0  3.954615  0
C  C186  1  0.18227001  0.79593294  0.15306299  1  0.023327  0  -0.084208  -0.176623  0  3.954742  0
C  C187  1  0.31773280  0.20406774  0.65306091  1  0.02302  0  -0.084223  -0.176631  0  3.954746  0
C  C188  1  0.07660004  0.53188964  0.30144556  1  0.467085  0  0.084807  0.209848  0  4.050581  0
C  C189  1  0.42340153  0.46811186  0.80144606  1  0.467157  0  0.084756  0.209861  0  4.050569  0
C  C190  1  0.92340456  0.03189083  0.19855434  1  0.467424  0  0.084778  0.20983  0  4.050628  0
C  C191  1  0.57659722  0.96810969  0.69855296  1  0.467185  0  0.084793  0.209833  0  4.05053  0
C  C192  1  0.09754966  0.61113646  0.32743150  1  0.057572  0  -0.017666  -0.070916  0  3.980797  0
C  C193  1  0.40245421  0.38886373  0.82743174  1  0.058322  0  -0.017665  -0.070938  0  3.980824  0
C  C194  1  0.90245444  0.11113768  0.17256825  1  0.057283  0  -0.017626  -0.070828  0  3.980676  0
C  C195  1  0.59754326  0.88886105  0.67256948  1  0.057731  0  -0.017684  -0.070997  0  3.98085  0
C  C196  1  0.20306405  0.65396709  0.30798066  1  -0.068753  0  -0.004726  0.047593  0  3.975924  0
C  C197  1  0.29694189  0.34603315  0.80797892  1  -0.069889  0  -0.00474  0.047619  0  3.975838  0
C  C198  1  0.79693672  0.15396613  0.19201850  1  -0.06879  0  -0.00475  0.04755  0  3.975871  0
C  C199  1  0.70305982  0.84603254  0.69201983  1  -0.069087  0  -0.004772  0.047605  0  3.975819  0
C  C200  1  0.23020022  0.73472002  0.33298158  1  -0.099875  0  -0.098902  -0.147263  0  4.00852  0
C  C201  1  0.26980536  0.26528139  0.83298063  1  -0.099837  0  -0.098759  -0.146995  0  4.008297  0
C  C202  1  0.76980006  0.23471721  0.16701640  1  -0.099895  0  -0.098812  -0.147082  0  4.008479  0
C  C203  1  0.73019505  0.76527905  0.66702083  1  -0.100537  0  -0.098815  -0.147128  0  4.008361  0
C  C204  1  0.33404970  0.77440999  0.31403194  1  0.055585  0  -0.09623  -0.085275  0  4.051542  0
C  C205  1  0.16595793  0.22558961  0.81403258  1  0.055604  0  -0.096328  -0.085526  0  4.051658  0
C  C206  1  0.66595166  0.27440750  0.18596699  1  0.055692  0  -0.096285  -0.085435  0  4.051784  0
C  C207  1  0.83404317  0.72558871  0.68596997  1  0.055485  0  -0.096294  -0.085443  0  4.051609  0
C  C208  1  0.41608906  0.73574550  0.26921604  1  -0.058787  0  -0.100027  -0.096314  0  4.043419  0
C  C209  1  0.08391654  0.26425485  0.76921801  1  -0.059247  0  -0.100079  -0.09633  0  4.043394  0
C  C210  1  0.58391122  0.23574206  0.23078092  1  -0.059322  0  -0.100107  -0.096346  0  4.043454  0
C  C211  1  0.91608297  0.76425402  0.73078396  1  -0.059111  0  -0.100075  -0.096368  0  4.043477  0
C  C212  1  0.39299084  0.65735195  0.24431637  1  -0.109188  0  -0.087986  -0.120612  0  3.978509  0
C  C213  1  0.10701511  0.34264723  0.74431655  1  -0.108669  0  -0.087977  -0.12069  0  3.978583  0
C  C214  1  0.60700994  0.15734849  0.25568227  1  -0.108535  0  -0.087942  -0.120612  0  3.978579  0
C  C215  1  0.89298569  0.84264690  0.75568527  1  -0.108738  0  -0.087939  -0.120651  0  3.978509  0
C  C216  1  0.28726624  0.61458338  0.26292080  1  0.048424  0  -0.015462  0.058599  0  4.014189  0
C  C217  1  0.21274034  0.38541575  0.76291938  1  0.048221  0  -0.015392  0.058672  0  4.014027  0
C  C218  1  0.71273610  0.11458085  0.23707792  1  0.0485  0  -0.015413  0.058675  0  4.014099  0
C  C219  1  0.78725889  0.88541460  0.73708082  1  0.048343  0  -0.015387  0.058701  0  4.01413  0
C  C220  1  0.26234723  0.53351520  0.23901791  1  -0.051508  0  -0.091072  -0.112631  0  4.024297  0
C  C221  1  0.23765790  0.46648586  0.73901519  1  -0.052158  0  -0.091061  -0.112628  0  4.024062  0
C  C222  1  0.73765648  0.03351267  0.26098301  1  -0.052188  0  -0.091035  -0.112682  0  4.02412  0
C  C223  1  0.76234084  0.96648396  0.76098537  1  -0.052438  0  -0.091074  -0.112668  0  4.024167  0
C  C224  1  0.15886743  0.49280875  0.25696618  1  -0.070656  0  -0.111923  -0.215335  0  4.043445  0
C  C225  1  0.34114101  0.50719225  0.75696494  1  -0.070853  0  -0.111971  -0.215488  0  4.043424  0
C  C226  1  0.84113860  0.99280895  0.24303439  1  -0.071142  0  -0.112006  -0.215468  0  4.043319  0
C  C227  1  0.65886166  0.00719020  0.74303445  1  -0.070669  0  -0.111939  -0.215365  0  4.043311  0
N  N228  1  0.43193443  0.34954859  0.50870898  1  -1.271556  0  -0.335902  -0.223663  0  3.59473  0
N  N229  1  0.06806510  0.65045187  0.00871239  1  -1.271973  0  -0.335843  -0.223656  0  3.594769  0
N  N230  1  0.56806819  0.84954744  0.99129078  1  -1.271503  0  -0.33588  -0.2236  0  3.594588  0
N  N231  1  0.93193209  0.15045165  0.49128882  1  -1.271973  0  -0.335926  -0.223667  0  3.594631  0
N  N232  1  0.69018831  0.30915732  0.44438074  1  -1.246843  0  -0.337134  -0.224131  0  3.593692  0
N  N233  1  0.80981263  0.69083941  0.94438391  1  -1.246708  0  -0.337199  -0.224262  0  3.593717  0
N  N234  1  0.30981145  0.80915862  0.05561864  1  -1.246825  0  -0.337178  -0.224174  0  3.593721  0
N  N235  1  0.19018919  0.19084047  0.55561769  1  -1.246674  0  -0.337218  -0.224259  0  3.593689  0
Cl  Cl236  1  0.48617195  0.15330823  0.44454093  1  -0.666219  0  -0.330353  -0.502051  0  1.184804  0
Cl  Cl237  1  0.01382579  0.84669287  0.94454213  1  -0.66618  0  -0.33034  -0.50204  0  1.184772  0
Cl  Cl238  1  0.51382702  0.65330878  0.05545874  1  -0.666193  0  -0.330328  -0.502031  0  1.184826  0
Cl  Cl239  1  0.98617414  0.34668965  0.55545969  1  -0.666189  0  -0.33033  -0.502023  0  1.184817  0
Cl  Cl240  1  0.62833671  0.25496965  0.61349315  1  -0.662896  0  -0.309817  -0.500746  0  1.251576  0
Cl  Cl241  1  0.87166005  0.74503358  0.11349444  1  -0.662949  0  -0.309823  -0.500765  0  1.251597  0
Cl  Cl242  1  0.37165919  0.75496956  0.88650731  1  -0.66288  0  -0.309825  -0.500741  0  1.251549  0
Cl  Cl243  1  0.12834117  0.24502985  0.38650660  1  -0.662882  0  -0.309821  -0.500746  0  1.251567  0
O  O244  1  0.13147794  0.56577644  0.45685395  1  -1.079049  0  -0.172845  -0.184732  0  2.591622  0
O  O245  1  0.36852052  0.43422525  0.95685324  1  -1.078996  0  -0.172879  -0.184824  0  2.591569  0
O  O246  1  0.86851881  0.06577980  0.04314640  1  -1.079056  0  -0.17286  -0.184743  0  2.591525  0
O  O247  1  0.63147896  0.93422239  0.54314585  1  -1.079009  0  -0.172866  -0.18481  0  2.591607  0
O  O248  1  0.97400797  0.49454101  0.32312539  1  -1.098327  0  -0.172237  -0.183613  0  2.591463  0
O  O249  1  0.52599292  0.50545978  0.82312718  1  -1.098357  0  -0.17218  -0.183541  0  2.591354  0
O  O250  1  0.02599629  0.99454315  0.17687619  1  -1.097713  0  -0.17227  -0.183637  0  2.591576  0
O  O251  1  0.47400707  0.00545808  0.67687324  1  -1.098145  0  -0.17219  -0.183526  0  2.591447  0
