# generated using pymatgen
data_NdH20C24NO10
_symmetry_space_group_name_H-M   'P 1'
_cell_length_a   9.05084044
_cell_length_b   23.16334017
_cell_length_c   23.15624829
_cell_angle_alpha   118.35566027
_cell_angle_beta   97.48105063
_cell_angle_gamma   97.47273482
_symmetry_Int_Tables_number   1
_chemical_formula_structural   NdH20C24NO10
_chemical_formula_sum   'Nd6 H120 C144 N6 O60'
_cell_volume   4132.10294811
_cell_formula_units_Z   6
loop_
 _symmetry_equiv_pos_site_id
 _symmetry_equiv_pos_as_xyz
  1  'x, y, z'
loop_
 _atom_site_type_symbol
 _atom_site_label
 _atom_site_symmetry_multiplicity
 _atom_site_fract_x
 _atom_site_fract_y
 _atom_site_fract_z
 _atom_site_occupancy
 _atom_site_pbe_bader_charge
 _atom_site_pbe_bader_spin_density
 _atom_site_pbe_cm5_charge
 _atom_site_pbe_ddec_charge
 _atom_site_pbe_ddec_spin_density
 _atom_site_pbe_ddec_sum_bond_order
 _atom_site_pbe_magmom
Nd  Nd0  1  0.80765954  0.44831882  0.01260680  1  2.224319  0  1.489043  2.041938  0  2.141207  0
Nd  Nd1  1  0.79510406  0.98739308  0.43566095  1  2.223473  0  1.489278  2.041196  0  2.143218  0
Nd  Nd2  1  0.35945947  0.56433433  0.55176716  1  2.224517  0  1.489347  2.041636  0  2.141619  0
Nd  Nd3  1  0.19233784  0.55168072  0.98739289  1  2.22435  0  1.489058  2.041926  0  2.141265  0
Nd  Nd4  1  0.20489667  0.01260645  0.56433934  1  2.223476  0  1.489269  2.041175  0  2.143278  0
Nd  Nd5  1  0.64054758  0.43566671  0.44823375  1  2.224666  0  1.489306  2.041574  0  2.141717  0
H  H6  1  0.54869341  0.33722460  0.12278840  1  0.117164  0  0.112151  0.133255  0  1.000379  0
H  H7  1  0.42613560  0.87715290  0.21443548  1  0.1012  0  0.112127  0.132951  0  1.000226  0
H  H8  1  0.21128896  0.78540133  0.66284100  1  0.105963  0  0.111984  0.133324  0  1.000623  0
H  H9  1  0.45130670  0.66277594  0.87721278  1  0.117156  0  0.112135  0.133212  0  1.000386  0
H  H10  1  0.57386340  0.12284764  0.78556304  1  0.101194  0  0.112113  0.132921  0  1.000278  0
H  H11  1  0.78870827  0.21459569  0.33716009  1  0.105872  0  0.111987  0.133326  0  1.000657  0
H  H12  1  0.40776175  0.51509358  0.14232880  1  0.10618  0  0.113904  0.130993  0  1.02829  0
H  H13  1  0.26563849  0.85776736  0.37287658  1  0.102127  0  0.114278  0.131928  0  1.027083  0
H  H14  1  0.89219803  0.62704944  0.48502350  1  0.112169  0  0.114159  0.131791  0  1.027567  0
H  H15  1  0.59224059  0.48490696  0.85767076  1  0.105974  0  0.11388  0.130965  0  1.028256  0
H  H16  1  0.73436335  0.14223218  0.62712205  1  0.102087  0  0.11429  0.131971  0  1.027097  0
H  H17  1  0.10779971  0.37294859  0.51497766  1  0.114284  0  0.114146  0.131792  0  1.027552  0
H  H18  1  0.21507869  0.41457663  0.24038684  1  0.073684  0  0.108856  0.126081  0  1.049095  0
H  H19  1  0.97514632  0.75952287  0.17415413  1  0.099643  0  0.108192  0.124659  0  1.048828  0
H  H20  1  0.80066485  0.82579912  0.58551750  1  0.085826  0  0.108645  0.125339  0  1.048843  0
H  H21  1  0.78492293  0.58542693  0.75961498  1  0.073786  0  0.1089  0.126079  0  1.049122  0
H  H22  1  0.02485602  0.24047767  0.82584586  1  0.099633  0  0.108184  0.124654  0  1.048824  0
H  H23  1  0.19933486  0.17419840  0.41448222  1  0.085917  0  0.108644  0.125293  0  1.048845  0
H  H24  1  0.40936673  0.75197168  0.24762354  1  0.087261  0  0.100007  0.097674  0  1.042153  0
H  H25  1  0.16106822  0.75251588  0.50458300  1  0.084981  0  0.100052  0.097974  0  1.041599  0
H  H26  1  0.65697273  0.49541442  0.24798379  1  0.089322  0  0.100187  0.098318  0  1.040746  0
H  H27  1  0.59063647  0.24802835  0.75237539  1  0.087311  0  0.100001  0.097629  0  1.042166  0
H  H28  1  0.83892791  0.24748114  0.49541630  1  0.084772  0  0.100003  0.09785  0  1.041671  0
H  H29  1  0.34302526  0.50458411  0.75201503  1  0.08939  0  0.100184  0.098319  0  1.040818  0
H  H30  1  0.43454728  0.60717564  0.31351927  1  0.097139  0  0.100563  0.10916  0  1.064771  0
H  H31  1  0.12103648  0.68640297  0.29380320  1  0.08175  0  0.100542  0.109001  0  1.064596  0
H  H32  1  0.82738198  0.70613707  0.39282797  1  0.115733  0  0.100568  0.108583  0  1.064707  0
H  H33  1  0.56545830  0.39282691  0.68648185  1  0.097286  0  0.10058  0.109209  0  1.064743  0
H  H34  1  0.87896697  0.31359757  0.70619858  1  0.081792  0  0.100511  0.108959  0  1.064602  0
H  H35  1  0.17261799  0.29386095  0.60717157  1  0.11568  0  0.100544  0.108569  0  1.064703  0
H  H36  1  0.18942031  0.67175870  0.15502353  1  0.12317  0  0.10781  0.108644  0  1.045916  0
H  H37  1  0.03386932  0.84507458  0.51679483  1  0.125482  0  0.107732  0.108336  0  1.045555  0
H  H38  1  0.51724195  0.48317574  0.32826206  1  0.135417  0  0.108043  0.108459  0  1.045468  0
H  H39  1  0.81058178  0.32824134  0.84497664  1  0.123177  0  0.107813  0.108626  0  1.045867  0
H  H40  1  0.96613040  0.15492294  0.48320619  1  0.12547  0  0.107733  0.10835  0  1.045553  0
H  H41  1  0.48275529  0.51682128  0.67173600  1  0.135491  0  0.108046  0.108484  0  1.04551  0
H  H42  1  0.53304439  0.72047275  0.32820574  1  0.067748  0  0.105211  0.105837  0  0.994253  0
H  H43  1  0.20442232  0.67184692  0.39254767  1  0.060382  0  0.105499  0.106301  0  0.994053  0
H  H44  1  0.81233575  0.60741520  0.27947404  1  0.065828  0  0.105448  0.105804  0  0.994213  0
H  H45  1  0.46696403  0.27952879  0.67179245  1  0.067789  0  0.105236  0.105861  0  0.994244  0
H  H46  1  0.79557902  0.32815160  0.60745218  1  0.060421  0  0.105499  0.106287  0  0.994074  0
H  H47  1  0.18766472  0.39258383  0.72052557  1  0.065837  0  0.105445  0.105797  0  0.994176  0
H  H48  1  0.61435980  0.53172964  0.97358319  1  0.666559  0  0.308419  0.416565  0  0.901942  0
H  H49  1  0.64073521  0.02620811  0.55806356  1  0.64081  0  0.308834  0.416805  0  0.90168  0
H  H50  1  0.08285335  0.44202234  0.46822066  1  0.649658  0  0.30844  0.416274  0  0.902307  0
H  H51  1  0.38563895  0.46827040  0.02641638  1  0.666571  0  0.308432  0.416583  0  0.901917  0
H  H52  1  0.35926860  0.97379092  0.44193666  1  0.640796  0  0.3088  0.416752  0  0.901748  0
H  H53  1  0.91714788  0.55797820  0.53178014  1  0.649623  0  0.308438  0.416245  0  0.902342  0
H  H54  1  0.79250165  0.56254698  0.98171202  1  0.643307  0  0.300353  0.399302  0  0.935447  0
H  H55  1  0.81076382  0.01815246  0.58082739  1  0.642202  0  0.300738  0.399369  0  0.934927  0
H  H56  1  0.23011029  0.41921086  0.43736716  1  0.653363  0  0.300702  0.399085  0  0.935624  0
H  H57  1  0.20749734  0.43745356  0.01828823  1  0.643305  0  0.300318  0.399233  0  0.935539  0
H  H58  1  0.18924050  0.98184758  0.41917376  1  0.642267  0  0.300733  0.399369  0  0.934937  0
H  H59  1  0.76989169  0.58079118  0.56263396  1  0.65334  0  0.30067  0.39904  0  0.9357  0
H  H60  1  0.10287005  0.30453022  0.34390367  1  0.11007  0  0.101475  0.101585  0  1.053758  0
H  H61  1  0.75913760  0.65590939  0.96047364  1  0.124087  0  0.10129  0.101451  0  1.053435  0
H  H62  1  0.79890878  0.03954394  0.69563394  1  0.111377  0  0.101756  0.102194  0  1.052617  0
H  H63  1  0.89712930  0.69546881  0.65609589  1  0.110138  0  0.101482  0.101589  0  1.053747  0
H  H64  1  0.24085856  0.34409216  0.03952694  1  0.124082  0  0.101281  0.101429  0  1.05344  0
H  H65  1  0.20109852  0.96045761  0.30436765  1  0.111643  0  0.101759  0.102198  0  1.052613  0
H  H66  1  0.11765729  0.24853028  0.10999847  1  0.110481  0  0.108282  0.124927  0  0.998521  0
H  H67  1  0.00742718  0.88979280  0.13839303  1  0.074808  0  0.108441  0.124799  0  0.998921  0
H  H68  1  0.86937460  0.86159092  0.75142974  1  0.073347  0  0.108669  0.125462  0  0.998578  0
H  H69  1  0.88234232  0.75146925  0.89000047  1  0.110521  0  0.108294  0.124957  0  0.9986  0
H  H70  1  0.99257045  0.11020724  0.86160778  1  0.07476  0  0.108436  0.124805  0  0.998912  0
H  H71  1  0.13061721  0.13840861  0.24856665  1  0.073202  0  0.108652  0.125454  0  0.998577  0
H  H72  1  0.86931832  0.23739038  0.25318077  1  0.085284  0  0.103667  0.105513  0  1.004837  0
H  H73  1  0.61606039  0.74657099  0.98396929  1  0.086766  0  0.103851  0.106023  0  1.005073  0
H  H74  1  0.63220919  0.01593555  0.76268231  1  0.105098  0  0.10376  0.106009  0  1.003803  0
H  H75  1  0.13068277  0.76260765  0.74681883  1  0.08515  0  0.103658  0.105468  0  1.004878  0
H  H76  1  0.38393713  0.25343106  0.01603074  1  0.086803  0  0.103853  0.106039  0  1.005053  0
H  H77  1  0.36779056  0.98406650  0.23731740  1  0.105138  0  0.103797  0.106077  0  1.003735  0
H  H78  1  0.87598704  0.20859848  0.13472547  1  0.077441  0  0.107397  0.103197  0  0.980355  0
H  H79  1  0.74099698  0.86504723  0.07371945  1  0.067934  0  0.10764  0.103761  0  0.979844  0
H  H80  1  0.66758702  0.92623334  0.79139494  1  0.03284  0  0.107011  0.10262  0  0.980618  0
H  H81  1  0.12401268  0.79139904  0.86527295  1  0.077475  0  0.107403  0.103186  0  0.980392  0
H  H82  1  0.25900389  0.13495482  0.92628205  1  0.067976  0  0.107638  0.103756  0  0.979899  0
H  H83  1  0.33240378  0.07376418  0.20860001  1  0.032694  0  0.107017  0.102684  0  0.980605  0
H  H84  1  0.57275025  0.28883333  0.89635064  1  0.120647  0  0.132144  0.061829  0  0.994116  0
H  H85  1  0.67675979  0.10374211  0.39259365  1  0.126531  0  0.132415  0.062887  0  0.994405  0
H  H86  1  0.28411680  0.60749261  0.71122516  1  0.120062  0  0.132571  0.062997  0  0.994106  0
H  H87  1  0.42724950  0.71116872  0.10364950  1  0.120655  0  0.132116  0.061798  0  0.99409  0
H  H88  1  0.32323845  0.89625692  0.60740672  1  0.126492  0  0.132399  0.062876  0  0.994364  0
H  H89  1  0.71587824  0.39250894  0.28877494  1  0.120056  0  0.132556  0.062967  0  0.994111  0
H  H90  1  0.35797266  0.39438737  0.86386375  1  0.136787  0  0.118973  0.146452  0  1.008994  0
H  H91  1  0.49372987  0.13616430  0.53047622  1  0.129953  0  0.118884  0.14626  0  1.008986  0
H  H92  1  0.96357527  0.46957801  0.60561429  1  0.139297  0  0.118953  0.146037  0  1.008966  0
H  H93  1  0.64202907  0.60561418  0.13613668  1  0.136787  0  0.11894  0.146424  0  1.008998  0
H  H94  1  0.50627110  0.86383573  0.46952390  1  0.129987  0  0.118881  0.146253  0  1.008956  0
H  H95  1  0.03642211  0.53042152  0.39438584  1  0.139279  0  0.118963  0.146053  0  1.008986  0
H  H96  1  0.18345647  0.33819683  0.84772069  1  0.070318  0  0.106317  0.122605  0  0.983686  0
H  H97  1  0.33550004  0.15226808  0.49029587  1  0.050018  0  0.105749  0.122075  0  0.98399  0
H  H98  1  0.84527490  0.50969062  0.66184467  1  0.05485  0  0.106014  0.121826  0  0.983717  0
H  H99  1  0.81654365  0.66180371  0.15227919  1  0.070354  0  0.106319  0.122612  0  0.983674  0
H  H100  1  0.66450291  0.84773146  0.50970497  1  0.049988  0  0.105743  0.12207  0  0.983941  0
H  H101  1  0.15472248  0.49030891  0.33815502  1  0.054881  0  0.105993  0.121788  0  0.983795  0
H  H102  1  0.27340063  0.32593735  0.77986617  1  0.066567  0  0.104476  0.117702  0  1.002989  0
H  H103  1  0.49311900  0.22013367  0.54603963  1  0.06998  0  0.103898  0.116797  0  1.003604  0
H  H104  1  0.94736318  0.45403185  0.67403030  1  0.049517  0  0.104263  0.117027  0  1.003332  0
H  H105  1  0.72659887  0.67406419  0.22013372  1  0.066548  0  0.104473  0.117729  0  1.002969  0
H  H106  1  0.50688258  0.77986536  0.45396176  1  0.069969  0  0.103895  0.116802  0  1.00358  0
H  H107  1  0.05263531  0.54596769  0.32596945  1  0.049484  0  0.104274  0.117044  0  1.003306  0
H  H108  1  0.29699997  0.21064489  0.75244509  1  0.10842  0  0.113471  0.143561  0  0.990439  0
H  H109  1  0.54501543  0.24760902  0.45828032  1  0.118496  0  0.112982  0.142672  0  0.990402  0
H  H110  1  0.08636623  0.54182506  0.78935938  1  0.111694  0  0.112816  0.142592  0  0.989885  0
H  H111  1  0.70299902  0.78935565  0.24755473  1  0.108429  0  0.113463  0.14352  0  0.99047  0
H  H112  1  0.45498418  0.75239051  0.54171949  1  0.118475  0  0.112995  0.142668  0  0.990401  0
H  H113  1  0.91363399  0.45817347  0.21063955  1  0.111675  0  0.112797  0.142547  0  0.989842  0
H  H114  1  0.22684642  0.20936480  0.82029952  1  0.055266  0  0.098226  0.113801  0  1.019384  0
H  H115  1  0.40700786  0.17985401  0.38905415  1  0.03685  0  0.098512  0.113811  0  1.019504  0
H  H116  1  0.01759272  0.61101537  0.79075651  1  0.057711  0  0.098285  0.113634  0  1.019748  0
H  H117  1  0.77315258  0.79063574  0.17970074  1  0.055316  0  0.098244  0.113829  0  1.019393  0
H  H118  1  0.59299236  0.82014452  0.61094608  1  0.036844  0  0.098521  0.113823  0  1.019493  0
H  H119  1  0.98240689  0.38898416  0.20924503  1  0.057716  0  0.098274  0.11362  0  1.019733  0
H  H120  1  0.41809509  0.20220699  0.81401202  1  0.079377  0  0.106606  0.116259  0  1.0241  0
H  H121  1  0.60453358  0.18598218  0.38824154  1  0.052561  0  0.106416  0.116017  0  1.023499  0
H  H122  1  0.21592332  0.61184564  0.79785837  1  0.084395  0  0.106024  0.115133  0  1.024363  0
H  H123  1  0.58190527  0.79779405  0.18598767  1  0.079346  0  0.106617  0.116296  0  1.024093  0
H  H124  1  0.39546714  0.81401736  0.61175875  1  0.052556  0  0.106399  0.116001  0  1.023498  0
H  H125  1  0.78407518  0.38815389  0.20214181  1  0.084376  0  0.106021  0.115129  0  1.024347  0
C  C126  1  0.18422081  0.59560252  0.18312973  1  -0.044597  0  -0.015126  -0.130978  0  3.946589  0
C  C127  1  0.00092283  0.81689715  0.41247564  1  0.008256  0  -0.01561  -0.131075  0  3.947332  0
C  C128  1  0.58837622  0.58747760  0.40443939  1  -0.032931  0  -0.015232  -0.132413  0  3.946838  0
C  C129  1  0.81578462  0.40439752  0.81687018  1  -0.044602  0  -0.01504  -0.130895  0  3.946633  0
C  C130  1  0.99907653  0.18310189  0.58752435  1  0.007996  0  -0.015611  -0.131097  0  3.947291  0
C  C131  1  0.41162623  0.41252092  0.59556008  1  -0.032893  0  -0.015271  -0.132361  0  3.946797  0
C  C132  1  0.47921462  0.37417716  0.14313546  1  -0.003188  0  -0.103446  -0.251662  0  3.981923  0
C  C133  1  0.33631670  0.85679190  0.23100753  1  0.081978  0  -0.104294  -0.251751  0  3.98193  0
C  C134  1  0.10486254  0.76884460  0.62591591  1  -0.03286  0  -0.103437  -0.251358  0  3.981205  0
C  C135  1  0.52078438  0.62582337  0.85686350  1  -0.002728  0  -0.10337  -0.251524  0  3.981832  0
C  C136  1  0.66368503  0.14320965  0.76899248  1  0.081695  0  -0.104245  -0.25165  0  3.981906  0
C  C137  1  0.89513298  0.23115343  0.37408557  1  -0.032738  0  -0.103513  -0.251452  0  3.981151  0
C  C138  1  0.39756962  0.47445264  0.15367919  1  0.038439  0  -0.104545  -0.256444  0  3.969902  0
C  C139  1  0.24408486  0.84636278  0.32084122  1  0.031059  0  -0.104672  -0.257643  0  3.970271  0
C  C140  1  0.92273702  0.67906836  0.52567326  1  0.027268  0  -0.104501  -0.257114  0  3.971692  0
C  C141  1  0.60243075  0.52554840  0.84631964  1  0.038736  0  -0.104615  -0.256612  0  3.970006  0
C  C142  1  0.75591773  0.15363826  0.67915816  1  0.031039  0  -0.104674  -0.257687  0  3.970237  0
C  C143  1  0.07725910  0.32092866  0.47432864  1  0.024612  0  -0.10451  -0.257272  0  3.97183  0
C  C144  1  0.59015194  0.43109338  0.08533254  1  1.535857  0  0.193906  0.564549  0  4.222059  0
C  C145  1  0.50489756  0.91467947  0.34578535  1  1.542391  0  0.193533  0.566425  0  4.220114  0
C  C146  1  0.15873034  0.65408368  0.56895555  1  1.544646  0  0.193152  0.564148  0  4.222923  0
C  C147  1  0.40984569  0.56890665  0.91466697  1  1.535866  0  0.193873  0.564471  0  4.222168  0
C  C148  1  0.49510798  0.08531856  0.65421275  1  1.542394  0  0.193556  0.566427  0  4.220172  0
C  C149  1  0.84126604  0.34591384  0.43104530  1  1.544642  0  0.193214  0.564103  0  4.222849  0
C  C150  1  0.37762486  0.36926883  0.18184070  1  0.415439  0  0.089932  0.291016  0  4.067246  0
C  C151  1  0.19607522  0.81805869  0.18735961  1  0.354435  0  0.090584  0.291155  0  4.065325  0
C  C152  1  0.00848994  0.81256273  0.63080875  1  0.438774  0  0.090352  0.289834  0  4.065969  0
C  C153  1  0.62237115  0.63073020  0.81815782  1  0.415448  0  0.089934  0.291028  0  4.067218  0
C  C154  1  0.80392353  0.18194135  0.81264039  1  0.354357  0  0.090585  0.291169  0  4.065364  0
C  C155  1  0.99150582  0.18743580  0.36919211  1  0.438692  0  0.090378  0.289856  0  4.065886  0
C  C156  1  0.48648367  0.42648052  0.12877509  1  -0.07032  0  -0.01645  0.011233  0  4.020919  0
C  C157  1  0.35786092  0.87119902  0.29771976  1  -0.089722  0  -0.015626  0.011301  0  4.021354  0
C  C158  1  0.05960874  0.70212462  0.57363495  1  -0.013718  0  -0.01659  0.010652  0  4.022764  0
C  C159  1  0.51351396  0.57351951  0.87122442  1  -0.070781  0  -0.016445  0.011302  0  4.020825  0
C  C160  1  0.64214279  0.12880202  0.70228011  1  -0.089339  0  -0.015649  0.011275  0  4.021271  0
C  C161  1  0.94038677  0.29787341  0.42636696  1  -0.013701  0  -0.0165  0.010931  0  4.022511  0
C  C162  1  0.25714211  0.57807477  0.22797552  1  0.389554  0  0.089412  0.231833  0  4.001337  0
C  C163  1  0.02918277  0.77202785  0.35012822  1  0.407975  0  0.089122  0.230384  0  4.002254  0
C  C164  1  0.67894140  0.64982085  0.42197988  1  0.37639  0  0.089035  0.230932  0  3.999979  0
C  C165  1  0.74286098  0.42192728  0.77202609  1  0.389481  0  0.089409  0.231917  0  4.001307  0
C  C166  1  0.97082093  0.22797319  0.64987338  1  0.408025  0  0.089101  0.230334  0  4.002248  0
C  C167  1  0.32105993  0.35017768  0.57801911  1  0.376321  0  0.089011  0.230832  0  3.999975  0
C  C168  1  0.28891111  0.41693311  0.20784004  1  0.053958  0  -0.110407  -0.323304  0  3.959638  0
C  C169  1  0.08149821  0.79208111  0.20907656  1  0.031226  0  -0.109378  -0.321289  0  3.957493  0
C  C170  1  0.87207680  0.79087873  0.58315706  1  0.040949  0  -0.10978  -0.32118  0  3.956919  0
C  C171  1  0.71109012  0.58306743  0.79216119  1  0.053857  0  -0.110412  -0.323338  0  3.959699  0
C  C172  1  0.91850029  0.20791843  0.79092492  1  0.031195  0  -0.109362  -0.321294  0  3.957549  0
C  C173  1  0.12792044  0.20911829  0.41684403  1  0.041343  0  -0.109764  -0.321084  0  3.956857  0
C  C174  1  0.29981208  0.46943090  0.19367399  1  0.398621  0  0.093937  0.301786  0  4.033706  0
C  C175  1  0.10646630  0.80629091  0.27577486  1  0.406073  0  0.093581  0.30091  0  4.036456  0
C  C176  1  0.83026811  0.72417104  0.53068336  1  0.372248  0  0.093238  0.300866  0  4.037226  0
C  C177  1  0.70019015  0.53057166  0.80632738  1  0.398549  0  0.093993  0.30196  0  4.03367  0
C  C178  1  0.89353604  0.19370963  0.72422643  1  0.406119  0  0.093577  0.300917  0  4.036412  0
C  C179  1  0.16972801  0.27582598  0.46931766  1  0.372316  0  0.093178  0.300832  0  4.037398  0
C  C180  1  0.36739901  0.70318015  0.24230550  1  -0.115182  0  -0.093284  -0.090539  0  4.005954  0
C  C181  1  0.12460103  0.75778716  0.46104969  1  -0.043871  0  -0.094654  -0.093221  0  4.008118  0
C  C182  1  0.66384337  0.53891955  0.29679622  1  -0.102985  0  -0.093958  -0.091764  0  4.006971  0
C  C183  1  0.63260358  0.29682089  0.75769431  1  -0.115233  0  -0.093264  -0.090504  0  4.006039  0
C  C184  1  0.87539697  0.24221137  0.53895086  1  -0.043989  0  -0.094627  -0.09311  0  4.008087  0
C  C185  1  0.33615772  0.46107848  0.70320251  1  -0.102528  0  -0.093914  -0.09175  0  4.007122  0
C  C186  1  0.24099036  0.29823851  0.21252352  1  0.422434  0  0.091334  0.242504  0  4.0053  0
C  C187  1  0.02832744  0.78731423  0.08562823  1  0.402155  0  0.091031  0.241932  0  4.005352  0
C  C188  1  0.94311983  0.91441446  0.70179791  1  0.425386  0  0.092168  0.243928  0  4.003442  0
C  C189  1  0.75900778  0.70176254  0.78747779  1  0.422463  0  0.091366  0.242574  0  4.005243  0
C  C190  1  0.97167044  0.21268631  0.91437196  1  0.401889  0  0.090985  0.241837  0  4.005332  0
C  C191  1  0.05688277  0.08558658  0.29820103  1  0.425233  0  0.092183  0.243981  0  4.00343  0
C  C192  1  0.38127126  0.62277035  0.27993949  1  -0.045559  0  -0.097989  -0.196207  0  4.001432  0
C  C193  1  0.10119212  0.72004515  0.34294734  1  0.001592  0  -0.097777  -0.195526  0  4.000225  0
C  C194  1  0.75837850  0.65699611  0.37723809  1  -0.02592  0  -0.097038  -0.193966  0  3.998966  0
C  C195  1  0.61873381  0.37723119  0.72006025  1  -0.045731  0  -0.097957  -0.196248  0  4.001518  0
C  C196  1  0.89880875  0.27995690  0.65705416  1  0.001483  0  -0.097673  -0.195344  0  4.000118  0
C  C197  1  0.24162036  0.34300191  0.62276053  1  -0.025925  0  -0.096976  -0.193902  0  3.998827  0
C  C198  1  0.24297232  0.65851589  0.19069839  1  0.045456  0  -0.080542  -0.091933  0  3.975737  0
C  C199  1  0.05186504  0.80937055  0.46788434  1  -0.092971  0  -0.079462  -0.089724  0  3.975422  0
C  C200  1  0.58410561  0.53207464  0.34150207  1  -0.044342  0  -0.080697  -0.091049  0  3.976606  0
C  C201  1  0.75703002  0.34148464  0.80930074  1  0.045401  0  -0.080666  -0.092058  0  3.975737  0
C  C202  1  0.94813295  0.19062797  0.53211620  1  -0.09309  0  -0.079409  -0.089662  0  3.975377  0
C  C203  1  0.41589386  0.46792238  0.65849610  1  -0.04484  0  -0.080717  -0.091106  0  3.976736  0
C  C204  1  0.43622136  0.68555823  0.28740831  1  0.022462  0  -0.082127  -0.049553  0  3.986486  0
C  C205  1  0.14843394  0.71262639  0.39833673  1  -0.018145  0  -0.081498  -0.04919  0  3.984909  0
C  C206  1  0.75045111  0.60160549  0.31442144  1  0.04796  0  -0.082216  -0.049682  0  3.985941  0
C  C207  1  0.56378285  0.31444382  0.71259120  1  0.02268  0  -0.082167  -0.049574  0  3.986701  0
C  C208  1  0.85156679  0.28737315  0.60166356  1  -0.017655  0  -0.081547  -0.04926  0  3.98507  0
C  C209  1  0.24954911  0.39839303  0.68557792  1  0.04804  0  -0.082229  -0.049664  0  3.985832  0
C  C210  1  0.37245367  0.35855024  0.33785363  1  1.551392  0  0.203836  0.597669  0  4.193758  0
C  C211  1  0.03458770  0.66200890  0.02070182  1  1.570657  0  0.204437  0.597944  0  4.190338  0
C  C212  1  0.01433299  0.97937242  0.64149857  1  1.551259  0  0.203629  0.597716  0  4.191861  0
C  C213  1  0.62754583  0.64145131  0.66214929  1  1.551396  0  0.203846  0.597751  0  4.193486  0
C  C214  1  0.96541080  0.33799063  0.97929750  1  1.570655  0  0.204472  0.598037  0  4.190297  0
C  C215  1  0.98567183  0.02062863  0.35850308  1  1.550975  0  0.203671  0.5978  0  4.191728  0
C  C216  1  0.04838322  0.55080135  0.12771505  1  1.54086  0  0.215072  0.631631  0  4.176576  0
C  C217  1  0.92069729  0.87232526  0.42302516  1  1.570674  0  0.215309  0.632233  0  4.175833  0
C  C218  1  0.49752015  0.57691814  0.44929597  1  1.554329  0  0.215721  0.633926  0  4.175044  0
C  C219  1  0.95162232  0.44919667  0.87228304  1  1.540855  0  0.215052  0.631657  0  4.176771  0
C  C220  1  0.07930258  0.12767478  0.57697619  1  1.57084  0  0.215267  0.632191  0  4.175873  0
C  C221  1  0.50248428  0.42307988  0.55070423  1  1.554221  0  0.215837  0.634115  0  4.174823  0
C  C222  1  0.23961301  0.31549662  0.27948542  1  0.041226  0  -0.021006  -0.131699  0  3.922819  0
C  C223  1  0.96008037  0.72035316  0.03593148  1  0.028593  0  -0.020823  -0.131219  0  3.92291  0
C  C224  1  0.92461114  0.96412590  0.68459469  1  0.012826  0  -0.020463  -0.131612  0  3.922648  0
C  C225  1  0.76038710  0.68450392  0.72051618  1  0.041171  0  -0.021024  -0.131824  0  3.922853  0
C  C226  1  0.03991838  0.27964688  0.96406853  1  0.02858  0  -0.020861  -0.131302  0  3.923026  0
C  C227  1  0.07539245  0.03587715  0.31540786  1  0.013065  0  -0.02052  -0.131755  0  3.922808  0
C  C228  1  0.10340991  0.29202022  0.29228136  1  -0.035101  0  -0.081628  -0.07198  0  3.965094  0
C  C229  1  0.81113155  0.70752667  0.99960242  1  -0.121467  0  -0.081552  -0.07158  0  3.96516  0
C  C230  1  0.81185051  0.00041190  0.70808533  1  -0.032072  0  -0.083104  -0.073974  0  3.965167  0
C  C231  1  0.89658970  0.70797931  0.70771888  1  -0.035126  0  -0.081628  -0.071931  0  3.965022  0
C  C232  1  0.18886547  0.29247437  0.00039797  1  -0.121509  0  -0.08156  -0.071567  0  3.965202  0
C  C233  1  0.18815284  0.99959065  0.29191739  1  -0.032562  0  -0.083063  -0.07388  0  3.965168  0
C  C234  1  0.11105605  0.26009412  0.16093590  1  -0.023514  0  -0.098221  -0.202127  0  4.000334  0
C  C235  1  0.94983662  0.83885700  0.09904508  1  0.058191  0  -0.09756  -0.201021  0  4.001589  0
C  C236  1  0.85123888  0.90097754  0.73991137  1  0.023395  0  -0.098853  -0.203402  0  4.002212  0
C  C237  1  0.88894133  0.73990542  0.83906466  1  -0.023698  0  -0.098229  -0.202205  0  4.000431  0
C  C238  1  0.05015716  0.16114203  0.90095592  1  0.058715  0  -0.097508  -0.20095  0  4.00139  0
C  C239  1  0.14875415  0.09901998  0.26008283  1  0.023569  0  -0.098727  -0.203217  0  4.002171  0
C  C240  1  0.97330094  0.25416859  0.24127385  1  -0.085719  0  -0.095834  -0.1032  0  4.021336  0
C  C241  1  0.73188052  0.75849027  0.01272572  1  -0.056093  0  -0.09579  -0.103531  0  4.022941  0
C  C242  1  0.71941772  0.98723653  0.74587459  1  -0.109066  0  -0.094802  -0.102653  0  4.02022  0
C  C243  1  0.02669928  0.74582994  0.75872681  1  -0.085525  0  -0.095802  -0.103114  0  4.021356  0
C  C244  1  0.26812010  0.24151128  0.98727423  1  -0.05606  0  -0.095799  -0.103537  0  4.022887  0
C  C245  1  0.28057460  0.01276401  0.25412359  1  -0.108947  0  -0.094888  -0.102767  0  4.020287  0
C  C246  1  0.97708430  0.23817725  0.17522335  1  -0.088312  0  -0.082958  -0.053225  0  4.027125  0
C  C247  1  0.80156245  0.82454320  0.06282225  1  -0.057139  0  -0.083329  -0.054607  0  4.028712  0
C  C248  1  0.73911757  0.93716555  0.76182724  1  -0.029677  0  -0.082586  -0.052248  0  4.027907  0
C  C249  1  0.02291308  0.76182229  0.82477721  1  -0.088282  0  -0.082966  -0.05321  0  4.027178  0
C  C250  1  0.19843493  0.17545633  0.93717831  1  -0.057586  0  -0.083295  -0.054577  0  4.028584  0
C  C251  1  0.26086989  0.06283197  0.23816753  1  -0.029605  0  -0.082662  -0.052473  0  4.028069  0
C  C252  1  0.51450966  0.32573437  0.89136992  1  1.376253  0  0.187105  0.319502  0  4.095643  0
C  C253  1  0.62328709  0.10869259  0.43442404  1  1.380736  0  0.185924  0.316064  0  4.095447  0
C  C254  1  0.18887484  0.56565258  0.67431434  1  1.377326  0  0.186668  0.318169  0  4.097035  0
C  C255  1  0.48549070  0.67426667  0.10862935  1  1.376191  0  0.187098  0.319481  0  4.095685  0
C  C256  1  0.37671500  0.89130744  0.56557699  1  1.380784  0  0.185955  0.316092  0  4.095302  0
C  C257  1  0.81112045  0.43434947  0.32568342  1  1.377191  0  0.186794  0.318271  0  4.096958  0
C  C258  1  0.29420621  0.34208366  0.83366704  1  0.212646  0  -0.129439  -0.269241  0  3.864806  0
C  C259  1  0.46027110  0.16634806  0.50834127  1  0.239755  0  -0.128644  -0.268667  0  3.864306  0
C  C260  1  0.95209548  0.49170280  0.65793424  1  0.246582  0  -0.129253  -0.26768  0  3.863393  0
C  C261  1  0.70579440  0.65791789  0.16633291  1  0.212685  0  -0.129413  -0.269271  0  3.864827  0
C  C262  1  0.53973074  0.83365148  0.49165952  1  0.239793  0  -0.128619  -0.268616  0  3.864149  0
C  C263  1  0.04790302  0.50829674  0.34206551  1  0.246609  0  -0.12923  -0.267645  0  3.863387  0
C  C264  1  0.32761575  0.22648883  0.80609446  1  0.26041  0  -0.1314  -0.2836  0  3.894235  0
C  C265  1  0.52190467  0.19397459  0.42042789  1  0.261391  0  -0.130993  -0.28266  0  3.892573  0
C  C266  1  0.10117374  0.57965488  0.77357665  1  0.256227  0  -0.13  -0.280992  0  3.892785  0
C  C267  1  0.67238325  0.77351171  0.19390536  1  0.260534  0  -0.131417  -0.283611  0  3.894355  0
C  C268  1  0.47809580  0.80602444  0.57957216  1  0.261421  0  -0.130978  -0.282602  0  3.892613  0
C  C269  1  0.89882562  0.42034415  0.22642291  1  0.25619  0  -0.129946  -0.280933  0  3.89265  0
N  N270  1  0.38188847  0.29927797  0.84639994  1  -1.236895  0  -0.277357  0.030871  0  3.722783  0
N  N271  1  0.53555952  0.15363889  0.45287936  1  -1.218299  0  -0.276378  0.033708  0  3.718222  0
N  N272  1  0.08263824  0.54719931  0.70077308  1  -1.249845  0  -0.276744  0.031397  0  3.722128  0
N  N273  1  0.61811190  0.70072307  0.15359976  1  -1.237092  0  -0.277364  0.030867  0  3.722948  0
N  N274  1  0.46444095  0.84636014  0.54712154  1  -1.218367  0  -0.276435  0.033565  0  3.718302  0
N  N275  1  0.91735853  0.45280123  0.29922706  1  -1.249777  0  -0.276768  0.031436  0  3.722215  0
O  O276  1  0.58169701  0.47445937  0.06591722  1  -1.179001  0  -0.368899  -0.62112  0  2.225437  0
O  O277  1  0.51601138  0.93412357  0.40860720  1  -1.174146  0  -0.369299  -0.622123  0  2.224209  0
O  O278  1  0.10708488  0.59129327  0.52552400  1  -1.18618  0  -0.368414  -0.620548  0  2.225002  0
O  O279  1  0.41830310  0.52554117  0.93408266  1  -1.17896  0  -0.368861  -0.621042  0  2.225473  0
O  O280  1  0.48399477  0.06587345  0.59139088  1  -1.174223  0  -0.369229  -0.622051  0  2.224258  0
O  O281  1  0.89291473  0.40870627  0.47447624  1  -1.186124  0  -0.368443  -0.62058  0  2.225035  0
O  O282  1  0.68393741  0.39256624  0.06851609  1  -1.176528  0  -0.381719  -0.611083  0  2.147757  0
O  O283  1  0.61540563  0.93150051  0.32404716  1  -1.176238  0  -0.381645  -0.611402  0  2.147082  0
O  O284  1  0.29103008  0.67585306  0.60749780  1  -1.180575  0  -0.38152  -0.610459  0  2.147498  0
O  O285  1  0.31605885  0.60743329  0.93148398  1  -1.176594  0  -0.381727  -0.611108  0  2.147824  0
O  O286  1  0.38459941  0.06849651  0.67595044  1  -1.176123  0  -0.381741  -0.611505  0  2.147085  0
O  O287  1  0.70896730  0.32414647  0.39250233  1  -1.180619  0  -0.381552  -0.610428  0  2.147405  0
O  O288  1  0.20907292  0.51485619  0.22088012  1  -1.098113  0  -0.150739  -0.216844  0  2.551333  0
O  O289  1  0.98849683  0.77906518  0.29393628  1  -1.094367  0  -0.150949  -0.215706  0  2.551966  0
O  O290  1  0.69418553  0.70600712  0.48522987  1  -1.101035  0  -0.150799  -0.216583  0  2.552593  0
O  O291  1  0.79093128  0.48514586  0.77912285  1  -1.09814  0  -0.150786  -0.216957  0  2.551237  0
O  O292  1  0.01150465  0.22093586  0.70606391  1  -1.094421  0  -0.150979  -0.215755  0  2.552157  0
O  O293  1  0.30581308  0.29399040  0.51476979  1  -1.100984  0  -0.150781  -0.216569  0  2.55264  0
O  O294  1  0.37174971  0.31649399  0.19409104  1  -1.095815  0  -0.156781  -0.215331  0  2.557386  0
O  O295  1  0.17761325  0.80578541  0.12228777  1  -1.095264  0  -0.157458  -0.215336  0  2.555598  0
O  O296  1  0.05557633  0.87767222  0.68350011  1  -1.095133  0  -0.157851  -0.21563  0  2.555834  0
O  O297  1  0.62824793  0.68350604  0.80590977  1  -1.095906  0  -0.156853  -0.215386  0  2.557385  0
O  O298  1  0.82238413  0.19421413  0.87771149  1  -1.095037  0  -0.157442  -0.21529  0  2.555582  0
O  O299  1  0.94442353  0.12232782  0.31649994  1  -1.095102  0  -0.157888  -0.215696  0  2.555835  0
O  O300  1  0.04514614  0.54674418  0.06977715  1  -1.212265  0  -0.432461  -0.740488  0  2.342157  0
O  O301  1  0.97540512  0.93025299  0.47694615  1  -1.227543  0  -0.432107  -0.740642  0  2.34136  0
O  O302  1  0.49836673  0.52301663  0.45328622  1  -1.214832  0  -0.432591  -0.741176  0  2.342082  0
O  O303  1  0.95485756  0.45325686  0.93022272  1  -1.212257  0  -0.432428  -0.740439  0  2.342133  0
O  O304  1  0.02458942  0.06974755  0.52305604  1  -1.227474  0  -0.432069  -0.740597  0  2.341379  0
O  O305  1  0.50163623  0.47698291  0.54671376  1  -1.21472  0  -0.432603  -0.741241  0  2.34201  0
O  O306  1  0.35781193  0.37093658  0.39691947  1  -1.193913  0  -0.358315  -0.629611  0  2.211487  0
O  O307  1  0.96085311  0.60293894  0.97407354  1  -1.20232  0  -0.359271  -0.630434  0  2.210572  0
O  O308  1  0.98707963  0.02596487  0.62904653  1  -1.192081  0  -0.358619  -0.629572  0  2.210182  0
O  O309  1  0.64219415  0.62906697  0.60308301  1  -1.193753  0  -0.35832  -0.629645  0  2.211328  0
O  O310  1  0.03914539  0.39706059  0.02592534  1  -1.202279  0  -0.359266  -0.630434  0  2.210574  0
O  O311  1  0.01292170  0.97403366  0.37095289  1  -1.191793  0  -0.358634  -0.629598  0  2.210056  0
O  O312  1  0.72139551  0.53606351  0.99407687  1  -1.298859  0  -0.64167  -0.849094  0  2.033269  0
O  O313  1  0.72732559  0.00573478  0.54194090  1  -1.271833  0  -0.641931  -0.849037  0  2.033153  0
O  O314  1  0.18555460  0.45810794  0.46384839  1  -1.292491  0  -0.641822  -0.84846  0  2.034598  0
O  O315  1  0.27860385  0.46393552  0.00592226  1  -1.298862  0  -0.641656  -0.849045  0  2.033329  0
O  O316  1  0.27267550  0.99426325  0.45805999  1  -1.271849  0  -0.641883  -0.848991  0  2.033262  0
O  O317  1  0.81444850  0.54189411  0.53615279  1  -1.29244  0  -0.641792  -0.848368  0  2.034604  0
O  O318  1  0.49655292  0.38263071  0.32909381  1  -1.175322  0  -0.371203  -0.618601  0  2.267632  0
O  O319  1  0.16743780  0.67078144  0.05357262  1  -1.181742  0  -0.371142  -0.618416  0  2.265943  0
O  O320  1  0.11442020  0.94654974  0.61741969  1  -1.176973  0  -0.371387  -0.618881  0  2.267764  0
O  O321  1  0.50344421  0.61736832  0.67090563  1  -1.175392  0  -0.371231  -0.618632  0  2.267631  0
O  O322  1  0.83255674  0.32921910  0.94642914  1  -1.181796  0  -0.37118  -0.618477  0  2.265913  0
O  O323  1  0.88558376  0.05345181  0.38258172  1  -1.176988  0  -0.371372  -0.618884  0  2.267675  0
O  O324  1  0.93846638  0.51905868  0.13706681  1  -1.162932  0  -0.352744  -0.592908  0  2.140032  0
O  O325  1  0.80153843  0.86301290  0.38187309  1  -1.169637  0  -0.352923  -0.59301  0  2.139801  0
O  O326  1  0.41944631  0.61805477  0.48114359  1  -1.171548  0  -0.3531  -0.59356  0  2.140451  0
O  O327  1  0.06154063  0.48093783  0.86293151  1  -1.163008  0  -0.352748  -0.592974  0  2.1402  0
O  O328  1  0.19846316  0.13698614  0.61812658  1  -1.169596  0  -0.352932  -0.593036  0  2.139835  0
O  O329  1  0.58056372  0.38194778  0.51885991  1  -1.171694  0  -0.35316  -0.593683  0  2.140494  0
O  O330  1  0.57301548  0.38761047  0.92563269  1  -1.190174  0  -0.375784  -0.54883  0  2.372299  0
O  O331  1  0.64734059  0.07439986  0.46202074  1  -1.18829  0  -0.37561  -0.54816  0  2.371768  0
O  O332  1  0.18549164  0.53801444  0.61241847  1  -1.18839  0  -0.376563  -0.549731  0  2.373399  0
O  O333  1  0.42698402  0.61239108  0.07436677  1  -1.190123  0  -0.37573  -0.548766  0  2.372356  0
O  O334  1  0.35266150  0.92560017  0.53798116  1  -1.18826  0  -0.375609  -0.548121  0  2.371735  0
O  O335  1  0.81450516  0.46199063  0.38758209  1  -1.188256  0  -0.376657  -0.549868  0  2.373274  0
