# generated using pymatgen
data_HoH4C2O6F
_symmetry_space_group_name_H-M   'P 1'
_cell_length_a   7.79086895
_cell_length_b   8.40927606
_cell_length_c   8.40941351
_cell_angle_alpha   83.64889634
_cell_angle_beta   62.51490127
_cell_angle_gamma   62.53078814
_symmetry_Int_Tables_number   1
_chemical_formula_structural   HoH4C2O6F
_chemical_formula_sum   'Ho2 H8 C4 O12 F2'
_cell_volume   429.98322047
_cell_formula_units_Z   2
loop_
 _symmetry_equiv_pos_site_id
 _symmetry_equiv_pos_as_xyz
  1  'x, y, z'
loop_
 _atom_site_type_symbol
 _atom_site_label
 _atom_site_symmetry_multiplicity
 _atom_site_fract_x
 _atom_site_fract_y
 _atom_site_fract_z
 _atom_site_occupancy
 _atom_site_pbe_bader_spin_density
 _atom_site_pbe_cm5_charge
 _atom_site_pbe_ddec_charge
 _atom_site_pbe_ddec_spin_density
 _atom_site_pbe_ddec_sum_bond_order
 _atom_site_pbe_magmom
Ho  Ho0  1  0.25000352  0.07719438  0.92285980  1  0  1.499744  2.08696  0  2.177717  0
Ho  Ho1  1  0.75000195  0.92280168  0.07713962  1  0  1.499763  2.086888  0  2.177659  0
H  H2  1  0.18148671  0.04590205  0.29832622  1  0  0.307214  0.413529  0  0.901256  0
H  H3  1  0.31854654  0.70165348  0.95411282  1  0  0.307207  0.41337  0  0.901533  0
H  H4  1  0.81853774  0.95407524  0.70166170  1  0  0.307252  0.413602  0  0.901181  0
H  H5  1  0.68140961  0.29838986  0.04590782  1  0  0.307185  0.413412  0  0.901435  0
H  H6  1  0.97485465  0.04613460  0.29783545  1  0  0.30688  0.413205  0  0.902334  0
H  H7  1  0.52511093  0.70218264  0.95389144  1  0  0.306902  0.413203  0  0.902269  0
H  H8  1  0.02517453  0.95385563  0.70216227  1  0  0.306749  0.413089  0  0.902431  0
H  H9  1  0.47486974  0.29782959  0.04612111  1  0  0.3068  0.41298  0  0.902588  0
C  C10  1  0.09946107  0.50020293  0.00027779  1  0  0.228548  0.507936  0  4.229809  0
C  C11  1  0.40056003  0.99971383  0.49975674  1  0  0.228762  0.508419  0  4.230235  0
C  C12  1  0.90053314  0.49981946  0.99974209  1  0  0.228554  0.508227  0  4.229475  0
C  C13  1  0.59947419  0.00026901  0.50022037  1  0  0.228607  0.50794  0  4.230451  0
O  O14  1  0.26425223  0.34781088  0.96863689  1  0  -0.344719  -0.590905  0  2.296041  0
O  O15  1  0.23583056  0.03133937  0.65215829  1  0  -0.344851  -0.591159  0  2.296942  0
O  O16  1  0.73572210  0.65215138  0.03135211  1  0  -0.344717  -0.591012  0  2.296308  0
O  O17  1  0.76420005  0.96864897  0.34785326  1  0  -0.344699  -0.59091  0  2.297551  0
O  O18  1  0.91984530  0.34713747  0.96801736  1  0  -0.344591  -0.590814  0  2.296119  0
O  O19  1  0.58019311  0.03197492  0.65290054  1  0  -0.344715  -0.590717  0  2.296439  0
O  O20  1  0.08012367  0.65289198  0.03197265  1  0  -0.344595  -0.590616  0  2.29674  0
O  O21  1  0.41985827  0.96800953  0.34709496  1  0  -0.344703  -0.590804  0  2.297178  0
O  O22  1  0.08062259  0.09466280  0.24483077  1  0  -0.637369  -0.853987  0  1.995508  0
O  O23  1  0.41936650  0.75518008  0.90534379  1  0  -0.637328  -0.853816  0  1.995423  0
O  O24  1  0.91937923  0.90531870  0.75516564  1  0  -0.637306  -0.853958  0  1.995396  0
O  O25  1  0.58058802  0.24484294  0.09468300  1  0  -0.637184  -0.853641  0  1.995528  0
F  F26  1  0.99999916  0.99999915  0.99999243  1  0  -0.531694  -0.685207  0  1.2038  0
F  F27  1  0.49999996  0.00000499  0.99999841  1  0  -0.531698  -0.685218  0  1.204069  0
