# generated using pymatgen
data_Mn3H28C48N6(O3F2)4
_symmetry_space_group_name_H-M   'P 1'
_cell_length_a   10.79842601
_cell_length_b   14.90503902
_cell_length_c   18.25852173
_cell_angle_alpha   90.00044337
_cell_angle_beta   89.99955863
_cell_angle_gamma   113.32041575
_symmetry_Int_Tables_number   1
_chemical_formula_structural   Mn3H28C48N6(O3F2)4
_chemical_formula_sum   'Mn6 H56 C96 N12 O24 F16'
_cell_volume   2698.64847028
_cell_formula_units_Z   2
loop_
 _symmetry_equiv_pos_site_id
 _symmetry_equiv_pos_as_xyz
  1  'x, y, z'
loop_
 _atom_site_type_symbol
 _atom_site_label
 _atom_site_symmetry_multiplicity
 _atom_site_fract_x
 _atom_site_fract_y
 _atom_site_fract_z
 _atom_site_occupancy
 _atom_site_pbe_bader_charge
 _atom_site_pbe_bader_spin_density
 _atom_site_pbe_cm5_charge
 _atom_site_pbe_ddec_charge
 _atom_site_pbe_ddec_spin_density
 _atom_site_pbe_ddec_sum_bond_order
 _atom_site_pbe_magmom
Mn  Mn0  1  0.00100545  0.83018976  0.01046735  1  1.559713  4.444417  0.627957  0.961979  4.589023  2.454926  4.386
Mn  Mn1  1  0.49899507  0.66980152  0.51046511  1  1.559652  4.444394  0.627955  0.961901  4.588979  2.45514  4.386
Mn  Mn2  1  0.99900804  0.16982471  0.98954279  1  1.559571  4.444464  0.628033  0.962064  4.588924  2.454896  4.387
Mn  Mn3  1  0.50099472  0.33017635  0.48954338  1  1.559517  4.444474  0.627995  0.961962  4.588918  2.454939  4.387
Mn  Mn4  1  0.50000911  0.00000056  0.50000758  1  1.553567  4.46436  0.618962  0.960391  4.611207  2.423676  4.401
Mn  Mn5  1  0.99999093  0.49999907  0.99999266  1  1.553694  4.464274  0.618969  0.960355  4.61116  2.42369  4.401
H  H6  1  0.74029230  0.71273418  0.89660768  1  0.154858  0.000506  0.106261  0.131028  -0.000162  1.032732  0.0
H  H7  1  0.75971489  0.78726523  0.39660518  1  0.155101  0.000506  0.106223  0.130914  -0.000162  1.032707  0.0
H  H8  1  0.25971514  0.28727222  0.10339205  1  0.155036  0.000506  0.106209  0.130889  -0.000162  1.032779  0.0
H  H9  1  0.24028535  0.21273091  0.60338962  1  0.155248  0.000506  0.106196  0.130923  -0.000162  1.032727  0.0
H  H10  1  0.67097870  0.55743865  0.57371866  1  0.20737  0.001519  0.12666  0.12963  0.000328  1.040387  0.001
H  H11  1  0.82905031  0.94256976  0.07371958  1  0.207212  0.001519  0.126683  0.129665  0.000327  1.0404  0.001
H  H12  1  0.32901653  0.44256031  0.42628161  1  0.207341  0.001519  0.126678  0.129631  0.000327  1.040388  0.001
H  H13  1  0.17095599  0.05743445  0.92627741  1  0.207254  0.001519  0.126684  0.129695  0.000327  1.040319  0.001
H  H14  1  0.77456940  0.53839094  0.82166560  1  0.098276  0.000526  0.102245  0.098352  4.6e-05  1.038948  0.0
H  H15  1  0.72543552  0.96160936  0.32167094  1  0.098277  0.000526  0.102238  0.09835  4.6e-05  1.039144  0.0
H  H16  1  0.22542210  0.46160796  0.17833467  1  0.098682  0.000526  0.102252  0.098357  4.6e-05  1.038999  0.0
H  H17  1  0.27455819  0.03838667  0.67832933  1  0.0983  0.000526  0.102248  0.098389  4.6e-05  1.039055  0.0
H  H18  1  0.19354342  0.06252435  0.29253001  1  0.081963  0.000967  0.107911  0.115476  0.000541  0.995297  0.0
H  H19  1  0.30647626  0.43748472  0.79253693  1  0.081579  0.000968  0.107902  0.115514  0.000541  0.995267  0.0
H  H20  1  0.80647291  0.93749378  0.70746752  1  0.081875  0.000968  0.107933  0.115533  0.000541  0.995212  0.0
H  H21  1  0.69352492  0.56251143  0.20746882  1  0.0817  0.000967  0.107914  0.115507  0.000541  0.995321  0.0
H  H22  1  0.54925865  0.66501226  0.33788310  1  0.084661  0.000944  0.111735  0.079056  0.000339  1.049784  0.0
H  H23  1  0.95073798  0.83497789  0.83788652  1  0.08449  0.000944  0.111745  0.079031  0.000339  1.049802  0.0
H  H24  1  0.45072824  0.33497425  0.66211882  1  0.084407  0.000944  0.111743  0.079059  0.000339  1.049726  0.0
H  H25  1  0.04926458  0.16502626  0.16212088  1  0.08452  0.000944  0.111752  0.079027  0.000339  1.049742  0.0
H  H26  1  0.15908566  0.76243902  0.20849978  1  0.078424  0.000524  0.102529  0.098634  6.6e-05  1.031454  0.0
H  H27  1  0.34090543  0.73754259  0.70850308  1  0.078095  0.000524  0.102481  0.098607  6.6e-05  1.031561  0.0
H  H28  1  0.84094336  0.23757859  0.79148899  1  0.077677  0.000524  0.102557  0.098671  6.6e-05  1.031176  0.0
H  H29  1  0.65906275  0.26244000  0.29149063  1  0.077957  0.000525  0.102581  0.09876  6.6e-05  1.031206  0.0
H  H30  1  0.44954300  0.68561669  0.21817053  1  0.07658  0.000939  0.111605  0.123578  0.000526  0.979491  0.0
H  H31  1  0.05046038  0.81437097  0.71817508  1  0.076502  0.000939  0.111589  0.123583  0.000526  0.979581  0.0
H  H32  1  0.55045873  0.31437875  0.78182701  1  0.076493  0.00094  0.111582  0.123549  0.000526  0.979549  0.0
H  H33  1  0.94952752  0.18562280  0.28182903  1  0.076509  0.00094  0.111598  0.123605  0.000526  0.979483  0.0
H  H34  1  0.25748454  0.62245859  0.12563698  1  0.088059  0.000741  0.108603  0.131407  6.6e-05  1.002485  0.0
H  H35  1  0.24253590  0.87754175  0.62564983  1  0.087196  0.000742  0.108601  0.131339  6.6e-05  1.002385  0.0
H  H36  1  0.74252906  0.37754718  0.87435891  1  0.087571  0.000741  0.108616  0.13139  6.6e-05  1.002457  0.0
H  H37  1  0.75745064  0.12244765  0.37434661  1  0.087033  0.000742  0.108591  0.131343  6.6e-05  1.00234  0.0
H  H38  1  0.53664698  0.75526339  0.67212461  1  0.110593  0.001597  0.122659  0.114093  0.000755  1.025674  0.001
H  H39  1  0.96336104  0.74473739  0.17212584  1  0.110555  0.001598  0.122616  0.114036  0.000756  1.025661  0.001
H  H40  1  0.46333998  0.24473037  0.32787896  1  0.110432  0.001597  0.122675  0.114103  0.000755  1.025731  0.001
H  H41  1  0.03664169  0.25526531  0.82787389  1  0.11051  0.001597  0.122618  0.114003  0.000755  1.025715  0.001
H  H42  1  0.19728523  0.10364687  0.17830183  1  0.054559  0.000666  0.094799  0.099681  0.000178  1.052234  0.0
H  H43  1  0.30272065  0.39634888  0.67830741  1  0.054793  0.000666  0.09476  0.099637  0.000178  1.052302  0.0
H  H44  1  0.80270063  0.89634832  0.82170064  1  0.054913  0.000666  0.094777  0.099664  0.000178  1.052232  0.0
H  H45  1  0.69727721  0.60365157  0.32169506  1  0.054706  0.000666  0.094803  0.099723  0.000178  1.052184  0.0
H  H46  1  0.51284408  0.91004443  0.34175339  1  0.111217  0.001366  0.119633  0.107599  0.000596  1.035346  0.001
H  H47  1  0.98715584  0.58994145  0.84176275  1  0.111297  0.001367  0.119631  0.107497  0.000597  1.035228  0.001
H  H48  1  0.48714264  0.08994353  0.65824469  1  0.111127  0.001367  0.119639  0.107606  0.000597  1.035317  0.001
H  H49  1  0.01284856  0.41005910  0.15824191  1  0.111193  0.001366  0.119645  0.107568  0.000596  1.03526  0.001
H  H50  1  0.26151315  0.92901628  0.12887918  1  0.153114  0.000124  0.110712  0.122451  -0.00052  1.022801  0.0
H  H51  1  0.23850989  0.57098557  0.62888899  1  0.153158  0.000125  0.110671  0.122429  -0.000519  1.02302  0.0
H  H52  1  0.73849166  0.07098863  0.87111836  1  0.153019  0.000124  0.110725  0.122459  -0.00052  1.022895  0.0
H  H53  1  0.76149492  0.42901933  0.37111785  1  0.153404  0.000125  0.110649  0.122377  -0.00052  1.022992  0.0
H  H54  1  0.29386441  0.06663147  0.41536943  1  0.134765  0.00137  0.12013  0.10171  0.000322  1.038495  0.0
H  H55  1  0.20614294  0.43336231  0.91537732  1  0.134447  0.00137  0.120156  0.10185  0.000322  1.038325  0.0
H  H56  1  0.70613151  0.93336170  0.58463030  1  0.134809  0.00137  0.120163  0.101822  0.000323  1.03832  0.0
H  H57  1  0.79386070  0.56663679  0.08462898  1  0.134404  0.00137  0.120117  0.101795  0.000322  1.038319  0.0
H  H58  1  0.23368972  0.68658269  0.45515023  1  0.143778  0.001617  0.131812  0.12543  0.000743  0.98011  0.001
H  H59  1  0.26630814  0.81341448  0.95515653  1  0.14371  0.001617  0.131755  0.125318  0.000743  0.980124  0.001
H  H60  1  0.76630506  0.31342786  0.54484567  1  0.143642  0.001618  0.131751  0.125371  0.000744  0.980123  0.001
H  H61  1  0.73370030  0.18657962  0.04484374  1  0.143587  0.001618  0.131757  0.125303  0.000744  0.980174  0.001
C  C62  1  0.82921952  0.62244893  0.95174364  1  1.553893  0.034084  0.213415  0.619741  0.03179  4.175346  0.027
C  C63  1  0.67077605  0.87754198  0.45174376  1  1.554231  0.034069  0.213383  0.619711  0.031778  4.175255  0.027
C  C64  1  0.17077706  0.37755440  0.04825883  1  1.553345  0.034088  0.213425  0.619667  0.031784  4.175276  0.027
C  C65  1  0.32922133  0.12244687  0.54825432  1  1.553408  0.034093  0.213534  0.619872  0.03179  4.17505  0.027
C  C66  1  0.15270038  0.04824124  0.06686174  1  1.558366  0.034314  0.217496  0.63005  0.031849  4.175896  0.029
C  C67  1  0.34730939  0.45175744  0.56686527  1  1.558338  0.034325  0.217397  0.629899  0.031858  4.175988  0.029
C  C68  1  0.84729956  0.95176142  0.93314237  1  1.55836  0.034302  0.217543  0.630173  0.031837  4.175793  0.029
C  C69  1  0.65269179  0.54823872  0.43313665  1  1.558354  0.03431  0.217528  0.630138  0.031844  4.175889  0.029
C  C70  1  0.15243649  0.70298297  0.07060838  1  1.565548  0.031137  0.217216  0.62411  0.029331  4.177273  0.025
C  C71  1  0.34757413  0.79700960  0.57061038  1  1.565878  0.031132  0.217233  0.623928  0.029328  4.177376  0.025
C  C72  1  0.84758330  0.29702579  0.92938642  1  1.565502  0.031147  0.217378  0.624159  0.02934  4.17699  0.025
C  C73  1  0.65240882  0.20297468  0.42938661  1  1.565838  0.03114  0.217465  0.624201  0.029335  4.177288  0.025
C  C74  1  0.27484926  0.69664068  0.26872160  1  0.012114  0.005486  -0.003677  0.031366  0.004068  4.046539  0.002
C  C75  1  0.22514991  0.80334727  0.76872584  1  0.012895  0.005483  -0.003659  0.031444  0.004069  4.046625  0.002
C  C76  1  0.72515856  0.30336645  0.73127429  1  0.011848  0.005496  -0.0037  0.031502  0.004074  4.046597  0.002
C  C77  1  0.77483871  0.19664435  0.23127225  1  0.012974  0.005488  -0.003696  0.031501  0.004073  4.046564  0.002
C  C78  1  0.69559825  0.62353342  0.75588964  1  0.053417  0.005843  -0.014282  -0.078273  0.0043  4.063747  0.002
C  C79  1  0.80441185  0.87647521  0.25589134  1  0.053238  0.005843  -0.014253  -0.078298  0.004301  4.06377  0.002
C  C80  1  0.30440600  0.37647220  0.24411118  1  0.053558  0.005836  -0.014292  -0.078348  0.004295  4.063906  0.002
C  C81  1  0.19558770  0.12352671  0.74410619  1  0.05333  0.005835  -0.014248  -0.078179  0.004294  4.063784  0.002
C  C82  1  0.76338084  0.64865585  0.88847204  1  0.019772  0.004877  -0.085329  -0.215624  0.002962  3.87765  0.001
C  C83  1  0.73661933  0.85134412  0.38847061  1  0.019586  0.004878  -0.085296  -0.215422  0.002963  3.877327  0.001
C  C84  1  0.23661930  0.35134899  0.11152878  1  0.019574  0.004873  -0.085261  -0.215352  0.002959  3.877359  0.001
C  C85  1  0.26337697  0.14864979  0.61152748  1  0.019458  0.004868  -0.085233  -0.215499  0.002955  3.877372  0.001
C  C86  1  0.66215372  0.59601088  0.62312806  1  0.539821  0.005457  0.034158  -0.059345  0.004368  3.952041  0.003
C  C87  1  0.83786562  0.90399264  0.12312705  1  0.539862  0.005458  0.034155  -0.059428  0.004369  3.952104  0.003
C  C88  1  0.33784320  0.40398956  0.37687221  1  0.539641  0.00545  0.034157  -0.059394  0.004363  3.952125  0.003
C  C89  1  0.16213712  0.09601006  0.87687158  1  0.540041  0.005451  0.034166  -0.05941  0.004364  3.951928  0.003
C  C90  1  0.63062350  0.68797897  0.74596641  1  0.395449  0.007372  0.105322  0.210396  0.005421  4.033104  0.004
C  C91  1  0.86939175  0.81203040  0.24596631  1  0.396434  0.007368  0.105241  0.210362  0.005418  4.033183  0.004
C  C92  1  0.36937834  0.31202734  0.25403496  1  0.395667  0.007371  0.105291  0.210348  0.00542  4.033142  0.004
C  C93  1  0.13061081  0.18797374  0.75403177  1  0.396302  0.00737  0.105249  0.21032  0.00542  4.033154  0.004
C  C94  1  0.74475866  0.60030091  0.82415621  1  -0.127414  0.020962  -0.089644  -0.074791  0.016404  4.012583  0.012
C  C95  1  0.75524461  0.89970519  0.32415774  1  -0.127631  0.020954  -0.089616  -0.074834  0.016397  4.012667  0.012
C  C96  1  0.25524259  0.39970250  0.17584571  1  -0.127905  0.02096  -0.089634  -0.074852  0.016401  4.012514  0.012
C  C97  1  0.24475304  0.10029308  0.67584090  1  -0.127505  0.020959  -0.089655  -0.074861  0.016401  4.012693  0.012
C  C98  1  0.30464981  0.98628273  0.24083137  1  0.00438  0.004623  -0.000723  0.037862  0.003399  4.031439  0.002
C  C99  1  0.19537708  0.51372575  0.74083937  1  0.004697  0.004632  -0.00086  0.037705  0.003407  4.031554  0.002
C  C100  1  0.69535953  0.01372732  0.75916562  1  0.00466  0.00463  -0.000763  0.037788  0.003405  4.031261  0.002
C  C101  1  0.80463050  0.48627558  0.25916364  1  0.00494  0.004626  -0.000748  0.037762  0.003401  4.031553  0.002
C  C102  1  0.26631496  0.02949035  0.30044495  1  -0.068636  0.006164  -0.081585  -0.156869  0.004519  3.954165  0.003
C  C103  1  0.23370104  0.47051364  0.80045405  1  -0.068887  0.006161  -0.081602  -0.156969  0.004516  3.954264  0.003
C  C104  1  0.73368895  0.97051816  0.69955094  1  -0.068094  0.006159  -0.081537  -0.156838  0.004514  3.954068  0.003
C  C105  1  0.76630055  0.52948687  0.19955115  1  -0.069033  0.006162  -0.081582  -0.156884  0.004517  3.954289  0.003
C  C106  1  0.39647388  0.94438057  0.25843705  1  0.433425  0.00575  0.101718  0.190677  0.004347  4.021409  0.003
C  C107  1  0.10354680  0.55561996  0.75845067  1  0.434444  0.005749  0.101957  0.191002  0.004347  4.021194  0.003
C  C108  1  0.60353263  0.05562581  0.74155775  1  0.433411  0.005745  0.101825  0.190741  0.004343  4.021195  0.003
C  C109  1  0.89645812  0.44437626  0.24155234  1  0.433977  0.00575  0.101823  0.190789  0.004348  4.021291  0.003
C  C110  1  0.45411601  0.67405347  0.33564001  1  0.413825  0.005092  0.034397  0.057038  0.003736  4.001004  0.003
C  C111  1  0.04588129  0.82594142  0.83564521  1  0.414237  0.005093  0.034504  0.057182  0.003737  4.000792  0.003
C  C112  1  0.54587677  0.32594255  0.66436081  1  0.414099  0.005098  0.03443  0.057049  0.003741  4.000781  0.003
C  C113  1  0.95411806  0.17405833  0.16436164  1  0.414136  0.005097  0.034459  0.057226  0.00374  4.000656  0.003
C  C114  1  0.21207263  0.71380377  0.20247766  1  -0.021058  0.018496  -0.083777  -0.080365  0.014462  4.003542  0.011
C  C115  1  0.28793405  0.78618094  0.70248534  1  -0.021299  0.018493  -0.083834  -0.080612  0.014456  4.003793  0.011
C  C116  1  0.78794664  0.28620933  0.79751714  1  -0.020069  0.018501  -0.083785  -0.080475  0.014467  4.003364  0.011
C  C117  1  0.71204873  0.21380478  0.29751384  1  -0.020783  0.018504  -0.08391  -0.080835  0.014466  4.003638  0.011
C  C118  1  0.39749708  0.68438327  0.26956144  1  0.076891  0.004566  -0.083248  -0.158643  0.003507  3.962463  0.003
C  C119  1  0.10250249  0.81560903  0.76956522  1  0.076664  0.004565  -0.083251  -0.158654  0.003506  3.962501  0.003
C  C120  1  0.60250582  0.31561798  0.73043719  1  0.076962  0.004566  -0.083208  -0.158639  0.003506  3.962489  0.003
C  C121  1  0.89748859  0.18438552  0.23043780  1  0.076584  0.004565  -0.083208  -0.158663  0.003506  3.962394  0.003
C  C122  1  0.21464246  0.67658413  0.13558055  1  -0.037173  0.002027  -0.08597  -0.216208  0.000324  3.873782  0.0
C  C123  1  0.28537349  0.82340607  0.63559012  1  -0.036427  0.002028  -0.085819  -0.215758  0.000324  3.87346  0.0
C  C124  1  0.78537940  0.32342684  0.86441424  1  -0.036715  0.002031  -0.085939  -0.216053  0.000329  3.873729  0.0
C  C125  1  0.71460102  0.17657445  0.36440851  1  -0.036561  0.002027  -0.085967  -0.215864  0.000325  3.873686  0.0
C  C126  1  0.58583673  0.70451312  0.67816589  1  0.649547  0.005105  0.030607  -0.068303  0.004321  4.001342  0.003
C  C127  1  0.91417763  0.79549288  0.17816658  1  0.649415  0.005106  0.030683  -0.068238  0.004322  4.001619  0.003
C  C128  1  0.41415345  0.29548504  0.32183493  1  0.64979  0.005099  0.030636  -0.06826  0.004316  4.001516  0.003
C  C129  1  0.08582604  0.20450984  0.82183150  1  0.649423  0.005098  0.030678  -0.068195  0.004315  4.001503  0.003
C  C130  1  0.71111590  0.58023576  0.68986550  1  0.412643  0.008285  0.106244  0.215932  0.006245  4.030615  0.005
C  C131  1  0.78890153  0.91977109  0.18986372  1  0.413105  0.008282  0.106185  0.215911  0.006243  4.030742  0.005
C  C132  1  0.28888517  0.41976909  0.31013477  1  0.412811  0.008283  0.106278  0.216078  0.006244  4.03053  0.005
C  C133  1  0.21109896  0.08023085  0.81013272  1  0.412816  0.008284  0.106168  0.215743  0.006245  4.030566  0.005
C  C134  1  0.20012552  0.04583873  0.14267061  1  -0.062285  0.000257  -0.092537  -0.224695  -0.001895  3.918836  -0.002
C  C135  1  0.29988488  0.45416483  0.64267875  1  -0.06326  0.000265  -0.092524  -0.224864  -0.001886  3.918704  -0.002
C  C136  1  0.79986864  0.95416529  0.85733131  1  -0.062817  0.000264  -0.092543  -0.224753  -0.001887  3.918891  -0.002
C  C137  1  0.70011259  0.54583490  0.35732535  1  -0.06324  0.000262  -0.092614  -0.224976  -0.00189  3.91873  -0.002
C  C138  1  0.44335403  0.94452537  0.32925374  1  0.588446  0.005618  0.037833  -0.040099  0.004522  3.981783  0.003
C  C139  1  0.05665283  0.55546818  0.82926593  1  0.588183  0.005626  0.037869  -0.039911  0.00453  3.981771  0.003
C  C140  1  0.55664023  0.05546995  0.67074325  1  0.588511  0.005625  0.037858  -0.040029  0.004528  3.981517  0.003
C  C141  1  0.94335699  0.44453391  0.17073928  1  0.588171  0.005619  0.037857  -0.039999  0.004523  3.981877  0.003
C  C142  1  0.25407908  0.98366374  0.16650290  1  -0.029576  0.023244  -0.077575  -0.070464  0.018165  3.949355  0.014
C  C143  1  0.24594295  0.51634777  0.66650850  1  -0.028764  0.023242  -0.077435  -0.070148  0.018163  3.9492  0.014
C  C144  1  0.74592521  0.01634551  0.83349848  1  -0.029577  0.023232  -0.077551  -0.070409  0.018154  3.949364  0.014
C  C145  1  0.75406128  0.48365423  0.33349507  1  -0.029054  0.023245  -0.077451  -0.070159  0.018165  3.949178  0.014
C  C146  1  0.31909026  0.02993658  0.36974781  1  0.536777  0.003958  0.042508  0.071712  0.002925  3.953058  0.002
C  C147  1  0.18092112  0.47006202  0.86975660  1  0.536958  0.003965  0.042457  0.071565  0.002931  3.952926  0.002
C  C148  1  0.68090777  0.97006242  0.63024863  1  0.536607  0.003966  0.042436  0.071591  0.002932  3.953078  0.002
C  C149  1  0.81908366  0.52993927  0.13024970  1  0.537041  0.00396  0.042508  0.071605  0.002927  3.952826  0.002
C  C150  1  0.27950616  0.68583083  0.40219183  1  0.582326  0.006165  0.049268  -0.012081  0.004878  3.942968  0.003
C  C151  1  0.22048857  0.81415724  0.90219562  1  0.582219  0.006167  0.049324  -0.011986  0.004879  3.942864  0.003
C  C152  1  0.72048858  0.31417610  0.59780351  1  0.582487  0.006173  0.049407  -0.011953  0.004884  3.942718  0.003
C  C153  1  0.77951406  0.18583459  0.09780247  1  0.582345  0.006172  0.049341  -0.011931  0.004883  3.942772  0.003
C  C154  1  0.21896148  0.69732826  0.33791572  1  0.426006  0.004937  0.106222  0.197764  0.003549  4.018655  0.003
C  C155  1  0.28102712  0.80265710  0.83791970  1  0.425892  0.004935  0.106223  0.197764  0.003547  4.018701  0.003
C  C156  1  0.78104268  0.30268606  0.66207908  1  0.425669  0.004939  0.106163  0.197483  0.00355  4.018793  0.003
C  C157  1  0.71896542  0.19733313  0.16207564  1  0.426  0.004937  0.10624  0.197669  0.003549  4.018611  0.003
N  N158  1  0.39710071  0.67490585  0.40122267  1  -1.22767  0.050105  -0.305877  -0.214561  0.035676  3.49094  0.02
N  N159  1  0.10289500  0.82508584  0.90122815  1  -1.227815  0.050097  -0.306011  -0.214692  0.035676  3.49092  0.02
N  N160  1  0.60289096  0.32509160  0.59877542  1  -1.2279  0.050126  -0.306083  -0.214617  0.03569  3.490959  0.02
N  N161  1  0.89710881  0.17491181  0.09877596  1  -1.227813  0.050121  -0.306012  -0.214707  0.035685  3.49086  0.02
N  N162  1  0.59989186  0.65795628  0.61776214  1  -1.226933  0.054385  -0.300847  -0.171905  0.039238  3.522455  0.025
N  N163  1  0.90012698  0.84204793  0.11776373  1  -1.227414  0.054382  -0.300812  -0.171748  0.039232  3.522629  0.025
N  N164  1  0.40009586  0.34203894  0.38223923  1  -1.227016  0.054376  -0.300799  -0.171871  0.039225  3.522432  0.025
N  N165  1  0.09987856  0.15795482  0.88223490  1  -1.227301  0.054365  -0.300785  -0.171732  0.039227  3.522375  0.025
N  N166  1  0.40650352  0.98806389  0.38457663  1  -1.244786  0.051776  -0.302188  -0.206551  0.037199  3.478865  0.023
N  N167  1  0.09349964  0.51192926  0.88458344  1  -1.244888  0.051796  -0.302242  -0.206646  0.037208  3.479287  0.023
N  N168  1  0.59348676  0.01192558  0.61542310  1  -1.24501  0.051792  -0.302265  -0.206677  0.037205  3.47916  0.023
N  N169  1  0.90650925  0.48807281  0.11542122  1  -1.244705  0.051791  -0.30224  -0.206579  0.037199  3.478923  0.023
O  O170  1  0.13663525  0.97788809  0.02289787  1  -1.209097  0.064826  -0.314316  -0.563198  0.045635  2.329111  0.029
O  O171  1  0.36337889  0.52211362  0.52290517  1  -1.209006  0.064845  -0.31421  -0.562988  0.045647  2.329044  0.029
O  O172  1  0.86336883  0.02211898  0.97710186  1  -1.209174  0.064791  -0.314478  -0.563385  0.045635  2.329087  0.029
O  O173  1  0.63662229  0.47788253  0.47709511  1  -1.208997  0.064804  -0.314303  -0.56316  0.045639  2.328953  0.029
O  O174  1  0.12672385  0.64689148  0.01498875  1  -1.19286  0.061069  -0.313761  -0.565072  0.041438  2.342585  0.024
O  O175  1  0.37328097  0.85310279  0.51499373  1  -1.192658  0.061058  -0.313883  -0.565125  0.041436  2.342348  0.024
O  O176  1  0.87328674  0.35311207  0.98500934  1  -1.192872  0.061086  -0.313857  -0.565113  0.041442  2.342337  0.024
O  O177  1  0.62671513  0.14688894  0.48500764  1  -1.192886  0.061076  -0.31385  -0.565145  0.041447  2.342398  0.024
O  O178  1  0.86368969  0.68324330  0.00502910  1  -1.193154  0.05862  -0.314881  -0.563289  0.03974  2.327434  0.023
O  O179  1  0.63632063  0.81675420  0.50503164  1  -1.193272  0.05861  -0.314834  -0.563199  0.039728  2.327331  0.023
O  O180  1  0.13632280  0.31676390  0.99497117  1  -1.192981  0.058628  -0.314949  -0.563332  0.039741  2.327624  0.023
O  O181  1  0.36367301  0.18323459  0.49496590  1  -1.193112  0.058625  -0.31496  -0.563312  0.039743  2.32741  0.023
O  O182  1  0.13479855  0.12554796  0.04990337  1  -1.185793  0.067906  -0.309294  -0.560748  0.049188  2.312733  0.034
O  O183  1  0.36519713  0.37444459  0.54990742  1  -1.185847  0.06789  -0.309287  -0.560673  0.049185  2.31302  0.034
O  O184  1  0.86519558  0.87445243  0.95010238  1  -1.185771  0.067897  -0.309194  -0.560681  0.049177  2.312634  0.034
O  O185  1  0.63480312  0.62555156  0.45009942  1  -1.185755  0.067884  -0.309289  -0.560738  0.049174  2.312893  0.034
O  O186  1  0.13163815  0.78166774  0.07353389  1  -1.189556  0.069728  -0.306934  -0.560404  0.050642  2.316583  0.036
O  O187  1  0.36836777  0.71832478  0.57353474  1  -1.189653  0.069707  -0.30685  -0.560243  0.050633  2.316725  0.036
O  O188  1  0.86838164  0.21834103  0.92646201  1  -1.189361  0.069719  -0.306975  -0.560377  0.05064  2.316491  0.036
O  O189  1  0.63161594  0.28166096  0.42646608  1  -1.189523  0.069716  -0.306956  -0.56035  0.05064  2.316709  0.036
O  O190  1  0.84808026  0.54321495  0.94980452  1  -1.19037  0.070488  -0.30802  -0.559765  0.051172  2.285366  0.038
O  O191  1  0.65190429  0.95677432  0.44980304  1  -1.190584  0.070482  -0.308057  -0.559886  0.051172  2.285268  0.038
O  O192  1  0.15190245  0.45678309  0.05020068  1  -1.190078  0.070477  -0.308025  -0.559764  0.051169  2.285231  0.038
O  O193  1  0.34809948  0.04321970  0.55019778  1  -1.190075  0.070488  -0.308101  -0.559886  0.051175  2.28529  0.038
F  F194  1  0.44281293  0.90292790  0.20447626  1  -0.633359  0.001768  -0.088271  -0.125031  0.001087  1.404531  0.001
F  F195  1  0.05720781  0.59708386  0.70448926  1  -0.633758  0.001768  -0.088382  -0.125249  0.001087  1.404395  0.001
F  F196  1  0.55720399  0.09709314  0.79551690  1  -0.633332  0.001767  -0.08834  -0.12505  0.001087  1.404379  0.001
F  F197  1  0.94278358  0.40290418  0.29551431  1  -0.63363  0.001769  -0.088375  -0.125177  0.001087  1.40423  0.001
F  F198  1  0.60926846  0.73577130  0.80474629  1  -0.627198  0.002055  -0.073698  -0.108305  0.001233  1.41374  0.001
F  F199  1  0.89075056  0.76424143  0.30474579  1  -0.627351  0.002054  -0.073716  -0.108338  0.001233  1.413651  0.001
F  F200  1  0.39074331  0.26423806  0.19525344  1  -0.627308  0.002055  -0.073737  -0.108321  0.001233  1.413528  0.001
F  F201  1  0.10925577  0.23576640  0.69525285  1  -0.627349  0.002055  -0.073763  -0.108366  0.001232  1.413689  0.001
F  F202  1  0.10078556  0.70911272  0.34271543  1  -0.62462  0.001313  -0.094111  -0.131261  0.000728  1.370937  0.001
F  F203  1  0.39919949  0.79085885  0.84271880  1  -0.624607  0.001312  -0.094147  -0.131317  0.000728  1.370904  0.001
F  F204  1  0.89922914  0.29091118  0.65727773  1  -0.624162  0.001313  -0.09405  -0.13116  0.000728  1.371051  0.001
F  F205  1  0.60078471  0.20911893  0.15727490  1  -0.624623  0.001313  -0.094134  -0.131272  0.000728  1.370818  0.001
F  F206  1  0.77863695  0.52055376  0.69157998  1  -0.645752  0.002152  -0.080585  -0.121126  0.001147  1.445878  0.001
F  F207  1  0.72138064  0.97945165  0.19157888  1  -0.645945  0.002152  -0.080566  -0.121127  0.001147  1.445874  0.001
F  F208  1  0.22136188  0.47945032  0.30842030  1  -0.645841  0.002152  -0.080636  -0.121197  0.001147  1.445887  0.001
F  F209  1  0.27861964  0.02054811  0.80841866  1  -0.645965  0.002152  -0.080568  -0.121081  0.001147  1.445672  0.001
