# generated using pymatgen
data_Zn2H22C22N2O11
_symmetry_space_group_name_H-M   'P 1'
_cell_length_a   12.93648845
_cell_length_b   14.22870643
_cell_length_c   17.49426199
_cell_angle_alpha   96.77980256
_cell_angle_beta   90.00014888
_cell_angle_gamma   90.00012904
_symmetry_Int_Tables_number   1
_chemical_formula_structural   Zn2H22C22N2O11
_chemical_formula_sum   'Zn8 H88 C88 N8 O44'
_cell_volume   3197.64201176
_cell_formula_units_Z   4
loop_
 _symmetry_equiv_pos_site_id
 _symmetry_equiv_pos_as_xyz
  1  'x, y, z'
loop_
 _atom_site_type_symbol
 _atom_site_label
 _atom_site_symmetry_multiplicity
 _atom_site_fract_x
 _atom_site_fract_y
 _atom_site_fract_z
 _atom_site_occupancy
 _atom_site_pbe_bader_charge
 _atom_site_pbe_bader_spin_density
 _atom_site_pbe_cm5_charge
 _atom_site_pbe_ddec_charge
 _atom_site_pbe_ddec_spin_density
 _atom_site_pbe_ddec_sum_bond_order
 _atom_site_pbe_magmom
Zn  Zn0  1  0.44911663  0.97928155  0.28324880  1  1.319414  0  0.684159  0.926989  0  2.344259  0
Zn  Zn1  1  0.94911408  0.52071887  0.21674701  1  1.319531  0  0.684153  0.926947  0  2.344423  0
Zn  Zn2  1  0.55088417  0.02072022  0.71674745  1  1.319293  0  0.684145  0.926946  0  2.344313  0
Zn  Zn3  1  0.05088673  0.47928220  0.78325032  1  1.319389  0  0.684111  0.926958  0  2.344387  0
Zn  Zn4  1  0.28173398  0.93053540  0.15479635  1  1.387177  0  0.707072  0.992752  0  2.220138  0
Zn  Zn5  1  0.78173277  0.56946747  0.34520164  1  1.38692  0  0.707122  0.992823  0  2.220028  0
Zn  Zn6  1  0.71826528  0.06946638  0.84520162  1  1.386867  0  0.707123  0.992773  0  2.220006  0
Zn  Zn7  1  0.21826803  0.43053149  0.65479722  1  1.386987  0  0.707075  0.992753  0  2.220035  0
H  H8  1  0.10955126  0.76483795  0.28052734  1  0.126409  0  0.111598  0.125201  0  1.002707  0
H  H9  1  0.60954615  0.73516734  0.21946996  1  0.126498  0  0.111616  0.125215  0  1.002705  0
H  H10  1  0.89045341  0.23517090  0.71947069  1  0.126487  0  0.111626  0.12524  0  1.002682  0
H  H11  1  0.39044692  0.26482880  0.78052922  1  0.126509  0  0.111632  0.125242  0  1.0026  0
H  H12  1  0.04622834  0.67851015  0.50279888  1  0.079637  0  0.106338  0.10516  0  1.026647  0
H  H13  1  0.54622210  0.82148823  0.99719282  1  0.079778  0  0.106297  0.105085  0  1.026502  0
H  H14  1  0.95377556  0.32148946  0.49719432  1  0.079765  0  0.106302  0.105121  0  1.02652  0
H  H15  1  0.45377561  0.17851284  0.00280452  1  0.079798  0  0.106312  0.105133  0  1.026538  0
H  H16  1  0.30932617  0.85686679  0.46938115  1  0.095383  0  0.102824  0.100845  0  1.042507  0
H  H17  1  0.80932094  0.64313048  0.03061524  1  0.095036  0  0.102858  0.100909  0  1.042503  0
H  H18  1  0.69068082  0.14312721  0.53061612  1  0.095051  0  0.102861  0.100901  0  1.042496  0
H  H19  1  0.19067677  0.35686920  0.96938425  1  0.095072  0  0.102828  0.100863  0  1.042537  0
H  H20  1  0.12907783  0.63932422  0.59629835  1  0.121967  0  0.109323  0.121754  0  1.009706  0
H  H21  1  0.62906673  0.86066944  0.90369766  1  0.121729  0  0.109322  0.121686  0  1.009872  0
H  H22  1  0.87092916  0.36067260  0.40369860  1  0.121717  0  0.109333  0.12173  0  1.009659  0
H  H23  1  0.37093717  0.13933380  0.09630444  1  0.121722  0  0.109311  0.12157  0  1.009875  0
H  H24  1  0.27995701  0.77859101  0.79762846  1  0.115415  0  0.107687  0.111318  0  1.01014  0
H  H25  1  0.77996418  0.72141363  0.70236882  1  0.115301  0  0.107727  0.111349  0  1.009975  0
H  H26  1  0.72003838  0.22141503  0.20237046  1  0.115351  0  0.107746  0.111399  0  1.009955  0
H  H27  1  0.22003972  0.27859032  0.29763334  1  0.115328  0  0.107724  0.111335  0  1.009988  0
H  H28  1  0.30430419  0.89597226  0.58427479  1  0.082598  0  0.100719  0.100434  0  1.045394  0
H  H29  1  0.80430332  0.60402395  0.91572235  1  0.082593  0  0.100693  0.100373  0  1.045385  0
H  H30  1  0.69569506  0.10402598  0.41572229  1  0.082633  0  0.100676  0.100374  0  1.045447  0
H  H31  1  0.19569207  0.39597432  0.08427759  1  0.082608  0  0.100666  0.100314  0  1.045446  0
H  H32  1  0.29769149  0.75922879  0.01549567  1  0.108407  0  0.126203  0.052318  0  0.989958  0
H  H33  1  0.79768810  0.74076363  0.48451228  1  0.108277  0  0.126161  0.052276  0  0.989939  0
H  H34  1  0.70230777  0.24076386  0.98450720  1  0.108601  0  0.126171  0.052284  0  0.989969  0
H  H35  1  0.20231038  0.25922691  0.51549098  1  0.108098  0  0.126193  0.052325  0  0.989922  0
H  H36  1  0.05926449  0.73058178  0.11735640  1  0.126864  0  0.117442  0.143438  0  0.983031  0
H  H37  1  0.55926777  0.76941918  0.38264270  1  0.126842  0  0.117451  0.143427  0  0.983085  0
H  H38  1  0.94072781  0.26941646  0.88264068  1  0.126805  0  0.117443  0.143424  0  0.983068  0
H  H39  1  0.44072994  0.23057915  0.61736182  1  0.126784  0  0.117425  0.143423  0  0.983056  0
H  H40  1  0.08353984  0.60576406  0.11157418  1  0.094054  0  0.108241  0.131848  0  1.007542  0
H  H41  1  0.58354732  0.89423557  0.38842771  1  0.094073  0  0.10826  0.131849  0  1.007584  0
H  H42  1  0.91644627  0.39423702  0.88842429  1  0.094044  0  0.108298  0.131895  0  1.007403  0
H  H43  1  0.41645116  0.10576349  0.61157916  1  0.093958  0  0.108295  0.131858  0  1.007481  0
H  H44  1  0.01138804  0.65179232  0.03750839  1  0.060032  0  0.106261  0.119955  0  0.988882  0
H  H45  1  0.51139335  0.84820779  0.46248883  1  0.060114  0  0.106275  0.120022  0  0.988893  0
H  H46  1  0.98860503  0.34821087  0.96248913  1  0.060122  0  0.106256  0.119999  0  0.988838  0
H  H47  1  0.48860746  0.15178914  0.53751785  1  0.060035  0  0.106266  0.120017  0  0.988868  0
H  H48  1  0.15392204  0.57822930  0.93961962  1  0.098639  0  0.10721  0.137076  0  1.014501  0
H  H49  1  0.65391838  0.92176591  0.56038229  1  0.098512  0  0.107156  0.136995  0  1.014562  0
H  H50  1  0.84607876  0.42176546  0.06038230  1  0.098567  0  0.107142  0.136963  0  1.014527  0
H  H51  1  0.34608552  0.07822607  0.43962395  1  0.098624  0  0.107118  0.136939  0  1.014551  0
H  H52  1  0.21982156  0.53683319  0.01922616  1  0.054105  0  0.104285  0.117847  0  0.995123  0
H  H53  1  0.71982721  0.96316185  0.48078016  1  0.054081  0  0.104293  0.117786  0  0.995142  0
H  H54  1  0.78017229  0.46316301  0.98077874  1  0.054022  0  0.104328  0.117846  0  0.99508  0
H  H55  1  0.28018055  0.03683086  0.51922843  1  0.05401  0  0.104273  0.117797  0  0.995246  0
H  H56  1  0.28282960  0.61497050  0.96089543  1  0.071883  0  0.113238  0.126649  0  0.979822  0
H  H57  1  0.78282731  0.88502227  0.53911395  1  0.071752  0  0.113218  0.126539  0  0.979848  0
H  H58  1  0.71716657  0.38502361  0.03911158  1  0.071694  0  0.113208  0.126522  0  0.979896  0
H  H59  1  0.21717427  0.11496406  0.46089294  1  0.07172  0  0.113218  0.126589  0  0.979836  0
H  H60  1  0.14655694  0.06421426  0.05123639  1  0.12658  0  0.131616  0.062222  0  0.968766  0
H  H61  1  0.64655082  0.43579580  0.44876140  1  0.126559  0  0.131536  0.062213  0  0.968866  0
H  H62  1  0.85344000  0.93578828  0.94876621  1  0.126566  0  0.131591  0.06219  0  0.96875  0
H  H63  1  0.35344921  0.56420672  0.55123835  1  0.126559  0  0.131561  0.062231  0  0.968874  0
H  H64  1  0.03821154  0.16983229  0.01845685  1  0.069888  0  0.110751  0.121017  0  0.993301  0
H  H65  1  0.53820373  0.33017683  0.48154237  1  0.070346  0  0.110768  0.121074  0  0.99339  0
H  H66  1  0.96179081  0.83017519  0.98154449  1  0.07027  0  0.11076  0.121094  0  0.993365  0
H  H67  1  0.46180094  0.66982146  0.51845929  1  0.070421  0  0.110735  0.121038  0  0.993316  0
H  H68  1  0.99742263  0.25824978  0.09437053  1  0.110351  0  0.108866  0.134406  0  0.996967  0
H  H69  1  0.49741653  0.24175615  0.40562757  1  0.110231  0  0.108871  0.134461  0  0.997011  0
H  H70  1  0.00258204  0.74175558  0.90563118  1  0.11024  0  0.108853  0.13443  0  0.997071  0
H  H71  1  0.50258582  0.75824071  0.59437339  1  0.110261  0  0.108894  0.134468  0  0.9971  0
H  H72  1  0.91421131  0.16162357  0.06267537  1  0.086746  0  0.107741  0.127858  0  0.983105  0
H  H73  1  0.41420169  0.33838289  0.43732376  1  0.086566  0  0.107718  0.127785  0  0.983103  0
H  H74  1  0.08579182  0.83838462  0.93732659  1  0.086611  0  0.107751  0.127825  0  0.983177  0
H  H75  1  0.58579911  0.66161544  0.56268133  1  0.0865  0  0.107711  0.127716  0  0.983203  0
H  H76  1  0.03951359  0.09534627  0.24248375  1  0.108794  0  0.116347  0.139358  0  0.986946  0
H  H77  1  0.53950285  0.40465717  0.25751325  1  0.072658  0  0.116338  0.139333  0  0.987004  0
H  H78  1  0.96048876  0.90465766  0.75751669  1  0.108736  0  0.116375  0.139356  0  0.987049  0
H  H79  1  0.46049255  0.59534113  0.74248898  1  0.072552  0  0.116401  0.139439  0  0.987037  0
H  H80  1  0.91530841  0.12182321  0.20444603  1  0.063949  0  0.109064  0.128141  0  0.983443  0
H  H81  1  0.41529607  0.37817971  0.29555222  1  0.063788  0  0.109044  0.128124  0  0.983351  0
H  H82  1  0.08469704  0.87818214  0.79555454  1  0.063886  0  0.109039  0.12809  0  0.98341  0
H  H83  1  0.58470087  0.62181932  0.70445179  1  0.064045  0  0.109073  0.128206  0  0.98335  0
H  H84  1  0.00474075  0.21505461  0.23093425  1  0.105504  0  0.107571  0.126674  0  0.996297  0
H  H85  1  0.50473285  0.28494808  0.26906662  1  0.10547  0  0.107593  0.126719  0  0.996228  0
H  H86  1  0.99526160  0.78494933  0.76906734  1  0.105527  0  0.107525  0.126517  0  0.996243  0
H  H87  1  0.49526409  0.71505093  0.73093625  1  0.105487  0  0.107554  0.126655  0  0.996254  0
H  H88  1  0.37379203  0.95983867  0.91487399  1  0.616223  0  0.283527  0.394576  0  0.922904  0
H  H89  1  0.87379137  0.54016197  0.58512540  1  0.616234  0  0.283522  0.394565  0  0.922928  0
H  H90  1  0.62620800  0.04015960  0.08512538  1  0.616285  0  0.283504  0.394562  0  0.922937  0
H  H91  1  0.12620325  0.45983416  0.41487321  1  0.616216  0  0.283522  0.394569  0  0.922913  0
H  H92  1  0.40134600  0.94027774  0.99878195  1  0.603626  0  0.281436  0.37038  0  0.957746  0
H  H93  1  0.90135128  0.55972157  0.50121908  1  0.603585  0  0.281413  0.37036  0  0.95777  0
H  H94  1  0.59865094  0.05971912  0.00121844  1  0.603612  0  0.281423  0.370383  0  0.957754  0
H  H95  1  0.09865494  0.44027459  0.49878182  1  0.603566  0  0.281431  0.370384  0  0.957749  0
C  C96  1  0.21358822  0.81905770  0.37132293  1  -0.025929  0  -0.020675  -0.038555  0  4.004499  0
C  C97  1  0.71358343  0.68094358  0.12867307  1  -0.025357  0  -0.020656  -0.038464  0  4.004582  0
C  C98  1  0.78641567  0.18094479  0.62867453  1  -0.025469  0  -0.020649  -0.038444  0  4.004527  0
C  C99  1  0.28641351  0.31905255  0.87132496  1  -0.025573  0  -0.020723  -0.038569  0  4.004732  0
C  C100  1  0.12887578  0.76661504  0.34115707  1  -0.021095  0  -0.07025  -0.088458  0  3.905434  0
C  C101  1  0.62886968  0.73339030  0.15884027  1  -0.021565  0  -0.070268  -0.088464  0  3.905518  0
C  C102  1  0.87112811  0.23339310  0.65884032  1  -0.021594  0  -0.070311  -0.088529  0  3.905657  0
C  C103  1  0.37112571  0.26660798  0.84116024  1  -0.021518  0  -0.07027  -0.088498  0  3.905582  0
C  C104  1  0.06938207  0.71576695  0.38897115  1  0.049735  0  -0.016617  -0.034213  0  3.989352  0
C  C105  1  0.56937515  0.78423115  0.11102315  1  0.050237  0  -0.016654  -0.034179  0  3.989319  0
C  C106  1  0.93062337  0.28423410  0.61102390  1  0.049863  0  -0.016608  -0.03415  0  3.98957  0
C  C107  1  0.43061947  0.21576427  0.88897425  1  0.049859  0  -0.016635  -0.034106  0  3.989554  0
C  C108  1  0.09423671  0.71808428  0.46677686  1  -0.047961  0  -0.070649  -0.113846  0  3.910088  0
C  C109  1  0.59423029  0.78191032  0.03321603  1  -0.048353  0  -0.070598  -0.113747  0  3.909898  0
C  C110  1  0.90576796  0.28191535  0.53321806  1  -0.048246  0  -0.070582  -0.113767  0  3.90997  0
C  C111  1  0.40576974  0.21808580  0.96678086  1  -0.04825  0  -0.070583  -0.113778  0  3.909898  0
C  C112  1  0.18102313  0.76845673  0.49757527  1  -0.007147  0  -0.009497  0.062323  0  4.012046  0
C  C113  1  0.68101338  0.73154235  0.00242104  1  -0.007999  0  -0.009534  0.062303  0  4.011911  0
C  C114  1  0.81898386  0.23154432  0.50242092  1  -0.008042  0  -0.00953  0.062225  0  4.012081  0
C  C115  1  0.31898201  0.26845591  0.99757775  1  -0.007986  0  -0.009524  0.062193  0  4.011966  0
C  C116  1  0.24031045  0.81819044  0.44860647  1  -0.060914  0  -0.078187  -0.134188  0  3.93324  0
C  C117  1  0.74030307  0.68180242  0.05138941  1  -0.060462  0  -0.078197  -0.13434  0  3.93329  0
C  C118  1  0.75969499  0.18180568  0.55139043  1  -0.060486  0  -0.078216  -0.134307  0  3.933356  0
C  C119  1  0.25969233  0.31819725  0.94860894  1  -0.060598  0  -0.078182  -0.134208  0  3.933342  0
C  C120  1  0.27593820  0.87514190  0.32069868  1  1.562994  0  0.224485  0.608535  0  4.151549  0
C  C121  1  0.77593499  0.62486523  0.17930139  1  1.562863  0  0.224448  0.608334  0  4.151691  0
C  C122  1  0.72406802  0.12486276  0.67930298  1  1.562769  0  0.224493  0.608386  0  4.15159  0
C  C123  1  0.22406349  0.37513516  0.82069816  1  1.562781  0  0.224462  0.608388  0  4.151594  0
C  C124  1  0.98275499  0.65666244  0.35340062  1  1.53308  0  0.226487  0.608149  0  4.14712  0
C  C125  1  0.48275286  0.84333875  0.14659475  1  1.533297  0  0.226581  0.608146  0  4.147444  0
C  C126  1  0.01724813  0.34334143  0.64659410  1  1.533647  0  0.22663  0.60826  0  4.147511  0
C  C127  1  0.51724330  0.15665668  0.85340380  1  1.533541  0  0.226509  0.608  0  4.147623  0
C  C128  1  0.20955730  0.76934059  0.57941986  1  -0.047114  0  -0.010399  0.061071  0  4.023038  0
C  C129  1  0.70955134  0.73065396  0.92057410  1  -0.045838  0  -0.010307  0.061199  0  4.023159  0
C  C130  1  0.79044892  0.23065976  0.42057569  1  -0.046205  0  -0.010367  0.061181  0  4.023177  0
C  C131  1  0.29045024  0.26934429  0.07942356  1  -0.045641  0  -0.010384  0.061247  0  4.023043  0
C  C132  1  0.17480133  0.69874089  0.62283417  1  -0.059952  0  -0.078997  -0.139684  0  3.911138  0
C  C133  1  0.67479308  0.80125147  0.87716181  1  -0.059939  0  -0.078965  -0.139621  0  3.911449  0
C  C134  1  0.82520102  0.30125384  0.37716488  1  -0.059721  0  -0.079007  -0.139695  0  3.911309  0
C  C135  1  0.32520850  0.19875108  0.12284137  1  -0.060137  0  -0.079007  -0.139618  0  3.911433  0
C  C136  1  0.19916203  0.70264685  0.70101583  1  -0.018134  0  -0.019871  -0.032993  0  4.014957  0
C  C137  1  0.69915967  0.79735264  0.79898026  1  -0.017819  0  -0.019905  -0.032985  0  4.014763  0
C  C138  1  0.80083878  0.29735279  0.29898023  1  -0.017981  0  -0.019865  -0.032926  0  4.014843  0
C  C139  1  0.30084345  0.20265273  0.20102203  1  -0.017826  0  -0.019829  -0.032908  0  4.01488  0
C  C140  1  0.26097957  0.77564387  0.73675082  1  -0.005957  0  -0.074777  -0.113927  0  3.950871  0
C  C141  1  0.76097691  0.72435717  0.76324381  1  -0.006313  0  -0.074757  -0.114042  0  3.950767  0
C  C142  1  0.73902355  0.22435931  0.26324556  1  -0.006131  0  -0.074846  -0.114157  0  3.950947  0
C  C143  1  0.23902389  0.27564677  0.23675663  1  -0.006394  0  -0.074762  -0.114013  0  3.95087  0
C  C144  1  0.30074771  0.84348277  0.69322238  1  -0.01096  0  -0.020094  -0.03114  0  3.996832  0
C  C145  1  0.80075045  0.65652121  0.80677488  1  -0.011064  0  -0.020118  -0.03105  0  3.996647  0
C  C146  1  0.69924922  0.15652042  0.30677514  1  -0.011043  0  -0.020086  -0.031043  0  3.996712  0
C  C147  1  0.19925035  0.34348131  0.19322544  1  -0.011058  0  -0.020134  -0.031079  0  3.996697  0
C  C148  1  0.27359028  0.84059097  0.61570237  1  -0.059631  0  -0.082118  -0.136377  0  3.933588  0
C  C149  1  0.77358711  0.65940231  0.88429217  1  -0.059603  0  -0.082132  -0.136345  0  3.933325  0
C  C150  1  0.72641130  0.15940583  0.38429230  1  -0.059539  0  -0.082065  -0.136302  0  3.933334  0
C  C151  1  0.22641369  0.34059453  0.11570651  1  -0.059559  0  -0.082048  -0.136278  0  3.933309  0
C  C152  1  0.15701225  0.62975334  0.74695440  1  1.535977  0  0.209532  0.586764  0  4.169428  0
C  C153  1  0.65701068  0.87024960  0.75304305  1  1.535969  0  0.209555  0.586771  0  4.169407  0
C  C154  1  0.84298855  0.37024916  0.25304363  1  1.535984  0  0.209485  0.586742  0  4.169477  0
C  C155  1  0.34299167  0.12975505  0.24695860  1  1.536279  0  0.209533  0.586737  0  4.169532  0
C  C156  1  0.37660462  0.91624154  0.72819482  1  1.560533  0  0.200411  0.572416  0  4.213034  0
C  C157  1  0.87661092  0.58376614  0.77180119  1  1.560909  0  0.200392  0.572582  0  4.213013  0
C  C158  1  0.62339077  0.08376234  0.27180105  1  1.560794  0  0.200416  0.572541  0  4.212933  0
C  C159  1  0.12338370  0.41623707  0.22819747  1  1.560868  0  0.200382  0.572422  0  4.213268  0
C  C160  1  0.22360652  0.75988777  0.04672957  1  1.376817  0  0.181628  0.304457  0  4.093403  0
C  C161  1  0.72360844  0.74010931  0.45326836  1  1.376925  0  0.181625  0.304446  0  4.093293  0
C  C162  1  0.77639351  0.24010626  0.95327114  1  1.376849  0  0.181742  0.304559  0  4.093435  0
C  C163  1  0.27639237  0.25988684  0.54673139  1  1.377272  0  0.181714  0.304576  0  4.093371  0
C  C164  1  0.07545652  0.66631181  0.07845291  1  0.206607  0  -0.128866  -0.270098  0  3.859931  0
C  C165  1  0.57545933  0.83368707  0.42154719  1  0.206543  0  -0.128894  -0.270167  0  3.860119  0
C  C166  1  0.92453887  0.33368644  0.92154474  1  0.206649  0  -0.128915  -0.270174  0  3.85981  0
C  C167  1  0.42453916  0.16631055  0.57845842  1  0.206833  0  -0.128929  -0.27019  0  3.859932  0
C  C168  1  0.20900742  0.59741215  0.98646234  1  0.269714  0  -0.128373  -0.277368  0  3.90023  0
C  C169  1  0.70900896  0.90258251  0.51354191  1  0.269973  0  -0.12832  -0.277121  0  3.900339  0
C  C170  1  0.79098642  0.40258404  0.01354085  1  0.269997  0  -0.128363  -0.277154  0  3.90031  0
C  C171  1  0.29099339  0.09740877  0.48646484  1  0.269946  0  -0.128253  -0.27711  0  3.900348  0
C  C172  1  0.11930623  0.06824029  0.11128826  1  1.362106  0  0.185543  0.303557  0  4.083507  0
C  C173  1  0.61929834  0.43178240  0.38870660  1  1.361805  0  0.185739  0.303693  0  4.083535  0
C  C174  1  0.88069535  0.93177987  0.88870905  1  1.361697  0  0.185624  0.303744  0  4.083478  0
C  C175  1  0.38070556  0.56821515  0.61129214  1  1.361896  0  0.185655  0.303672  0  4.083643  0
C  C176  1  0.99532146  0.18257517  0.07273865  1  0.215777  0  -0.128133  -0.285048  0  3.907345  0
C  C177  1  0.49531562  0.31743148  0.42726066  1  0.215688  0  -0.128137  -0.285102  0  3.907621  0
C  C178  1  0.00468166  0.81743232  0.92726383  1  0.215678  0  -0.12812  -0.285111  0  3.907703  0
C  C179  1  0.50468750  0.68256753  0.57274221  1  0.215715  0  -0.128218  -0.285084  0  3.907669  0
C  C180  1  0.99769787  0.14061874  0.20665683  1  0.222313  0  -0.128887  -0.269461  0  3.86571  0
C  C181  1  0.49769089  0.35938436  0.29334045  1  0.257965  0  -0.128947  -0.269493  0  3.865664  0
C  C182  1  0.00230448  0.85938874  0.79334450  1  0.221915  0  -0.128886  -0.269272  0  3.865682  0
C  C183  1  0.50230682  0.64061182  0.70666160  1  0.258248  0  -0.129038  -0.269673  0  3.865785  0
N  N184  1  0.17158920  0.67855802  0.03734555  1  -1.210613  0  -0.273009  0.044621  0  3.716502  0
N  N185  1  0.67158516  0.82144114  0.46265990  1  -1.210554  0  -0.273019  0.044636  0  3.716479  0
N  N186  1  0.82840851  0.32144450  0.96265534  1  -1.210199  0  -0.27302  0.044548  0  3.716411  0
N  N187  1  0.32841178  0.17855436  0.53734494  1  -1.21037  0  -0.273016  0.04455  0  3.716464  0
N  N188  1  0.04121791  0.12784236  0.12926755  1  -1.210445  0  -0.272687  0.040854  0  3.72146  0
N  N189  1  0.54120903  0.37216393  0.37073200  1  -1.209286  0  -0.272678  0.040777  0  3.721175  0
N  N190  1  0.95878212  0.87215802  0.87073144  1  -1.209349  0  -0.272794  0.04067  0  3.721163  0
N  N191  1  0.45878945  0.62783933  0.62927182  1  -1.209852  0  -0.272559  0.040866  0  3.721138  0
O  O192  1  0.35281389  0.92172270  0.35214605  1  -1.164925  0  -0.315039  -0.548386  0  2.333603  0
O  O193  1  0.85281278  0.57827825  0.14785419  1  -1.164858  0  -0.315039  -0.54835  0  2.333581  0
O  O194  1  0.64718846  0.07827983  0.64785484  1  -1.164765  0  -0.315069  -0.548378  0  2.333556  0
O  O195  1  0.14718803  0.42172286  0.85214600  1  -1.164886  0  -0.315062  -0.548375  0  2.333598  0
O  O196  1  0.35740207  0.97861330  0.96926778  1  -1.23388  0  -0.622561  -0.790517  0  1.81504  0
O  O197  1  0.85740118  0.52138590  0.53073202  1  -1.233837  0  -0.622517  -0.790485  0  1.815082  0
O  O198  1  0.64259873  0.02138356  0.03073204  1  -1.233933  0  -0.622521  -0.790516  0  1.815072  0
O  O199  1  0.14259421  0.47861306  0.46926627  1  -1.233806  0  -0.62254  -0.790501  0  1.815045  0
O  O200  1  0.24732985  0.87239167  0.25107871  1  -1.182156  0  -0.31264  -0.558866  0  2.361617  0
O  O201  1  0.74732767  0.62762598  0.24891995  1  -1.182027  0  -0.312624  -0.558754  0  2.361678  0
O  O202  1  0.75267250  0.12762003  0.74892014  1  -1.181946  0  -0.312618  -0.558741  0  2.361613  0
O  O203  1  0.25267314  0.37238008  0.75108125  1  -1.181907  0  -0.312589  -0.558735  0  2.361664  0
O  O204  1  0.98332764  0.64251349  0.28040409  1  -1.157047  0  -0.317279  -0.558807  0  2.374501  0
O  O205  1  0.48332117  0.85748558  0.21959052  1  -1.157171  0  -0.317306  -0.558872  0  2.374843  0
O  O206  1  0.01667857  0.35748684  0.71959032  1  -1.157095  0  -0.317341  -0.558909  0  2.374824  0
O  O207  1  0.51667577  0.14251408  0.78040669  1  -1.157003  0  -0.31733  -0.558845  0  2.374713  0
O  O208  1  0.91403159  0.62452512  0.39663768  1  -1.174831  0  -0.308459  -0.568943  0  2.319154  0
O  O209  1  0.41402861  0.87547664  0.10335875  1  -1.174967  0  -0.308504  -0.5689  0  2.319073  0
O  O210  1  0.08597231  0.37547522  0.60335731  1  -1.175004  0  -0.308514  -0.568961  0  2.319183  0
O  O211  1  0.58596524  0.12452234  0.89664125  1  -1.174963  0  -0.308428  -0.568794  0  2.319182  0
O  O212  1  0.13077312  0.54806775  0.70836122  1  -1.173943  0  -0.334043  -0.617894  0  2.498963  0
O  O213  1  0.63076880  0.95192880  0.79163905  1  -1.173832  0  -0.334106  -0.617912  0  2.498988  0
O  O214  1  0.86922536  0.45193191  0.29163599  1  -1.173913  0  -0.334073  -0.617933  0  2.499054  0
O  O215  1  0.36923278  0.04807303  0.20836292  1  -1.174007  0  -0.334061  -0.617853  0  2.498916  0
O  O216  1  0.14258808  0.64755295  0.81756137  1  -1.167869  0  -0.30487  -0.534087  0  2.134071  0
O  O217  1  0.64258468  0.85244783  0.68243587  1  -1.167972  0  -0.304885  -0.534113  0  2.13409  0
O  O218  1  0.85741582  0.35244815  0.18243882  1  -1.167951  0  -0.304823  -0.534058  0  2.134144  0
O  O219  1  0.35741845  0.14755398  0.31756439  1  -1.16809  0  -0.304898  -0.534123  0  2.134262  0
O  O220  1  0.39323756  0.92711613  0.79888857  1  -1.181936  0  -0.319033  -0.54582  0  2.123757  0
O  O221  1  0.89324280  0.57288741  0.70111282  1  -1.182386  0  -0.319016  -0.545897  0  2.124029  0
O  O222  1  0.60676016  0.07288918  0.20110857  1  -1.182139  0  -0.319052  -0.545917  0  2.123811  0
O  O223  1  0.10675259  0.42711017  0.29888820  1  -1.182081  0  -0.319085  -0.545915  0  2.124  0
O  O224  1  0.42433315  0.96144419  0.67753537  1  -1.168284  0  -0.344314  -0.585464  0  2.320966  0
O  O225  1  0.92433487  0.53855796  0.82246196  1  -1.168089  0  -0.34431  -0.58558  0  2.320862  0
O  O226  1  0.57567075  0.03855616  0.32246076  1  -1.168287  0  -0.344287  -0.585497  0  2.320936  0
O  O227  1  0.07566284  0.46143960  0.17753734  1  -1.168369  0  -0.344256  -0.585396  0  2.321082  0
O  O228  1  0.19187319  0.83287238  0.08771731  1  -1.167722  0  -0.307708  -0.479146  0  2.409266  0
O  O229  1  0.69187246  0.66712753  0.41228768  1  -1.167769  0  -0.30767  -0.479089  0  2.409361  0
O  O230  1  0.80811988  0.16713090  0.91228823  1  -1.168354  0  -0.307771  -0.479146  0  2.409572  0
O  O231  1  0.30812371  0.33286790  0.58771144  1  -1.168142  0  -0.30777  -0.47919  0  2.409456  0
O  O232  1  0.15971753  0.01983142  0.15908970  1  -1.171134  0  -0.299568  -0.45766  0  2.44445  0
O  O233  1  0.65971036  0.48017225  0.34090297  1  -1.171317  0  -0.299651  -0.457701  0  2.444759  0
O  O234  1  0.84028560  0.98016754  0.84090801  1  -1.171311  0  -0.299512  -0.457652  0  2.444955  0
O  O235  1  0.34029044  0.51982954  0.65909557  1  -1.17136  0  -0.299567  -0.457654  0  2.444756  0
