# generated using pymatgen
data_Zn2H16C15(N6O)2
_symmetry_space_group_name_H-M   'P 1'
_cell_length_a   10.93310357
_cell_length_b   12.31497727
_cell_length_c   16.74097933
_cell_angle_alpha   89.99969435
_cell_angle_beta   94.78089896
_cell_angle_gamma   90.00003799
_symmetry_Int_Tables_number   1
_chemical_formula_structural   Zn2H16C15(N6O)2
_chemical_formula_sum   'Zn8 H64 C60 N48 O8'
_cell_volume   2246.17847615
_cell_formula_units_Z   4
loop_
 _symmetry_equiv_pos_site_id
 _symmetry_equiv_pos_as_xyz
  1  'x, y, z'
loop_
 _atom_site_type_symbol
 _atom_site_label
 _atom_site_symmetry_multiplicity
 _atom_site_fract_x
 _atom_site_fract_y
 _atom_site_fract_z
 _atom_site_occupancy
 _atom_site_pbe_bader_charge
 _atom_site_pbe_bader_spin_density
 _atom_site_pbe_cm5_charge
 _atom_site_pbe_ddec_charge
 _atom_site_pbe_ddec_spin_density
 _atom_site_pbe_ddec_sum_bond_order
 _atom_site_pbe_magmom
Zn  Zn0  1  0.72487982  0.73646631  0.59563413  1  1.19256  0  0.735377  0.666633  0  2.50403  0
Zn  Zn1  1  0.77512221  0.23646508  0.90436527  1  1.192527  0  0.735393  0.666648  0  2.503937  0
Zn  Zn2  1  0.27512829  0.26353380  0.40436776  1  1.192515  0  0.73544  0.666631  0  2.503958  0
Zn  Zn3  1  0.22487214  0.76353341  0.09563345  1  1.192465  0  0.73542  0.666627  0  2.503974  0
Zn  Zn4  1  0.20766260  0.74574559  0.46151769  1  1.193284  0  0.741748  0.669055  0  2.503397  0
Zn  Zn5  1  0.29233966  0.24574462  0.03848250  1  1.193221  0  0.741796  0.669156  0  2.503425  0
Zn  Zn6  1  0.79234460  0.25425372  0.53848235  1  1.19327  0  0.741764  0.669076  0  2.503377  0
Zn  Zn7  1  0.70765652  0.75425306  0.96151692  1  1.193297  0  0.741745  0.669001  0  2.503424  0
H  H8  1  0.06435991  0.63430901  0.20378449  1  0.050282  0  0.100357  0.144588  0  1.032868  0
H  H9  1  0.43564326  0.13431111  0.29621439  1  0.050374  0  0.100427  0.144727  0  1.032905  0
H  H10  1  0.93563718  0.36568948  0.79621677  1  0.050516  0  0.10041  0.144695  0  1.032877  0
H  H11  1  0.56435938  0.86568657  0.70378061  1  0.050342  0  0.100387  0.144631  0  1.032919  0
H  H12  1  0.00115053  0.68090802  0.29178683  1  0.063058  0  0.102676  0.152698  0  0.9883  0
H  H13  1  0.49885356  0.18091000  0.20821311  1  0.063021  0  0.102674  0.152703  0  0.988239  0
H  H14  1  0.99885021  0.31909178  0.70821592  1  0.063084  0  0.102659  0.152664  0  0.988383  0
H  H15  1  0.50114998  0.81908768  0.79178433  1  0.063066  0  0.10269  0.152709  0  0.98833  0
H  H16  1  0.11726978  0.57954772  0.29845944  1  0.092595  0  0.10163  0.155549  0  1.002266  0
H  H17  1  0.38273337  0.07954886  0.20154144  1  0.092646  0  0.101639  0.155554  0  1.002227  0
H  H18  1  0.88272915  0.42044996  0.70154193  1  0.092638  0  0.101638  0.155562  0  1.002284  0
H  H19  1  0.61726926  0.92045044  0.79845535  1  0.092702  0  0.101629  0.15554  0  1.002288  0
H  H20  1  0.46956905  0.95820526  0.35108131  1  0.096916  0  0.114401  0.143887  0  0.991382  0
H  H21  1  0.03043143  0.45820331  0.14891735  1  0.096934  0  0.11441  0.143893  0  0.991378  0
H  H22  1  0.53043542  0.04178917  0.64891380  1  0.09679  0  0.114434  0.143921  0  0.991291  0
H  H23  1  0.96956473  0.54178868  0.85108684  1  0.096929  0  0.114392  0.14384  0  0.991386  0
H  H24  1  0.34070214  0.99344423  0.40257577  1  0.077858  0  0.108261  0.127966  0  0.988405  0
H  H25  1  0.15929835  0.49344031  0.09742097  1  0.077888  0  0.108261  0.127992  0  0.988336  0
H  H26  1  0.65930691  0.00655264  0.59742080  1  0.07792  0  0.108272  0.127981  0  0.988223  0
H  H27  1  0.84069507  0.50655412  0.90258068  1  0.077919  0  0.108267  0.127995  0  0.988276  0
H  H28  1  0.49215048  0.66782436  0.66574887  1  0.07245  0  0.096176  0.135701  0  1.033614  0
H  H29  1  0.00785243  0.16782510  0.83425093  1  0.072459  0  0.096178  0.135735  0  1.03361  0
H  H30  1  0.50785855  0.33217494  0.33425068  1  0.072564  0  0.096148  0.135681  0  1.033686  0
H  H31  1  0.99213548  0.83217095  0.16575041  1  0.07264  0  0.096158  0.135704  0  1.033706  0
H  H32  1  0.35972831  0.62554189  0.60372755  1  0.082184  0  0.099766  0.149088  0  1.011737  0
H  H33  1  0.14027461  0.12554388  0.89627062  1  0.082228  0  0.09979  0.149132  0  1.011816  0
H  H34  1  0.64028259  0.37445336  0.39626852  1  0.082209  0  0.099765  0.149065  0  1.011831  0
H  H35  1  0.85971054  0.87444974  0.10373116  1  0.082314  0  0.099751  0.149059  0  1.011748  0
H  H36  1  0.35244538  0.74298321  0.66382141  1  0.082687  0  0.105428  0.160399  0  0.978078  0
H  H37  1  0.14755387  0.24298565  0.83617908  1  0.082676  0  0.105457  0.160502  0  0.978085  0
H  H38  1  0.64755816  0.25701284  0.33617603  1  0.082579  0  0.105432  0.16043  0  0.978081  0
H  H39  1  0.85243680  0.75700472  0.16382242  1  0.082479  0  0.105383  0.160405  0  0.97804  0
H  H40  1  0.01039775  0.99345607  0.68872594  1  0.058574  0  0.098138  0.147464  0  1.000302  0
H  H41  1  0.48960065  0.49345647  0.81127174  1  0.058603  0  0.098138  0.147464  0  1.000258  0
H  H42  1  0.98960672  0.00655054  0.31127096  1  0.058716  0  0.09808  0.147341  0  1.000179  0
H  H43  1  0.51039002  0.50654852  0.18872976  1  0.058584  0  0.0981  0.147412  0  1.000183  0
H  H44  1  0.89988342  0.89627458  0.71612869  1  0.04907  0  0.09471  0.138221  0  1.016916  0
H  H45  1  0.60011589  0.39627251  0.78387053  1  0.049014  0  0.094732  0.13823  0  1.017011  0
H  H46  1  0.10012835  0.10373040  0.28387401  1  0.049126  0  0.09473  0.138217  0  1.016933  0
H  H47  1  0.39987020  0.60372923  0.21612771  1  0.049106  0  0.09471  0.138199  0  1.01694  0
H  H48  1  0.85607267  0.00215299  0.64773152  1  0.057573  0  0.093144  0.136986  0  1.030727  0
H  H49  1  0.64392934  0.50215147  0.85226519  1  0.057566  0  0.093161  0.137022  0  1.030696  0
H  H50  1  0.14393087  0.99784793  0.35226771  1  0.057532  0  0.093161  0.136994  0  1.030754  0
H  H51  1  0.35606410  0.49785027  0.14773168  1  0.057553  0  0.093158  0.137006  0  1.030686  0
H  H52  1  0.97572449  0.62833528  0.42227029  1  0.051457  0  0.114103  0.13391  0  1.000749  0
H  H53  1  0.52427320  0.12833304  0.07772703  1  0.051409  0  0.114094  0.133886  0  1.000832  0
H  H54  1  0.02428270  0.37166159  0.57773215  1  0.051475  0  0.114118  0.13391  0  1.00086  0
H  H55  1  0.47571750  0.87166463  0.92226790  1  0.051494  0  0.114125  0.133894  0  1.000875  0
H  H56  1  0.83643583  0.70230539  0.40507937  1  0.082582  0  0.109865  0.135421  0  0.969183  0
H  H57  1  0.66356094  0.20230149  0.09492119  1  0.082216  0  0.109852  0.13538  0  0.969091  0
H  H58  1  0.16357044  0.29769310  0.59492302  1  0.08249  0  0.109828  0.135397  0  0.969171  0
H  H59  1  0.33642974  0.79769700  0.90507672  1  0.082483  0  0.10984  0.135418  0  0.969208  0
H  H60  1  0.61641431  0.37540742  0.63061775  1  0.03557  0  0.099358  0.145616  0  1.01699  0
H  H61  1  0.88358773  0.87540755  0.86938469  1  0.035605  0  0.099355  0.145583  0  1.016993  0
H  H62  1  0.38359105  0.62458863  0.36938219  1  0.035668  0  0.099364  0.145632  0  1.016866  0
H  H63  1  0.11640659  0.12459012  0.13061880  1  0.035671  0  0.09935  0.145595  0  1.016839  0
H  H64  1  0.52807572  0.48858354  0.59415492  1  0.046447  0  0.100342  0.151338  0  0.984974  0
H  H65  1  0.97192268  0.98858346  0.90584688  1  0.046469  0  0.100345  0.151343  0  0.984971  0
H  H66  1  0.47192597  0.51141170  0.40584541  1  0.046405  0  0.100353  0.151353  0  0.984951  0
H  H67  1  0.02806982  0.01140935  0.09415592  1  0.046367  0  0.100314  0.15129  0  0.984984  0
H  H68  1  0.63927182  0.50507863  0.67686659  1  0.082719  0  0.099183  0.144865  0  1.023106  0
H  H69  1  0.86073108  0.00507887  0.82313555  1  0.08273  0  0.099175  0.144856  0  1.023191  0
H  H70  1  0.36072893  0.49491661  0.32313727  1  0.082742  0  0.099223  0.144961  0  1.023083  0
H  H71  1  0.13927060  0.99491556  0.17686657  1  0.08268  0  0.099214  0.144917  0  1.023071  0
C  C72  1  0.08617286  0.65430151  0.26707003  1  -0.054135  0  -0.233355  -0.470878  0  3.926203  0
C  C73  1  0.41383120  0.15430001  0.23293360  1  -0.054261  0  -0.233434  -0.471021  0  3.926273  0
C  C74  1  0.91382790  0.34569860  0.73293204  1  -0.054451  0  -0.233364  -0.470951  0  3.926348  0
C  C75  1  0.58617232  0.84569524  0.76706683  1  -0.054251  0  -0.233385  -0.470947  0  3.926294  0
C  C76  1  0.18128089  0.74059481  0.27542964  1  0.991947  0  0.211027  0.375952  0  4.020013  0
C  C77  1  0.31872413  0.24059249  0.22457072  1  0.991908  0  0.210942  0.375789  0  4.020221  0
C  C78  1  0.81872265  0.25940368  0.72456840  1  0.991888  0  0.210942  0.375868  0  4.02013  0
C  C79  1  0.68128123  0.75940275  0.77543041  1  0.991799  0  0.211006  0.375982  0  4.020084  0
C  C80  1  0.31552498  0.85625871  0.32398045  1  0.980662  0  0.203692  0.321623  0  4.038557  0
C  C81  1  0.18447546  0.35625667  0.17602040  1  0.980668  0  0.203722  0.32165  0  4.038448  0
C  C82  1  0.68447947  0.14373734  0.67601884  1  0.980649  0  0.203662  0.321599  0  4.038497  0
C  C83  1  0.81552255  0.64373939  0.82398091  1  0.980696  0  0.203649  0.321499  0  4.038535  0
C  C84  1  0.39411172  0.92422860  0.38205631  1  -0.000861  0  -0.141388  -0.326655  0  3.948754  0
C  C85  1  0.10588783  0.42422531  0.11794244  1  -0.000808  0  -0.14141  -0.326669  0  3.948572  0
C  C86  1  0.60589365  0.07576745  0.61794184  1  -0.000884  0  -0.141343  -0.326615  0  3.948421  0
C  C87  1  0.89410834  0.57576587  0.88205997  1  -0.001025  0  -0.141309  -0.326544  0  3.948471  0
C  C88  1  0.44502376  0.86325869  0.45452442  1  1.028308  0  0.207191  0.337732  0  4.020237  0
C  C89  1  0.05497761  0.36325509  0.04547467  1  1.028391  0  0.207161  0.337726  0  4.020352  0
C  C90  1  0.55498437  0.13673899  0.54547270  1  1.027753  0  0.207025  0.337537  0  4.020423  0
C  C91  1  0.94501763  0.63673772  0.95452828  1  1.027621  0  0.207094  0.33759  0  4.020386  0
C  C92  1  0.45108496  0.76442743  0.56063563  1  0.997555  0  0.214048  0.386024  0  4.007085  0
C  C93  1  0.04891522  0.26442499  0.93936363  1  0.997424  0  0.214047  0.38595  0  4.007138  0
C  C94  1  0.54892318  0.23557350  0.43936208  1  0.997951  0  0.214013  0.385775  0  4.007464  0
C  C95  1  0.95107453  0.73557107  0.06063721  1  0.997997  0  0.213955  0.385678  0  4.00763  0
C  C96  1  0.41262466  0.69604540  0.62728926  1  -0.085012  0  -0.233455  -0.47292  0  3.940327  0
C  C97  1  0.08737735  0.19604510  0.87270918  1  -0.085124  0  -0.233516  -0.473106  0  3.940476  0
C  C98  1  0.58738164  0.30395309  0.37270774  1  -0.085107  0  -0.233485  -0.47291  0  3.940514  0
C  C99  1  0.91261606  0.80394852  0.12729247  1  -0.085191  0  -0.23342  -0.472878  0  3.940419  0
C  C100  1  0.93026355  0.94548234  0.66681697  1  -0.033742  0  -0.234794  -0.452759  0  3.937748  0
C  C101  1  0.56974220  0.44547825  0.83318063  1  -0.033729  0  -0.234853  -0.452808  0  3.937806  0
C  C102  1  0.06975008  0.05452265  0.33318285  1  -0.033917  0  -0.234803  -0.452613  0  3.937628  0
C  C103  1  0.43025123  0.55452349  0.16681863  1  -0.033798  0  -0.234773  -0.452666  0  3.937631  0
C  C104  1  0.96148005  0.87451778  0.59978514  1  0.990188  0  0.207404  0.384059  0  4.021846  0
C  C105  1  0.53851926  0.37451725  0.90021356  1  0.990246  0  0.207375  0.383982  0  4.021933  0
C  C106  1  0.03852715  0.12548314  0.40021550  1  0.990555  0  0.207344  0.383979  0  4.021938  0
C  C107  1  0.46147417  0.62548449  0.09978629  1  0.990373  0  0.207401  0.384044  0  4.022069  0
C  C108  1  0.94776196  0.75146064  0.50829492  1  1.012436  0  0.220178  0.354326  0  3.985661  0
C  C109  1  0.55224285  0.25146107  0.99170219  1  1.01161  0  0.220258  0.354397  0  3.985516  0
C  C110  1  0.05224983  0.24853785  0.49170479  1  1.011905  0  0.220174  0.354372  0  3.985677  0
C  C111  1  0.44775060  0.74854067  0.00829409  1  1.012115  0  0.220201  0.354467  0  3.985767  0
C  C112  1  0.89979367  0.66440505  0.45176250  1  0.060121  0  -0.138222  -0.33218  0  3.964991  0
C  C113  1  0.60020493  0.16439983  0.04823831  1  0.061067  0  -0.138221  -0.332105  0  3.964878  0
C  C114  1  0.10020984  0.33559913  0.54824092  1  0.060354  0  -0.138224  -0.332243  0  3.965109  0
C  C115  1  0.39978760  0.83559623  0.95175851  1  0.06032  0  -0.138223  -0.332244  0  3.96524  0
C  C116  1  0.83536162  0.57426911  0.49100036  1  1.010528  0  0.209401  0.341225  0  4.01226  0
C  C117  1  0.66463790  0.07426828  0.00899786  1  1.010786  0  0.209396  0.341208  0  4.012159  0
C  C118  1  0.16464374  0.42573019  0.50900197  1  1.01075  0  0.209385  0.341242  0  4.01234  0
C  C119  1  0.33535463  0.92573021  0.99099836  1  1.010792  0  0.209327  0.34119  0  4.012207  0
C  C120  1  0.71468472  0.48907011  0.56418011  1  1.000686  0  0.209104  0.375332  0  4.029039  0
C  C121  1  0.78531646  0.98906644  0.93581706  1  0.994062  0  0.209003  0.375117  0  4.02922  0
C  C122  1  0.28532157  0.51093163  0.43581928  1  0.9938  0  0.209073  0.375242  0  4.02907  0
C  C123  1  0.21468159  0.01092880  0.06417768  1  1.000566  0  0.209129  0.375322  0  4.029075  0
C  C124  1  0.61947778  0.46294721  0.61950204  1  -0.04526  0  -0.233952  -0.465577  0  3.940962  0
C  C125  1  0.88052245  0.96294888  0.88049876  1  -0.038765  0  -0.233933  -0.465495  0  3.94117  0
C  C126  1  0.38052574  0.53704722  0.38049839  1  -0.038549  0  -0.234003  -0.465688  0  3.940995  0
C  C127  1  0.11947466  0.03704555  0.11950071  1  -0.045127  0  -0.233952  -0.465563  0  3.940845  0
C  C128  1  0.74172144  0.96850821  0.35955460  1  2.122678  0  0.365056  0.708896  0  4.176447  0
C  C129  1  0.75828822  0.46853490  0.14044864  1  2.122777  0  0.365432  0.709572  0  4.17554  0
C  C130  1  0.25824627  0.03150571  0.64044678  1  2.123663  0  0.364934  0.708805  0  4.176574  0
C  C131  1  0.24174469  0.53150420  0.85955227  1  2.12355  0  0.365046  0.708933  0  4.1765  0
N  N132  1  0.88204453  0.79988682  0.56334271  1  -1.26571  0  -0.367188  -0.423207  0  3.441197  0
N  N133  1  0.61795477  0.29988444  0.93665628  1  -1.26578  0  -0.367229  -0.423281  0  3.441457  0
N  N134  1  0.11796174  0.20011411  0.43665967  1  -1.265877  0  -0.367193  -0.423246  0  3.441421  0
N  N135  1  0.38203593  0.70011486  0.06333984  1  -1.265832  0  -0.367177  -0.423282  0  3.441263  0
N  N136  1  0.06966384  0.87381847  0.56923767  1  -0.721612  0  -0.252463  -0.304238  0  3.159535  0
N  N137  1  0.43033911  0.37381958  0.93076133  1  -0.721686  0  -0.25239  -0.304126  0  3.159596  0
N  N138  1  0.93034337  0.12618327  0.43076058  1  -0.721858  0  -0.252403  -0.304251  0  3.159532  0
N  N139  1  0.56965889  0.62618460  0.06924178  1  -0.721614  0  -0.25248  -0.304279  0  3.159684  0
N  N140  1  0.06021140  0.79476534  0.51065491  1  -0.812007  0  -0.27213  -0.247701  0  3.574879  0
N  N141  1  0.43978603  0.29476603  0.98934527  1  -0.811633  0  -0.272181  -0.247754  0  3.57466  0
N  N142  1  0.93979212  0.20523477  0.48934671  1  -0.811542  0  -0.272102  -0.247618  0  3.574545  0
N  N143  1  0.56020647  0.70523733  0.01065633  1  -0.811794  0  -0.27212  -0.247678  0  3.57477  0
N  N144  1  0.74791185  0.59050359  0.54380350  1  -1.274013  0  -0.371317  -0.432766  0  3.450166  0
N  N145  1  0.75208465  0.09050441  0.95619675  1  -1.274115  0  -0.371269  -0.432693  0  3.450188  0
N  N146  1  0.25209075  0.40949327  0.45619868  1  -1.274206  0  -0.371264  -0.432661  0  3.449957  0
N  N147  1  0.24790604  0.90949408  0.04380116  1  -1.274307  0  -0.371284  -0.432734  0  3.449967  0
N  N148  1  0.85601708  0.46992062  0.47821170  1  -0.715873  0  -0.253964  -0.288891  0  3.173472  0
N  N149  1  0.64397882  0.96991665  0.02178837  1  -0.715852  0  -0.253938  -0.288842  0  3.173336  0
N  N150  1  0.14398459  0.53007950  0.52179222  1  -0.715923  0  -0.25386  -0.288724  0  3.173391  0
N  N151  1  0.35601185  0.03008103  0.97821133  1  -0.715753  0  -0.253889  -0.288782  0  3.17333  0
N  N152  1  0.77892702  0.41569782  0.52568562  1  -0.830615  0  -0.274702  -0.278259  0  3.56984  0
N  N153  1  0.72106953  0.91570033  0.97431575  1  -0.830614  0  -0.274659  -0.278134  0  3.569879  0
N  N154  1  0.22107741  0.58429661  0.47431785  1  -0.8304  0  -0.274777  -0.278362  0  3.569946  0
N  N155  1  0.27892298  0.08430141  0.02568525  1  -0.830602  0  -0.274757  -0.278308  0  3.569832  0
N  N156  1  0.56576763  0.79752298  0.55016743  1  -0.834949  0  -0.276336  -0.278966  0  3.568563  0
N  N157  1  0.93423624  0.29752070  0.94983363  1  -0.834916  0  -0.276373  -0.278934  0  3.568778  0
N  N158  1  0.43424141  0.20247551  0.44983153  1  -0.834843  0  -0.276366  -0.278915  0  3.568937  0
N  N159  1  0.06575991  0.70247616  0.05017117  1  -0.834832  0  -0.276329  -0.278853  0  3.568706  0
N  N160  1  0.56248293  0.86081445  0.48174150  1  -0.7294  0  -0.254245  -0.296  0  3.160014  0
N  N161  1  0.93751571  0.36081210  0.01825795  1  -0.729476  0  -0.25422  -0.296029  0  3.160015  0
N  N162  1  0.43752337  0.13918241  0.51825550  1  -0.729309  0  -0.254202  -0.295945  0  3.160108  0
N  N163  1  0.06247770  0.63918152  0.98174430  1  -0.729335  0  -0.254238  -0.295999  0  3.159936  0
N  N164  1  0.37243057  0.80459822  0.50139150  1  -1.274792  0  -0.371678  -0.425188  0  3.46273  0
N  N165  1  0.12756895  0.30459744  0.99860949  1  -1.274712  0  -0.371659  -0.425178  0  3.46284  0
N  N166  1  0.62757572  0.19539946  0.49860729  1  -1.274738  0  -0.371538  -0.424912  0  3.462681  0
N  N167  1  0.87242473  0.69539822  0.00139230  1  -1.274636  0  -0.371552  -0.424876  0  3.462865  0
N  N168  1  0.22828311  0.78432262  0.34572968  1  -1.26456  0  -0.370427  -0.444604  0  3.473994  0
N  N169  1  0.27171916  0.28432079  0.15427096  1  -1.264632  0  -0.370452  -0.444637  0  3.474016  0
N  N170  1  0.77172225  0.21567424  0.65427086  1  -1.264601  0  -0.370401  -0.444569  0  3.474083  0
N  N171  1  0.72827977  0.71567364  0.84572921  1  -1.264613  0  -0.370418  -0.444533  0  3.474055  0
N  N172  1  0.32229346  0.85922937  0.24525173  1  -0.71161  0  -0.256027  -0.294335  0  3.161296  0
N  N173  1  0.17770882  0.35922837  0.25474922  1  -0.71161  0  -0.256027  -0.294334  0  3.161302  0
N  N174  1  0.67770732  0.14076506  0.75474736  1  -0.711274  0  -0.256001  -0.294295  0  3.161063  0
N  N175  1  0.82229560  0.64076931  0.74525485  1  -0.711254  0  -0.25596  -0.294142  0  3.161114  0
N  N176  1  0.23603931  0.78516679  0.21448875  1  -0.854086  0  -0.272295  -0.271789  0  3.563101  0
N  N177  1  0.26396296  0.28516887  0.28551069  1  -0.854036  0  -0.272203  -0.271639  0  3.563101  0
N  N178  1  0.76395963  0.21482764  0.78551023  1  -0.854303  0  -0.272288  -0.271823  0  3.563025  0
N  N179  1  0.73604333  0.71483287  0.71448751  1  -0.854294  0  -0.272342  -0.272015  0  3.563164  0
O  O180  1  0.81361334  0.89770905  0.36871549  1  -1.082118  0  -0.178014  -0.360514  0  2.237786  0
O  O181  1  0.68639445  0.39773331  0.13129091  1  -1.08192  0  -0.178353  -0.361  0  2.237193  0
O  O182  1  0.18634709  0.10230812  0.63127592  1  -1.082679  0  -0.178139  -0.360673  0  2.237699  0
O  O183  1  0.31364850  0.60230415  0.86871953  1  -1.08254  0  -0.178189  -0.360686  0  2.237581  0
O  O184  1  0.66836728  0.03749150  0.34680552  1  -1.072633  0  -0.175835  -0.357138  0  2.253376  0
O  O185  1  0.83164323  0.53751267  0.15319526  1  -1.072931  0  -0.175877  -0.357362  0  2.253189  0
O  O186  1  0.33159121  0.96253136  0.65320251  1  -1.073025  0  -0.175592  -0.356883  0  2.253477  0
O  O187  1  0.16839613  0.46253129  0.84680064  1  -1.073062  0  -0.175654  -0.357001  0  2.253561  0
