# generated using pymatgen
data_FePH9C2N2O4F
_symmetry_space_group_name_H-M   'P 1'
_cell_length_a   7.40202864
_cell_length_b   9.09546301
_cell_length_c   9.81810612
_cell_angle_alpha   100.66430246
_cell_angle_beta   89.55541242
_cell_angle_gamma   90.72159524
_symmetry_Int_Tables_number   1
_chemical_formula_structural   FePH9C2N2O4F
_chemical_formula_sum   'Fe4 P4 H36 C8 N8 O16 F4'
_cell_volume   649.52471147
_cell_formula_units_Z   4
loop_
 _symmetry_equiv_pos_site_id
 _symmetry_equiv_pos_as_xyz
  1  'x, y, z'
loop_
 _atom_site_type_symbol
 _atom_site_label
 _atom_site_symmetry_multiplicity
 _atom_site_fract_x
 _atom_site_fract_y
 _atom_site_fract_z
 _atom_site_occupancy
 _atom_site_hse06_10hf_ddec_charge
 _atom_site_hse06_10hf_ddec_spin_density
 _atom_site_hse06_10hf_ddec_sum_bond_order
 _atom_site_hse06_10hf_magmom
 _atom_site_hse06_ddec_charge
 _atom_site_hse06_ddec_spin_density
 _atom_site_hse06_ddec_sum_bond_order
 _atom_site_hse06_magmom
 _atom_site_pbe_cm5_charge
 _atom_site_pbe_ddec_charge
 _atom_site_pbe_ddec_spin_density
 _atom_site_pbe_ddec_sum_bond_order
 _atom_site_pbe_magmom
Fe  Fe0  1  0.11910296  0.99617694  0.73860871  1  1.487013  4.572589  2.461831  4.136  1.648627  4.685969  2.345092  4.281  0.84889  1.338198  4.377517  2.555702  3.963
Fe  Fe1  1  0.61735590  0.01323193  0.76508274  1  1.205715  1.088844  3.041509  1.019  1.328202  1.06002  2.93797  1.018  0.790477  1.147961  1.250714  3.099536  1.147
Fe  Fe2  1  0.88089275  0.00381932  0.26139148  1  1.487151  4.572665  2.462325  4.136  1.648727  4.685986  2.345584  4.281  0.848995  1.33839  4.377609  2.556191  3.963
Fe  Fe3  1  0.38264387  0.98676546  0.23491866  1  1.205653  1.088763  3.041252  1.019  1.328173  1.059991  2.937694  1.018  0.79038  1.14784  1.250724  3.099279  1.147
P  P4  1  0.86178382  0.20678859  0.58193117  1  1.572643  0.008193  5.466109  0.009  1.646189  0.005795  5.404372  0.008  0.395106  1.519355  0.010312  5.512177  0.011
P  P5  1  0.36852138  0.80125224  0.91787375  1  1.569205  0.005248  5.439026  0.007  1.643205  0.003507  5.377515  0.007  0.403623  1.51568  0.0071  5.480355  0.008
P  P6  1  0.13821594  0.79321324  0.41807712  1  1.572526  0.008195  5.466281  0.009  1.646087  0.005799  5.404518  0.008  0.395091  1.519215  0.010313  5.512354  0.011
P  P7  1  0.63148380  0.19874520  0.08212357  1  1.569013  0.005253  5.438929  0.007  1.643002  0.003512  5.377476  0.007  0.403572  1.515494  0.007104  5.480248  0.008
H  H8  1  0.79647965  0.44315417  0.46393932  1  0.307654  -1.5e-05  0.945458  0.0  0.316219  -5.5e-05  0.938535  0.0  0.304483  0.301824  4.2e-05  0.950502  0.0
H  H9  1  0.31405177  0.58547136  0.06216001  1  0.310601  2.5e-05  0.937604  0.0  0.318861  -2e-06  0.931124  0.0  0.31064  0.304689  5.1e-05  0.941606  0.0
H  H10  1  0.20352012  0.55684323  0.53606107  1  0.307639  -1.5e-05  0.945479  0.0  0.316206  -5.5e-05  0.938556  0.0  0.304495  0.301806  4.2e-05  0.950525  0.0
H  H11  1  0.68595076  0.41452945  0.93783485  1  0.310556  2.5e-05  0.937582  0.0  0.318817  -1e-06  0.931094  0.0  0.31061  0.304646  5.1e-05  0.941585  0.0
H  H12  1  0.16691934  0.31862172  0.16483312  1  0.102627  -9.7e-05  0.988153  0.0  0.104262  -0.00017  0.986815  0.0  0.117707  0.100767  -2.7e-05  0.989832  0.0
H  H13  1  0.66069024  0.70438446  0.35010152  1  0.112589  -0.000151  0.995964  0.0  0.114344  -0.000224  0.994817  0.0  0.117715  0.111066  -0.000104  0.997283  0.0
H  H14  1  0.83307641  0.68137902  0.83516582  1  0.102587  -9.7e-05  0.98822  0.0  0.10422  -0.00017  0.986887  0.0  0.117704  0.100731  -2.7e-05  0.989895  0.0
H  H15  1  0.33931496  0.29561522  0.64989619  1  0.11261  -0.000151  0.99593  0.0  0.114372  -0.000224  0.99478  0.0  0.11771  0.111082  -0.000104  0.997257  0.0
H  H16  1  0.02903689  0.44805687  0.10167833  1  0.074784  1.7e-05  1.006077  0.0  0.075471  -2.4e-05  1.005861  0.0  0.106228  0.074386  3e-06  1.006313  0.0
H  H17  1  0.51303912  0.57955048  0.41572317  1  0.075618  1.6e-05  1.004199  0.0  0.076435  1.8e-05  1.004119  0.0  0.10687  0.074558  2.6e-05  1.004956  0.0
H  H18  1  0.97096294  0.55194615  0.89831795  1  0.074802  1.7e-05  1.006053  0.0  0.075493  -2.4e-05  1.005832  0.0  0.106247  0.074409  3e-06  1.006283  0.0
H  H19  1  0.48696204  0.42044919  0.58427353  1  0.075692  1.6e-05  1.00424  0.0  0.076512  1.8e-05  1.004159  0.0  0.106889  0.074626  2.7e-05  1.005003  0.0
H  H20  1  0.15389005  0.36875798  0.86532762  1  0.072453  -0.000122  1.004352  0.0  0.073175  -0.000166  1.004105  0.0  0.101201  0.07154  -9.2e-05  1.005111  0.0
H  H21  1  0.64003178  0.65415018  0.65108922  1  0.08198  -2.9e-05  1.004948  0.0  0.082876  -6.9e-05  1.004923  0.0  0.108536  0.081366  9e-06  1.005156  0.0
H  H22  1  0.84610567  0.63123830  0.13467053  1  0.072491  -0.000122  1.00429  0.0  0.07321  -0.000166  1.004043  0.0  0.101232  0.071581  -9.2e-05  1.005051  0.0
H  H23  1  0.35997203  0.34584612  0.34891095  1  0.081949  -2.9e-05  1.004922  0.0  0.082844  -6.9e-05  1.004893  0.0  0.108507  0.081329  9e-06  1.005133  0.0
H  H24  1  0.33249171  0.27355875  0.92878342  1  0.098313  5.8e-05  1.006935  0.001  0.100678  -1e-06  1.005001  0.001  0.111817  0.094825  0.000122  1.009754  0.001
H  H25  1  0.82498221  0.74710771  0.58606773  1  0.099529  -0.000608  1.002569  0.0  0.100146  -0.000692  1.002168  0.0  0.115608  0.100834  -0.000567  1.001544  0.0
H  H26  1  0.66750405  0.72644201  0.07121450  1  0.098301  5.8e-05  1.006906  0.001  0.100662  -1e-06  1.004973  0.001  0.111811  0.094817  0.000122  1.009723  0.001
H  H27  1  0.17501896  0.25289307  0.41392917  1  0.099502  -0.000607  1.002562  0.0  0.100121  -0.000692  1.002157  0.0  0.115607  0.100796  -0.000567  1.001543  0.0
H  H28  1  0.94545990  0.18852760  0.93116570  1  0.292815  2.2e-05  0.970973  0.001  0.301812  -0.000304  0.964936  0.0  0.294283  0.285045  0.000298  0.976622  0.001
H  H29  1  0.44088598  0.83728754  0.58943046  1  0.291421  -0.00067  0.965373  0.0  0.299361  -0.000717  0.960201  0.0  0.300399  0.287782  -0.000444  0.967567  0.0
H  H30  1  0.05454394  0.81146872  0.06883041  1  0.292767  2.3e-05  0.970849  0.001  0.301765  -0.000303  0.964808  0.0  0.29425  0.285  0.000299  0.97649  0.001
H  H31  1  0.55911515  0.16271099  0.41056910  1  0.291411  -0.000669  0.96538  0.0  0.299357  -0.000717  0.960202  0.0  0.300398  0.287765  -0.000443  0.967585  0.0
H  H32  1  0.10747682  0.11238194  0.00650455  1  0.311205  -0.000572  0.9375  0.0  0.319831  -0.000883  0.931883  0.0  0.299879  0.303898  -0.000271  0.942754  0.001
H  H33  1  0.60844119  0.91361153  0.51437117  1  0.305828  2.9e-05  0.920752  0.001  0.312538  -0.000174  0.917001  0.001  0.3129  0.302304  0.00011  0.922006  0.001
H  H34  1  0.89251759  0.88761993  0.99349358  1  0.31114  -0.000571  0.937481  0.0  0.319763  -0.000883  0.931876  0.0  0.299845  0.303839  -0.00027  0.942728  0.001
H  H35  1  0.39155995  0.08638923  0.48563082  1  0.305807  2.9e-05  0.920783  0.001  0.312521  -0.000174  0.917031  0.001  0.31289  0.302279  0.000109  0.922039  0.001
H  H36  1  0.26383005  0.57196000  0.22842415  1  0.313966  0.000142  0.96277  0.0  0.322977  6.8e-05  0.955711  0.0  0.303292  0.307154  0.000268  0.968787  0.0
H  H37  1  0.74049457  0.43896116  0.29308272  1  0.318303  -0.000119  0.943776  0.0  0.327306  -0.000116  0.936896  0.0  0.30316  0.312846  -0.000168  0.947677  0.0
H  H38  1  0.73617112  0.42804190  0.77157294  1  0.313928  0.000142  0.962766  0.0  0.322938  6.8e-05  0.95571  0.0  0.303298  0.307122  0.000268  0.96878  0.0
H  H39  1  0.25950524  0.56103960  0.70691622  1  0.31831  -0.000119  0.943746  0.0  0.327314  -0.000116  0.936868  0.0  0.30317  0.312853  -0.000168  0.947645  0.0
H  H40  1  0.43030688  0.46008754  0.13540141  1  0.315806  0.000113  0.96004  0.0  0.32494  7e-05  0.95337  0.0  0.299505  0.308659  0.000145  0.965837  0.0
H  H41  1  0.91327387  0.55227616  0.37353344  1  0.311942  1.1e-05  0.950857  0.0  0.320637  -1.6e-05  0.944461  0.0  0.302379  0.306523  6.2e-05  0.954738  0.0
H  H42  1  0.56969154  0.53990986  0.86459694  1  0.315774  0.000113  0.960082  0.0  0.324904  6.9e-05  0.953419  0.0  0.299508  0.308627  0.000145  0.96588  0.0
H  H43  1  0.08672724  0.44771901  0.62646552  1  0.311912  1.1e-05  0.950893  0.0  0.320611  -1.5e-05  0.944493  0.0  0.302357  0.306494  6.2e-05  0.954777  0.0
C  C44  1  0.16175836  0.39461541  0.09032949  1  -0.010921  0.003005  3.821491  0.005  -0.005806  0.002541  3.828044  0.004  -0.063836  -0.014815  0.002951  3.818688  0.004
C  C45  1  0.64913727  0.62957488  0.42545755  1  -0.014349  -0.001357  3.792534  -0.001  -0.010319  -0.001433  3.800725  -0.001  -0.062371  -0.016058  -0.001575  3.786435  -0.001
C  C46  1  0.83823873  0.60538533  0.90967047  1  -0.010908  0.003003  3.821556  0.005  -0.005801  0.002539  3.82811  0.004  -0.063838  -0.014796  0.002951  3.818737  0.004
C  C47  1  0.35086661  0.37042815  0.57454076  1  -0.01453  -0.001357  3.792577  -0.001  -0.010505  -0.001434  3.800765  -0.001  -0.062408  -0.016239  -0.001577  3.78649  -0.001
C  C48  1  0.19019816  0.30459097  0.94523367  1  0.004137  0.000194  3.916972  0.0  0.009941  -0.000442  3.926578  -0.001  -0.071633  0.000574  0.000632  3.91307  0.0
C  C49  1  0.68134022  0.71820801  0.57162820  1  -0.004111  -0.000441  3.852487  0.001  0.001722  -0.000354  3.8628  0.001  -0.066003  -0.008055  -0.00063  3.843221  0.001
C  C50  1  0.80980030  0.69540980  0.05476324  1  0.003965  0.000198  3.916802  0.0  0.009778  -0.00044  3.926397  -0.001  -0.071742  0.000395  0.000635  3.9129  0.0
C  C51  1  0.31866093  0.28179276  0.42837074  1  -0.003943  -0.000441  3.852258  0.001  0.001898  -0.000352  3.862565  0.001  -0.065984  -0.007888  -0.00063  3.843005  0.001
N  N52  1  0.08135897  0.16734195  0.92663568  1  -0.617039  0.048155  3.350237  0.081  -0.649395  0.044712  3.350187  0.08  -0.63083  -0.597356  0.044477  3.356379  0.071
N  N53  1  0.57848787  0.85829484  0.59399848  1  -0.534742  -0.0256  3.385347  -0.022  -0.565417  -0.028191  3.385251  -0.024  -0.618104  -0.513355  -0.026861  3.381064  -0.023
N  N54  1  0.91863409  0.83267545  0.07338557  1  -0.616848  0.048141  3.349695  0.081  -0.64921  0.044697  3.349647  0.08  -0.630705  -0.597148  0.044476  3.355817  0.071
N  N55  1  0.42151460  0.14170146  0.40599966  1  -0.534756  -0.025597  3.385274  -0.022  -0.565441  -0.028192  3.385177  -0.024  -0.61811  -0.513353  -0.026881  3.380972  -0.023
N  N56  1  0.30284654  0.51159533  0.13047224  1  -0.457006  0.001538  3.387527  0.003  -0.473295  0.001173  3.383819  0.002  -0.620431  -0.446568  0.001497  3.39231  0.003
N  N57  1  0.78268758  0.50751032  0.38665396  1  -0.449261  -0.000583  3.370368  0.0  -0.465732  -0.000629  3.36714  0.0  -0.610165  -0.43871  -0.000297  3.371823  0.0
N  N58  1  0.69715192  0.48840654  0.86952690  1  -0.456835  0.001537  3.387392  0.003  -0.473116  0.001173  3.38368  0.002  -0.620394  -0.446397  0.001497  3.392171  0.003
N  N59  1  0.21731222  0.49248932  0.61334478  1  -0.449154  -0.000584  3.370336  0.0  -0.465651  -0.00063  3.367151  0.0  -0.610165  -0.438604  -0.000296  3.371793  0.0
O  O60  1  0.03921270  0.13929117  0.62344589  1  -0.838503  0.063106  2.279387  0.109  -0.892457  0.052963  2.260478  0.096  -0.381153  -0.801875  0.065191  2.294069  0.106
O  O61  1  0.54665963  0.87779008  0.87903256  1  -0.764596  0.014242  2.321452  0.031  -0.817599  0.002851  2.303736  0.015  -0.360668  -0.723767  0.024542  2.329807  0.048
O  O62  1  0.96078044  0.86071744  0.37654732  1  -0.838436  0.063119  2.279149  0.109  -0.892392  0.05297  2.260234  0.096  -0.381127  -0.801846  0.065219  2.29394  0.106
O  O63  1  0.45333610  0.12220731  0.12096478  1  -0.76462  0.014239  2.321388  0.031  -0.817622  0.002847  2.303673  0.015  -0.360717  -0.723786  0.024536  2.329728  0.048
O  O64  1  0.86692407  0.37990160  0.62761483  1  -0.81845  0.008773  2.102994  0.018  -0.848555  0.006268  2.081297  0.014  -0.386175  -0.798579  0.009922  2.119657  0.02
O  O65  1  0.37594315  0.63048790  0.86106359  1  -0.827386  0.004103  2.090338  0.01  -0.859877  0.002187  2.069368  0.006  -0.387024  -0.802031  0.005342  2.103303  0.012
O  O66  1  0.13307978  0.62010252  0.37238876  1  -0.818465  0.008775  2.102935  0.018  -0.848572  0.00627  2.08123  0.014  -0.386226  -0.798568  0.009923  2.119585  0.02
O  O67  1  0.62404853  0.36951170  0.13893618  1  -0.827321  0.004101  2.090293  0.01  -0.859823  0.002185  2.069337  0.006  -0.387011  -0.801975  0.005341  2.103261  0.012
O  O68  1  0.69114554  0.14404727  0.64566135  1  -0.788812  0.010834  2.354935  0.022  -0.837714  0.002257  2.333931  0.01  -0.377245  -0.751556  0.018656  2.366044  0.035
O  O69  1  0.19908902  0.86549584  0.86147484  1  -0.832895  0.069149  2.324702  0.121  -0.887831  0.058299  2.303742  0.107  -0.385034  -0.796777  0.070049  2.342582  0.115
O  O70  1  0.30885424  0.85595680  0.35434632  1  -0.788751  0.010834  2.354783  0.022  -0.837659  0.002255  2.333773  0.01  -0.377264  -0.751484  0.018656  2.365886  0.035
O  O71  1  0.80092015  0.13449710  0.13852982  1  -0.832823  0.069143  2.324629  0.121  -0.887752  0.058293  2.303669  0.107  -0.384973  -0.796677  0.070057  2.342472  0.115
O  O72  1  0.83676853  0.17559808  0.42242763  1  -0.850743  0.055209  2.248385  0.096  -0.898175  0.047001  2.222476  0.086  -0.390044  -0.821773  0.054263  2.273081  0.089
O  O73  1  0.35242482  0.81964551  0.07851446  1  -0.793301  0.001885  2.282835  0.005  -0.836775  -0.002107  2.256932  0.0  -0.369953  -0.758091  0.00534  2.295256  0.01
O  O74  1  0.16324065  0.82438598  0.57756223  1  -0.850662  0.05519  2.248758  0.096  -0.898091  0.046988  2.222843  0.086  -0.390004  -0.821702  0.054232  2.273464  0.089
O  O75  1  0.64757770  0.18035639  0.92148467  1  -0.793258  0.001879  2.28287  0.005  -0.836727  -0.002111  2.256975  0.0  -0.369942  -0.758045  0.005341  2.295282  0.01
F  F76  1  0.85606845  0.94320133  0.78516227  1  -0.518305  0.036606  1.18835  0.069  -0.561888  0.029361  1.161455  0.057  -0.286462  -0.481385  0.040575  1.204262  0.072
F  F77  1  0.37896124  0.07671173  0.72915991  1  -0.515821  0.038271  1.189451  0.073  -0.559007  0.031729  1.162815  0.063  -0.287571  -0.481196  0.04077  1.206779  0.073
F  F78  1  0.14390833  0.05679372  0.21483878  1  -0.518299  0.036608  1.188183  0.069  -0.561882  0.029364  1.161293  0.057  -0.286431  -0.481366  0.040579  1.20408  0.072
F  F79  1  0.62106008  0.92328348  0.27084919  1  -0.515783  0.038276  1.189388  0.073  -0.558965  0.031733  1.162733  0.063  -0.287524  -0.48115  0.040778  1.206713  0.073
