# generated using pymatgen
data_CuH20C18(NO)4
_symmetry_space_group_name_H-M   'P 1'
_cell_length_a   7.61487924
_cell_length_b   11.05934373
_cell_length_c   11.15131870
_cell_angle_alpha   92.87663981
_cell_angle_beta   93.36129398
_cell_angle_gamma   106.70918363
_symmetry_Int_Tables_number   1
_chemical_formula_structural   CuH20C18(NO)4
_chemical_formula_sum   'Cu2 H40 C36 N8 O8'
_cell_volume   895.70434443
_cell_formula_units_Z   2
loop_
 _symmetry_equiv_pos_site_id
 _symmetry_equiv_pos_as_xyz
  1  'x, y, z'
loop_
 _atom_site_type_symbol
 _atom_site_label
 _atom_site_symmetry_multiplicity
 _atom_site_fract_x
 _atom_site_fract_y
 _atom_site_fract_z
 _atom_site_occupancy
 _atom_site_hle17_ddec_charge
 _atom_site_hle17_ddec_spin_density
 _atom_site_hle17_ddec_sum_bond_order
 _atom_site_hle17_magmom
 _atom_site_hse06_10hf_ddec_charge
 _atom_site_hse06_10hf_ddec_spin_density
 _atom_site_hse06_10hf_ddec_sum_bond_order
 _atom_site_hse06_10hf_magmom
 _atom_site_hse06_ddec_charge
 _atom_site_hse06_ddec_spin_density
 _atom_site_hse06_ddec_sum_bond_order
 _atom_site_hse06_magmom
 _atom_site_pbe_cm5_charge
 _atom_site_pbe_ddec_charge
 _atom_site_pbe_ddec_spin_density
 _atom_site_pbe_ddec_sum_bond_order
 _atom_site_pbe_magmom
Cu  Cu0  1  0.99999691  0.49999871  0.50000018  1  0.847361  0.724012  1.767206  0.507  0.822788  0.807229  2.155445  0.619  0.915308  0.877533  2.084444  0.698  0.733034  0.763585  0.758702  2.207201  0.57
Cu  Cu1  1  0.00000000  0.00000000  0.00000000  1  0.837975  -0.72607  1.788494  -0.508  0.812005  -0.807086  2.174386  -0.618  0.903883  -0.877916  2.104251  -0.698  0.737352  0.753389  -0.758238  2.225522  -0.569
H  H2  1  0.68411865  0.25057453  0.56114824  1  0.102627  4.1e-05  0.980799  0.0  0.113383  0.000233  1.039165  0.001  0.115423  0.000165  1.03823  0.0  0.118622  0.111797  0.000293  1.039976  0.001
H  H3  1  0.31587817  0.74942444  0.43885512  1  0.102748  3.9e-05  0.980727  0.0  0.113452  0.000233  1.039147  0.001  0.115484  0.000165  1.038206  0.0  0.11867  0.111867  0.000293  1.039961  0.001
H  H4  1  0.94699725  0.05876583  0.29181723  1  0.098855  0.000181  0.971341  0.0  0.104552  0.000141  1.040021  0.0  0.107488  0.000122  1.038478  0.0  0.101042  0.102326  0.000155  1.041394  0.0
H  H5  1  0.05300216  0.94123316  0.70818174  1  0.098809  0.000187  0.97129  0.0  0.104503  0.000141  1.039984  0.0  0.107441  0.000122  1.03844  0.0  0.10101  0.10228  0.000155  1.04136  0.0
H  H6  1  0.44083188  0.46656553  0.89717747  1  0.103524  0.0  0.954008  0.0  0.128029  -3e-06  1.010618  0.0  0.12889  -2e-06  1.011723  0.0  0.090684  0.127362  -5e-06  1.00988  0.0
H  H7  1  0.55917131  0.53343633  0.10282089  1  0.103552  4e-06  0.95399  0.0  0.128072  -3e-06  1.010592  0.0  0.128933  -2e-06  1.011697  0.0  0.090713  0.127401  -5e-06  1.009855  0.0
H  H8  1  0.35125699  0.59815880  0.89943386  1  0.10747  5.8e-05  0.958455  0.0  0.13029  4.8e-05  1.017827  0.0  0.130247  3.4e-05  1.020741  0.0  0.091271  0.130225  5.9e-05  1.015872  0.0
H  H9  1  0.64874585  0.40184211  0.10056712  1  0.107472  6.5e-05  0.958426  0.0  0.130295  4.8e-05  1.017799  0.0  0.130252  3.4e-05  1.020712  0.0  0.091274  0.130231  5.9e-05  1.015845  0.0
H  H10  1  0.58599848  0.61868789  0.87001137  1  0.10264  -3.2e-05  0.962321  0.0  0.120841  -6.6e-05  1.0308  0.0  0.122524  -3.8e-05  1.030288  0.0  0.087972  0.11957  -9.5e-05  1.031223  0.0
H  H11  1  0.41400168  0.38131300  0.12998503  1  0.102679  -3e-05  0.962238  0.0  0.120865  -6.6e-05  1.030756  0.0  0.122548  -3.8e-05  1.030243  0.0  0.088006  0.119594  -9.5e-05  1.031178  0.0
H  H12  1  0.02813919  0.15635669  0.67400896  1  0.117286  0.000549  0.966595  0.0  0.124612  0.000501  1.030666  0.0  0.128871  0.000337  1.02744  0.0  0.102064  0.121567  0.000635  1.033007  0.0
H  H13  1  0.97186588  0.84364330  0.32598936  1  0.11729  0.000551  0.96652  0.0  0.124562  0.000501  1.030666  0.0  0.128817  0.000337  1.027447  0.0  0.10202  0.121518  0.000635  1.033004  0.0
H  H14  1  0.24851691  0.46185311  0.70498384  1  0.088394  -2.5e-05  0.930444  0.0  0.103399  -4.1e-05  0.994975  0.0  0.104616  -8.8e-05  0.993715  0.0  0.115108  0.102257  1.3e-05  0.996244  0.0
H  H15  1  0.75147857  0.53814585  0.29501768  1  0.088396  -2.4e-05  0.930513  0.0  0.103397  -4.1e-05  0.995024  0.0  0.104615  -8.8e-05  0.993765  0.0  0.115109  0.102256  1.3e-05  0.99629  0.0
H  H16  1  0.38457711  0.61490073  0.67773989  1  0.078567  -0.000108  0.921416  0.0  0.093526  -6.2e-05  0.984722  0.0  0.093946  -6.1e-05  0.985067  0.0  0.110658  0.093042  -5.8e-05  0.984763  0.0
H  H17  1  0.61541740  0.38509916  0.32225895  1  0.078519  -0.000107  0.921506  0.0  0.093505  -6.2e-05  0.984756  0.0  0.093926  -6.1e-05  0.985102  0.0  0.110656  0.093019  -5.8e-05  0.984795  0.0
H  H18  1  0.72403131  0.63736072  0.62092562  1  0.099871  2.3e-05  0.938088  0.0  0.112777  0.000101  0.99517  0.0  0.114701  8e-05  0.992735  0.0  0.140622  0.111164  0.000123  0.997059  0.0
H  H19  1  0.27596279  0.36263823  0.37906957  1  0.099891  2.4e-05  0.938032  0.0  0.112743  0.000101  0.995176  0.0  0.11472  8e-05  0.992674  0.0  0.140615  0.111127  0.000123  0.997065  0.0
H  H20  1  0.37042825  0.27263525  0.66512080  1  0.122176  0.000562  0.957783  0.001  0.131744  0.0005  1.019029  0.001  0.134209  0.000361  1.018424  0.0  0.125689  0.129888  0.000614  1.019609  0.001
H  H21  1  0.62956725  0.72736371  0.33488252  1  0.122155  0.000563  0.957813  0.001  0.131713  0.0005  1.019089  0.001  0.134179  0.000361  1.01848  0.0  0.12565  0.129864  0.000614  1.019661  0.001
H  H22  1  0.40925618  0.96146653  0.39028410  1  0.101455  -1e-05  0.957722  0.0  0.125698  -7e-06  1.014561  0.0  0.126361  -5e-06  1.015742  0.0  0.089424  0.125153  -8e-06  1.013802  0.0
H  H23  1  0.59074625  0.03853344  0.60971413  1  0.101452  -4e-06  0.95773  0.0  0.125678  -7e-06  1.014585  0.0  0.126342  -5e-06  1.015769  0.0  0.089412  0.125129  -8e-06  1.013825  0.0
H  H24  1  0.37104556  0.11105602  0.41467905  1  0.1012  -4.8e-05  0.961264  0.0  0.122523  -3e-05  1.022865  0.0  0.122435  -1.8e-05  1.025781  0.0  0.087748  0.122483  -3.9e-05  1.020927  0.0
H  H25  1  0.62895786  0.88894302  0.58532365  1  0.101247  -4.4e-05  0.961114  0.0  0.122546  -3e-05  1.022749  0.0  0.122458  -1.8e-05  1.025666  0.0  0.087759  0.122511  -3.9e-05  1.020812  0.0
H  H26  1  0.59811889  0.10196927  0.39386551  1  0.101821  -9e-06  0.982256  0.0  0.11879  2e-06  1.051924  0.0  0.119862  6e-06  1.052681  0.0  0.085852  0.117904  -1e-06  1.05151  0.0
H  H27  1  0.40188412  0.89802882  0.60613533  1  0.101811  -5e-06  0.982229  0.0  0.118773  2e-06  1.051905  0.0  0.119843  6e-06  1.052662  0.0  0.085845  0.11789  -1e-06  1.051492  0.0
H  H28  1  0.77042402  0.15642459  0.14369311  1  0.110646  8.1e-05  0.94383  0.0  0.119659  8e-06  1.006716  0.0  0.122539  1e-05  1.002916  0.0  0.139424  0.117438  -0.0  1.009527  0.0
H  H29  1  0.22957752  0.84357632  0.85630962  1  0.110641  7.8e-05  0.943888  0.0  0.119678  8e-06  1.006734  0.0  0.122559  1e-05  1.002932  0.0  0.139418  0.117459  -0.0  1.009546  0.0
H  H30  1  0.93289941  0.39188359  0.79421269  1  0.105354  -0.00013  0.95502  0.0  0.111336  -9.3e-05  1.022075  0.0  0.115057  -7e-05  1.019741  0.0  0.102083  0.10865  -0.000114  1.02386  0.0
H  H31  1  0.06710262  0.60811544  0.20578459  1  0.105371  -0.000126  0.955032  0.0  0.111369  -9.3e-05  1.022063  0.0  0.115089  -7e-05  1.01973  0.0  0.102116  0.108682  -0.000114  1.023842  0.0
H  H32  1  0.06089972  0.38108496  0.17370302  1  0.105069  -0.000672  0.965022  0.0  0.110736  -0.00062  1.034562  0.0  0.114308  -0.000423  1.032249  0.0  0.099898  0.108161  -0.000787  1.036285  0.0
H  H33  1  0.93910098  0.61891405  0.82629330  1  0.105035  -0.000671  0.96502  0.0  0.110743  -0.00062  1.03452  0.0  0.114318  -0.000423  1.032202  0.0  0.099879  0.108171  -0.000787  1.036246  0.0
H  H34  1  0.65030354  0.76824193  0.03702010  1  0.100459  5.9e-05  0.983241  0.0  0.110695  -0.000133  1.043774  0.0  0.113163  -9.1e-05  1.042503  0.0  0.114337  0.108847  -0.000172  1.04476  -0.001
H  H35  1  0.34969439  0.23175988  0.96297986  1  0.100477  5.9e-05  0.983294  0.0  0.110719  -0.000133  1.043801  0.0  0.113187  -9.1e-05  1.042534  0.0  0.114345  0.108873  -0.000172  1.044786  -0.001
H  H36  1  0.35426670  0.80976617  0.15375593  1  0.125204  -0.000463  0.984176  -0.001  0.13316  -0.000354  1.045922  -0.001  0.136093  -0.000269  1.044886  0.0  0.121281  0.130962  -0.000419  1.046862  -0.001
H  H37  1  0.64573293  0.19023660  0.84624324  1  0.12521  -0.000465  0.984119  -0.001  0.133158  -0.000354  1.045876  -0.001  0.136092  -0.000269  1.044839  0.0  0.121287  0.130961  -0.000419  1.046818  -0.001
H  H38  1  0.45540363  0.16390745  0.20487199  1  0.067683  4.9e-05  0.919396  0.0  0.088293  1.5e-05  0.974256  0.0  0.088351  1.6e-05  0.975048  0.0  0.110728  0.088162  1.2e-05  0.973752  0.0
H  H39  1  0.54459772  0.83609628  0.79512999  1  0.067712  5.1e-05  0.919377  0.0  0.088332  1.5e-05  0.97422  0.0  0.088389  1.6e-05  0.975013  0.0  0.110736  0.088205  1.2e-05  0.973713  0.0
H  H40  1  0.27438549  0.01982109  0.19987891  1  0.082777  0.000102  0.942793  0.0  0.092368  0.000141  1.016096  0.0  0.093342  0.000163  1.014127  0.0  0.110746  0.09123  0.000109  1.018027  0.0
H  H41  1  0.72561547  0.98018169  0.80012210  1  0.082718  0.0001  0.942809  0.0  0.092369  0.000141  1.016062  0.0  0.093346  0.000163  1.014083  0.0  0.11074  0.091201  0.000109  1.018022  0.0
C  C42  1  0.64647448  0.33414018  0.58891960  1  -0.007116  -0.000143  3.757641  0.0  -0.037173  0.000821  4.025081  0.001  -0.033661  0.000171  4.04587  0.0  -0.004448  -0.039347  0.00129  4.011324  0.001
C  C43  1  0.35352061  0.66585784  0.41108186  1  -0.00735  -0.000121  3.757664  0.0  -0.037366  0.000821  4.025158  0.001  -0.033837  0.00017  4.045928  0.0  -0.004561  -0.039546  0.00129  4.011415  0.001
C  C44  1  0.96896331  0.03211959  0.38293149  1  -0.073459  5.7e-05  3.725542  0.0  -0.093831  0.000374  3.970811  0.001  -0.095409  0.000183  3.992216  0.0  -0.086  -0.092604  0.000558  3.956222  0.001
C  C45  1  0.03104043  0.96788039  0.61706589  1  -0.073463  -3.5e-05  3.725575  0.0  -0.093858  0.000373  3.970851  0.001  -0.095438  0.000185  3.992264  0.0  -0.085986  -0.092631  0.000558  3.956272  0.001
C  C46  1  0.44529325  0.55477226  0.85491089  1  -0.315804  -9.6e-05  3.704621  0.0  -0.393483  -4.1e-05  3.946498  0.0  -0.396629  -3.3e-05  3.957776  0.0  -0.24559  -0.390995  -4.7e-05  3.938696  0.0
C  C47  1  0.55470731  0.44522957  0.14508827  1  -0.315816  -0.000118  3.704636  0.0  -0.393539  -4e-05  3.946531  0.0  -0.396684  -3.2e-05  3.957809  0.0  -0.245645  -0.391051  -4.6e-05  3.938729  0.0
C  C48  1  0.98738220  0.12156906  0.48003039  1  -0.068916  0.008809  3.772721  0.009  -0.045713  0.005089  4.002015  0.006  -0.052316  0.00356  4.023768  0.004  -0.021518  -0.041317  0.006269  3.987141  0.007
C  C49  1  0.01262193  0.87843187  0.51996795  1  -0.068738  0.008878  3.772779  0.009  -0.04549  0.00509  4.001991  0.006  -0.052093  0.003558  4.023748  0.004  -0.021448  -0.041102  0.006268  3.987129  0.007
C  C50  1  0.97192575  0.25088295  0.45678274  1  0.598093  -0.003899  3.952025  -0.008  0.557349  -0.000412  4.254913  -0.003  0.593369  -0.000862  4.248786  -0.003  0.188256  0.533148  6e-05  4.25796  -0.003
C  C51  1  0.02807237  0.74911604  0.54321888  1  0.597981  -0.003883  3.952191  -0.008  0.55723  -0.000413  4.255086  -0.003  0.593257  -0.000862  4.248949  -0.003  0.18827  0.533032  6e-05  4.258132  -0.003
C  C52  1  0.01884844  0.08875489  0.59763177  1  -0.080669  0.001168  3.715775  0.001  -0.101852  0.000745  3.961905  0.0  -0.102301  0.000435  3.980844  0.0  -0.08834  -0.101327  0.001028  3.948886  0.001
C  C53  1  0.98115702  0.91124605  0.40236752  1  -0.080745  0.001082  3.715825  0.001  -0.101916  0.000743  3.961973  0.0  -0.102362  0.000436  3.980917  0.0  -0.088353  -0.101389  0.001029  3.94895  0.001
C  C54  1  0.38688994  0.52833309  0.72102541  1  0.040939  0.00084  3.62374  0.001  -0.019213  0.000569  3.887309  0.001  -0.014581  0.000382  3.898496  0.001  -0.053119  -0.022265  0.000737  3.879958  0.001
C  C55  1  0.61310683  0.47166589  0.27897347  1  0.040956  0.000838  3.62398  0.001  -0.019165  0.000568  3.887476  0.001  -0.014534  0.000382  3.898663  0.001  -0.053109  -0.022222  0.000737  3.880118  0.001
C  C56  1  0.67365151  0.53522160  0.61788462  1  0.169584  -0.004571  3.643372  -0.004  0.111296  -0.000786  3.911232  -0.001  0.127553  -0.001515  3.925006  -0.002  0.144949  0.101045  -0.000247  3.901768  0.0
C  C57  1  0.32634601  0.46477927  0.38211259  1  0.169621  -0.004566  3.643363  -0.004  0.111375  -0.000786  3.911228  -0.001  0.127588  -0.001514  3.924986  -0.002  0.144985  0.101127  -0.000247  3.901758  0.0
C  C58  1  0.49134592  0.34363979  0.64076090  1  -0.064352  0.003425  3.672851  0.003  -0.102702  0.001998  3.925548  0.002  -0.100881  0.001744  3.943385  0.002  0.003302  -0.10385  0.002196  3.913647  0.002
C  C59  1  0.50864956  0.65635917  0.35924062  1  -0.064277  0.00341  3.672877  0.003  -0.102626  0.001998  3.925551  0.002  -0.100807  0.001743  3.943386  0.002  0.003376  -0.103782  0.002196  3.913638  0.002
C  C60  1  0.45182865  0.05990543  0.36574923  1  -0.311748  5.1e-05  3.703838  0.0  -0.38763  3e-06  3.943569  0.0  -0.390671  9e-06  3.955035  0.0  -0.247056  -0.385218  -4e-06  3.935619  0.0
C  C61  1  0.54817460  0.94009644  0.63425451  1  -0.311795  2.7e-05  3.703699  0.0  -0.387638  3e-06  3.943455  0.0  -0.39068  9e-06  3.954925  0.0  -0.247036  -0.385223  -4e-06  3.935498  0.0
C  C62  1  0.99913822  0.37343690  0.98158163  1  -0.06343  -0.00852  3.760769  -0.009  -0.0403  -0.005333  3.988844  -0.006  -0.04676  -0.003734  4.010762  -0.004  -0.020273  -0.035968  -0.006544  3.973796  -0.007
C  C63  1  0.00086328  0.62656400  0.01841661  1  -0.063424  -0.008491  3.760656  -0.009  -0.040309  -0.005332  3.988773  -0.006  -0.046772  -0.003734  4.010694  -0.004  -0.020262  -0.035972  -0.006543  3.973722  -0.007
C  C64  1  0.69798231  0.05679200  0.12643536  1  0.159546  0.004381  3.647477  0.004  0.102008  0.000719  3.916861  0.001  0.118593  0.001435  3.929351  0.002  0.143063  0.091471  0.000188  3.90827  0.0
C  C65  1  0.30201847  0.94320702  0.87356814  1  0.159507  0.004405  3.647446  0.004  0.101959  0.00072  3.916792  0.001  0.118542  0.001436  3.929286  0.002  0.143067  0.091422  0.000189  3.908204  0.0
C  C66  1  0.96163338  0.44003562  0.88414072  1  -0.078049  5.6e-05  3.724051  0.0  -0.097843  -0.000261  3.969825  0.0  -0.099646  -0.000101  3.990956  0.0  -0.085435  -0.09651  -0.000418  3.955456  -0.001
C  C67  1  0.03836865  0.55996340  0.11585566  1  -0.07803  1.9e-05  3.724047  0.0  -0.097837  -0.000261  3.969807  0.0  -0.099638  -0.0001  3.990937  0.0  -0.085456  -0.096501  -0.000418  3.955425  -0.001
C  C68  1  0.03692480  0.43409601  0.09779460  1  -0.080385  -0.000689  3.729216  0.0  -0.101847  -0.000688  3.977042  0.0  -0.102362  -0.000425  3.996863  0.0  -0.087671  -0.101347  -0.000926  3.963489  0.0
C  C69  1  0.96307722  0.56590301  0.90220088  1  -0.080324  -0.000717  3.729041  0.0  -0.101826  -0.000688  3.976898  0.0  -0.102342  -0.000425  3.996722  0.0  -0.08764  -0.101329  -0.000926  3.963356  0.0
C  C70  1  0.63136337  0.85424649  0.07701642  1  -0.016419  -0.000173  3.766825  0.0  -0.048  -0.000886  4.037266  -0.001  -0.044884  -0.00022  4.058661  0.0  -0.012298  -0.049881  -0.001366  4.023003  -0.001
C  C71  1  0.36863722  0.14575535  0.92298543  1  -0.016572  -0.000171  3.766988  0.0  -0.048168  -0.000886  4.037439  -0.001  -0.045053  -0.000221  4.058833  0.0  -0.012356  -0.050046  -0.001367  4.023174  -0.001
C  C72  1  0.99592929  0.23761576  0.95949991  1  0.603232  0.00431  3.940795  0.008  0.560417  0.000678  4.243427  0.004  0.596152  0.001096  4.238447  0.004  0.192668  0.536435  0.000189  4.245606  0.004
C  C73  1  0.00406972  0.76238229  0.04049720  1  0.603155  0.004311  3.9408  0.008  0.56035  0.000678  4.243423  0.004  0.596086  0.001096  4.238439  0.004  0.192583  0.536362  0.000189  4.245603  0.004
C  C74  1  0.48574228  0.87282516  0.13431935  1  -0.067065  -0.003268  3.672463  -0.003  -0.104152  -0.001862  3.922863  -0.002  -0.103141  -0.001618  3.941767  -0.002  -0.001177  -0.10476  -0.002043  3.910177  -0.002
C  C75  1  0.51425832  0.12717667  0.86568340  1  -0.067011  -0.003264  3.672434  -0.003  -0.104084  -0.001862  3.922843  -0.002  -0.103072  -0.001618  3.941746  -0.002  -0.001125  -0.104692  -0.002043  3.910164  -0.002
C  C76  1  0.41882650  0.06590167  0.23081777  1  0.052119  -0.000832  3.623453  -0.001  -0.004172  -0.000535  3.878752  -0.001  0.001036  -0.000391  3.88979  0.0  -0.05225  -0.007464  -0.000665  3.871292  -0.001
C  C77  1  0.58117636  0.93409925  0.76918500  1  0.052144  -0.00083  3.623387  -0.001  -0.0042  -0.000536  3.878673  -0.001  0.001012  -0.000391  3.889708  0.0  -0.052267  -0.007469  -0.000665  3.871223  -0.001
N  N78  1  0.51105385  0.47155737  0.65846463  1  -0.061437  0.001182  3.558379  0.002  0.035637  0.001054  3.771666  0.001  0.020959  0.000753  3.79719  0.001  -0.239828  0.045297  0.001271  3.754187  0.002
N  N79  1  0.48894065  0.52844253  0.34153332  1  -0.06147  0.001183  3.558441  0.002  0.035595  0.001054  3.771708  0.001  0.020915  0.000753  3.797249  0.001  -0.239862  0.045257  0.001271  3.754223  0.002
N  N80  1  0.75927361  0.45441165  0.57461831  1  -0.362912  0.068014  3.336248  0.084  -0.319208  0.049637  3.653601  0.065  -0.351085  0.041964  3.673881  0.058  -0.374836  -0.299465  0.053689  3.641623  0.068
N  N81  1  0.24072014  0.54558635  0.42538041  1  -0.362869  0.068001  3.336115  0.084  -0.319177  0.049635  3.653449  0.065  -0.351052  0.041963  3.673745  0.058  -0.374832  -0.29944  0.053688  3.641475  0.068
N  N82  1  0.52986379  0.00147254  0.16401544  1  -0.053097  -0.001433  3.549736  -0.002  0.044564  -0.001178  3.759438  -0.002  0.029646  -0.000857  3.785336  -0.001  -0.238614  0.054339  -0.001405  3.741715  -0.002
N  N83  1  0.47014114  0.99853029  0.83598662  1  -0.053023  -0.001446  3.549676  -0.002  0.044628  -0.001178  3.759422  -0.002  0.029709  -0.000857  3.785321  -0.001  -0.238587  0.054404  -0.001405  3.741694  -0.002
N  N84  1  0.76294959  0.96973530  0.07228172  1  -0.363844  -0.068361  3.36223  -0.084  -0.321508  -0.048044  3.683104  -0.062  -0.353813  -0.040612  3.70319  -0.055  -0.38522  -0.301535  -0.051892  3.671179  -0.065
N  N85  1  0.23705101  0.03026653  0.92772102  1  -0.363788  -0.06837  3.362177  -0.084  -0.321439  -0.048045  3.683046  -0.062  -0.353745  -0.040612  3.703134  -0.055  -0.385225  -0.301467  -0.051892  3.671124  -0.065
O  O86  1  0.89953317  0.27112410  0.35865326  1  -0.616923  -0.000719  1.895091  0.0  -0.584607  -0.00067  2.129675  0.0  -0.608813  -0.001394  2.120275  -0.001  -0.329371  -0.567751  5.3e-05  2.135678  0.001
O  O87  1  0.10045836  0.72887482  0.64134992  1  -0.616905  -0.00072  1.895179  0.0  -0.584616  -0.000671  2.129813  0.0  -0.608821  -0.001393  2.120405  -0.001  -0.329407  -0.567758  5.3e-05  2.13582  0.001
O  O88  1  0.03852105  0.33725479  0.54427642  1  -0.599723  0.106463  2.053309  0.137  -0.578577  0.068467  2.345682  0.097  -0.621823  0.053637  2.339312  0.08  -0.332778  -0.549399  0.077802  2.349888  0.106
O  O89  1  0.96147535  0.66274324  0.45572419  1  -0.599677  0.106463  2.05341  0.137  -0.578518  0.068469  2.345739  0.097  -0.621761  0.053638  2.339359  0.08  -0.332765  -0.549353  0.077801  2.349975  0.106
O  O90  1  0.93444264  0.17994763  0.85904427  1  -0.610486  0.000108  1.959855  -0.001  -0.575593  6.5e-05  2.200164  -0.001  -0.600573  0.00094  2.190938  0.0  -0.317141  -0.558157  -0.000786  2.206035  -0.002
O  O91  1  0.06555940  0.82005139  0.14095390  1  -0.610468  0.000104  1.95981  -0.001  -0.575563  6.5e-05  2.200101  -0.001  -0.600544  0.00094  2.190875  0.0  -0.317106  -0.558128  -0.000786  2.205976  -0.002
O  O92  1  0.05680032  0.18648920  0.04901627  1  -0.593457  -0.105275  2.017013  -0.136  -0.567688  -0.069872  2.293371  -0.099  -0.610007  -0.054586  2.286599  -0.081  -0.329724  -0.539255  -0.079534  2.297893  -0.108
O  O93  1  0.94319721  0.81351166  0.95098273  1  -0.59344  -0.105265  2.016972  -0.136  -0.567662  -0.06987  2.293331  -0.099  -0.60998  -0.054584  2.286557  -0.081  -0.329704  -0.539229  -0.079532  2.297857  -0.108
