# generated using pymatgen
data_Zn2H27C41N11
_symmetry_space_group_name_H-M   'P 1'
_cell_length_a   18.65458920
_cell_length_b   19.21350139
_cell_length_c   21.87337148
_cell_angle_alpha   111.80290775
_cell_angle_beta   105.83166296
_cell_angle_gamma   110.93906098
_symmetry_Int_Tables_number   1
_chemical_formula_structural   Zn2H27C41N11
_chemical_formula_sum   'Zn4 H54 C82 N22'
_cell_volume   6009.05595424
_cell_formula_units_Z   2
loop_
 _symmetry_equiv_pos_site_id
 _symmetry_equiv_pos_as_xyz
  1  'x, y, z'
loop_
 _atom_site_type_symbol
 _atom_site_label
 _atom_site_symmetry_multiplicity
 _atom_site_fract_x
 _atom_site_fract_y
 _atom_site_fract_z
 _atom_site_occupancy
 _atom_site_pbe_bader_charge
 _atom_site_pbe_bader_spin_density
 _atom_site_pbe_cm5_charge
 _atom_site_pbe_ddec_charge
 _atom_site_pbe_ddec_spin_density
 _atom_site_pbe_ddec_sum_bond_order
 _atom_site_pbe_magmom
Zn  Zn0  1  0.11379449  0.10794157  0.50775650  1  1.191432  0  0.745446  0.604589  0  2.509616  0
Zn  Zn1  1  0.92345111  0.94072917  0.53432386  1  1.188399  0  0.754178  0.643419  0  2.367751  0
Zn  Zn2  1  0.00155743  0.89209438  0.40148220  1  1.196947  0  0.735634  0.608891  0  2.449898  0
Zn  Zn3  1  0.01698022  0.13450647  0.61467546  1  1.176598  0  0.754288  0.607852  0  2.519418  0
H  H4  1  0.06269317  0.15540113  0.38334721  1  0.09842  0  0.113175  0.097667  0  1.011486  0
H  H5  1  0.01553772  0.74988905  0.64327190  1  0.043399  0  0.098529  0.100096  0  1.011527  0
H  H6  1  0.01440034  0.66956994  0.70924145  1  0.062098  0  0.101531  0.102653  0  0.993057  0
H  H7  1  0.74445746  0.88677609  0.39411482  1  0.102384  0  0.122212  0.114319  0  1.001246  0
H  H8  1  0.04221831  0.56115621  0.72863631  1  0.041621  0  0.099848  0.101448  0  0.997372  0
H  H9  1  0.22571283  0.45099915  0.56329240  1  0.043359  0  0.097108  0.098917  0  1.013749  0
H  H10  1  0.25664074  0.55727721  0.52184254  1  0.038385  0  0.099752  0.101033  0  0.997198  0
H  H11  1  0.22900157  0.66587543  0.50267181  1  0.054046  0  0.10076  0.102247  0  0.994006  0
H  H12  1  0.25363640  0.88264274  0.29673868  1  0.035169  0  0.097793  0.101005  0  1.008619  0
H  H13  1  0.40466589  0.15235221  0.47592309  1  0.014525  0  0.096158  0.096378  0  1.022193  0
H  H14  1  0.55880765  0.24215856  0.51370015  1  0.048585  0  0.099635  0.100511  0  0.997939  0
H  H15  1  0.94380373  0.80422136  0.58463119  1  0.083  0  0.116704  0.10319  0  1.004434  0
H  H16  1  0.69443997  0.24811608  0.51634851  1  0.064259  0  0.100351  0.101845  0  0.995852  0
H  H17  1  0.76827508  0.16697721  0.48663160  1  0.014464  0  0.09685  0.096574  0  1.021706  0
H  H18  1  0.88316456  0.67479945  0.24701082  1  0.057158  0  0.108416  0.094107  0  1.015746  0
H  H19  1  0.62299685  0.89586889  0.31067223  1  0.044928  0  0.10078  0.10674  0  1.002071  0
H  H20  1  0.46081933  0.82129963  0.23756402  1  0.049179  0  0.099439  0.10078  0  0.99761  0
H  H21  1  0.32550304  0.81630713  0.23333233  1  0.04414  0  0.098729  0.100246  0  0.998658  0
H  H22  1  0.76984965  0.53165571  0.15090525  1  0.051264  0  0.093692  0.09788  0  1.014283  0
H  H23  1  0.64631161  0.38422525  0.04749990  1  0.107095  0  0.102037  0.103799  0  1.015782  0
H  H24  1  0.48151135  0.18349581  0.84782232  1  0.072086  0  0.103833  0.106942  0  0.997618  0
H  H25  1  0.35467802  0.09749053  0.72139005  1  0.058524  0  0.099277  0.100786  0  0.998628  0
H  H26  1  0.14788920  0.86630997  0.34880065  1  0.083017  0  0.116625  0.105401  0  0.998811  0
H  H27  1  0.60238840  0.57051870  0.24532995  1  0.034864  0  0.094312  0.100728  0  1.046574  0
H  H28  1  0.31946030  0.22105329  0.94777678  1  0.076351  0  0.096931  0.095055  0  1.028583  0
H  H29  1  0.09176602  0.33806426  0.69477021  1  0.092734  0  0.119414  0.107008  0  0.997916  0
H  H30  1  0.19305209  0.13635439  0.82321478  1  0.039401  0  0.093928  0.095199  0  1.019317  0
H  H31  1  0.07122736  0.19882786  0.89322483  1  0.029206  0  0.095601  0.099618  0  1.022202  0
H  H32  1  0.11095969  0.14605344  0.17454493  1  0.08324  0  0.101036  0.100788  0  1.029363  0
H  H33  1  0.09842941  0.14794466  0.28503294  1  0.056939  0  0.095708  0.09368  0  1.008508  0
H  H34  1  0.91885222  0.91767761  0.77860693  1  0.045479  0  0.094126  0.096073  0  1.016196  0
H  H35  1  0.90648481  0.87690999  0.03566683  1  0.10258  0  0.103734  0.105438  0  0.998464  0
H  H36  1  0.95940503  0.92820590  0.90108651  1  0.11373  0  0.103574  0.103353  0  1.02372  0
H  H37  1  0.02171093  0.19207506  0.78025285  1  0.078934  0  0.120134  0.11012  0  0.989872  0
H  H38  1  0.89080538  0.87844508  0.14557224  1  0.045363  0  0.101226  0.103565  0  0.99859  0
H  H39  1  0.70123861  0.71086411  0.32425398  1  0.04664  0  0.103113  0.086554  0  1.015577  0
H  H40  1  0.19057788  0.30693044  0.53512602  1  0.077691  0  0.12025  0.107543  0  0.996416  0
H  H41  1  0.89315802  0.16915643  0.50506891  1  0.069384  0  0.119701  0.106967  0  0.996229  0
H  H42  1  0.91299473  0.87244117  0.25442335  1  0.082715  0  0.119183  0.107449  0  1.006123  0
H  H43  1  0.25676557  0.10287959  0.61833293  1  0.098472  0  0.122635  0.109762  0  0.991637  0
H  H44  1  0.08827528  0.45300327  0.69343513  1  0.026079  0  0.096007  0.096678  0  1.01878  0
H  H45  1  0.41625950  0.35623039  0.09333213  1  0.455209  0  0.301794  0.233348  0  1.002544  0
H  H46  1  0.36919342  0.42402438  0.17223782  1  0.029866  0  0.099719  0.098964  0  1.014064  0
H  H47  1  0.44479280  0.52121360  0.18163499  1  0.032671  0  0.091667  0.087912  0  0.991033  0
H  H48  1  0.89174640  0.91016440  0.66780370  1  0.055448  0  0.120959  0.108621  0  0.994591  0
H  H49  1  0.47598040  0.49043101  0.24749764  1  0.039927  0  0.099579  0.102594  0  0.980759  0
H  H50  1  0.14629033  0.27648746  0.01513490  1  0.416524  0  0.313373  0.24812  0  0.948761  0
H  H51  1  0.20851488  0.21188660  0.10279749  1  0.065596  0  0.102858  0.110366  0  0.984629  0
H  H52  1  0.13923111  0.24425680  0.13034836  1  0.059756  0  0.097802  0.100585  0  1.014192  0
H  H53  1  0.23072571  0.32082993  0.13227084  1  0.024719  0  0.09758  0.095797  0  1.012017  0
H  H54  1  0.28821595  0.14869633  0.48168110  1  0.079125  0  0.114888  0.101073  0  1.006382  0
H  H55  1  0.07566613  0.04847268  0.70614561  1  0.123031  0  0.115305  0.100219  0  1.060974  0
H  H56  1  0.11467093  0.83781433  0.48454288  1  0.090431  0  0.118466  0.104886  0  1.003341  0
H  H57  1  0.14987593  0.74577489  0.51066207  1  0.02854  0  0.098744  0.101216  0  1.011644  0
C  C58  1  0.02729369  0.08581877  0.36218623  1  0.322687  0  0.003042  -0.055966  0  3.97845  0
C  C59  1  0.24345036  0.07883811  0.45261462  1  0.389186  0  0.003948  -0.061208  0  4.015951  0
C  C60  1  0.10931234  0.05976974  0.67440578  1  0.360505  0  0.004143  -0.047945  0  3.932931  0
C  C61  1  0.79204110  0.95616017  0.42836354  1  0.437167  0  0.021301  -0.024227  0  3.922216  0
C  C62  1  0.06709992  0.83605153  0.50446131  1  0.411469  0  0.012987  -0.042492  0  3.953475  0
C  C63  1  0.19517746  0.08304069  0.69117115  1  -0.013327  0  -0.026806  -0.02177  0  4.041399  0
C  C64  1  0.04501208  0.80133075  0.54754945  1  0.008886  0  -0.034452  -0.03656  0  4.066615  0
C  C65  1  0.24797223  0.00913012  0.40516945  1  0.017132  0  -0.039587  -0.039482  0  4.089636  0
C  C66  1  0.96493093  0.05358470  0.75578501  1  0.017874  0  -0.031733  -0.037468  0  4.06849  0
C  C67  1  0.13000139  0.72655557  0.54710724  1  -0.011419  0  -0.0912  -0.18654  0  3.933475  0
C  C68  1  0.07758812  0.75298318  0.57296445  1  0.042231  0  -0.008641  0.093972  0  4.077963  0
C  C69  1  0.78456243  0.02773277  0.43155084  1  0.04185  0  -0.031146  -0.034542  0  4.036934  0
C  C70  1  0.05409720  0.72816215  0.62064197  1  -0.03551  0  -0.090898  -0.185416  0  3.934514  0
C  C71  1  0.07666515  0.67353228  0.63863417  1  -0.027784  0  -0.009423  0.080748  0  4.053947  0
C  C72  1  0.12559056  0.64288839  0.60837754  1  -0.001507  0  -0.000512  -0.001376  0  3.920621  0
C  C73  1  0.84868102  0.69751436  0.27439757  1  0.375511  0  -0.006312  -0.062984  0  4.008433  0
C  C74  1  0.15463987  0.67231939  0.56384537  1  -0.014872  0  -0.009624  0.080613  0  4.057091  0
C  C75  1  0.04942922  0.64405686  0.68419524  1  -0.00716  0  -0.091534  -0.131259  0  4.01769  0
C  C76  1  0.06490046  0.58415941  0.69501005  1  -0.082053  0  -0.095283  -0.14045  0  4.028995  0
C  C77  1  0.10902142  0.54821812  0.66118319  1  0.02026  0  -0.010315  0.082784  0  4.060759  0
C  C78  1  0.14164391  0.58060187  0.61951861  1  -0.016957  0  0.000575  -0.000375  0  3.918511  0
C  C79  1  0.18672068  0.54659842  0.58606528  1  -0.006928  0  -0.00963  0.083393  0  4.055511  0
C  C80  1  0.76240637  0.65207004  0.26093447  1  0.015113  0  -0.048011  -0.058733  0  4.093759  0
C  C81  1  0.22000327  0.58138153  0.54556867  1  -0.050033  0  -0.09498  -0.139825  0  4.024927  0
C  C82  1  0.20468707  0.64149419  0.53495342  1  -0.025386  0  -0.092115  -0.132922  0  4.01791  0
C  C83  1  0.11692526  0.47960761  0.66416338  1  -0.064333  0  -0.096149  -0.193251  0  3.949259  0
C  C84  1  0.15574748  0.44160740  0.62705210  1  0.005473  0  -0.015302  0.083831  0  4.096232  0
C  C85  1  0.11364010  0.31738057  0.65379316  1  0.374127  0  0.00711  -0.056548  0  3.989582  0
C  C86  1  0.19319522  0.47803604  0.59080697  1  -0.037732  0  -0.09532  -0.192331  0  3.948558  0
C  C87  1  0.31548134  0.94438591  0.33367994  1  -0.02876  0  -0.094778  -0.19165  0  3.939643  0
C  C88  1  0.32037790  0.01585333  0.38894638  1  0.043235  0  -0.0136  0.0902  0  4.091788  0
C  C89  1  0.39966019  0.09578853  0.43315532  1  -0.051641  0  -0.096128  -0.192866  0  3.955297  0
C  C90  1  0.47488734  0.10420803  0.42777879  1  0.044237  0  -0.011791  0.081326  0  4.069029  0
C  C91  1  0.14898228  0.36065049  0.62067894  1  0.024662  0  -0.032507  -0.028704  0  4.07414  0
C  C92  1  0.47119112  0.02911230  0.37612018  1  -0.027704  0  -0.00153  -0.00235  0  3.924149  0
C  C93  1  0.38953001  0.94932989  0.32662666  1  -0.014752  0  -0.011283  0.080192  0  4.057176  0
C  C94  1  0.55709081  0.18431859  0.47620822  1  -0.087404  0  -0.095354  -0.137875  0  4.033734  0
C  C95  1  0.63182950  0.18757907  0.47768092  1  -0.016623  0  -0.094312  -0.136126  0  4.029314  0
C  C96  1  0.63068083  0.11076183  0.43134872  1  -0.063084  0  -0.010834  0.080704  0  4.063897  0
C  C97  1  0.75683738  0.71668900  0.31477006  1  0.430754  0  -0.008844  -0.057265  0  4.05691  0
C  C98  1  0.54896751  0.03225855  0.37806808  1  0.019347  0  -0.000517  0.000105  0  3.922799  0
C  C99  1  0.54693515  0.95544837  0.33136894  1  -0.015146  0  -0.010836  0.079549  0  4.050663  0
C  C100  1  0.46334314  0.87881622  0.27656908  1  -0.059072  0  -0.094694  -0.137983  0  4.023344  0
C  C101  1  0.38823732  0.87598177  0.27423417  1  -0.038381  0  -0.095338  -0.139634  0  4.026864  0
C  C102  1  0.20132682  0.08630716  0.62910264  1  0.422056  0  0.023505  -0.019822  0  3.916562  0
C  C103  1  0.70681467  0.10818212  0.44185645  1  0.010722  0  -0.093549  -0.188812  0  3.948734  0
C  C104  1  0.70532529  0.03040263  0.40239980  1  0.005501  0  -0.010194  0.092478  0  4.069806  0
C  C105  1  0.62533765  0.95598992  0.34431056  1  -0.034749  0  -0.093354  -0.191961  0  3.930482  0
C  C106  1  0.26517859  0.11398490  0.76258476  1  0.02915  0  -0.012867  0.078322  0  4.033744  0
C  C107  1  0.25597244  0.14555095  0.82785589  1  -0.0006  0  -0.096799  -0.126127  0  3.992238  0
C  C108  1  0.32650018  0.19318273  0.89796648  1  -0.101254  0  -0.094751  -0.146398  0  3.990897  0
C  C109  1  0.16395616  0.30130755  0.57257952  1  0.43881  0  0.012081  -0.047006  0  3.970524  0
C  C110  1  0.40977827  0.21128152  0.90561755  1  0.398378  0  0.081663  0.173074  0  4.068671  0
C  C111  1  0.41739768  0.17176698  0.84109378  1  -0.049224  0  -0.087939  -0.14194  0  3.978641  0
C  C112  1  0.34640228  0.12438058  0.77076580  1  -0.066321  0  -0.098508  -0.136172  0  4.008801  0
C  C113  1  0.98010976  0.81892027  0.55547400  1  0.40841  0  0.009232  -0.048834  0  3.968122  0
C  C114  1  0.63845077  0.42530933  0.09215624  1  -0.046437  0  -0.090298  -0.120385  0  4.016432  0
C  C115  1  0.70651180  0.50740211  0.14939533  1  -0.012108  0  -0.111493  -0.168363  0  4.024738  0
C  C116  1  0.55482325  0.39339323  0.08711298  1  0.418197  0  0.07051  0.062811  0  4.050177  0
C  C117  1  0.69394467  0.56251328  0.20470515  1  -0.013962  0  -0.00222  0.129269  0  4.065011  0
C  C118  1  0.61233174  0.52949614  0.20249213  1  0.01516  0  -0.121417  -0.274174  0  3.967881  0
C  C119  1  0.54257629  0.44570371  0.14546875  1  0.390437  0  0.107239  0.189599  0  4.067001  0
C  C120  1  0.99208724  0.01402373  0.22356601  1  0.003696  0  -0.005771  0.092842  0  4.031507  0
C  C121  1  0.86795705  0.10026352  0.48526301  1  0.402052  0  0.011283  -0.036943  0  3.96874  0
C  C122  1  0.93934779  0.93733920  0.15250233  1  -0.042639  0  -0.095272  -0.131167  0  3.994897  0
C  C123  1  0.94771318  0.93583683  0.09096850  1  -0.021731  0  -0.086814  -0.140926  0  3.988171  0
C  C124  1  0.17168899  0.93509634  0.38464615  1  0.397338  0  0.004089  -0.058815  0  3.983659  0
C  C125  1  0.00790775  0.01138577  0.09759591  1  0.402732  0  0.079335  0.16619  0  4.079274  0
C  C126  1  0.06256665  0.08805037  0.16875451  1  -0.074451  0  -0.091354  -0.146415  0  3.983778  0
C  C127  1  0.05450359  0.08874036  0.23008946  1  -0.069113  0  -0.095563  -0.127945  0  3.997986  0
C  C128  1  0.07197281  0.14596297  0.96446868  1  0.498708  0  0.111755  0.189925  0  4.050736  0
C  C129  1  0.04545530  0.13863167  0.89414760  1  -0.072916  0  -0.113301  -0.267608  0  3.981886  0
C  C130  1  0.03612678  0.06763855  0.96605211  1  0.377586  0  0.073149  0.065979  0  4.009261  0
C  C131  1  0.98954970  0.05864135  0.82736553  1  -0.023674  0  -0.011706  0.107524  0  4.088876  0
C  C132  1  0.96048428  0.98134428  0.83005601  1  -0.059133  0  -0.112554  -0.165482  0  4.037918  0
C  C133  1  0.95011317  0.94173961  0.29623612  1  0.378861  0  0.010718  -0.04284  0  3.947578  0
C  C134  1  0.98343441  0.98663651  0.89770756  1  -0.024372  0  -0.08874  -0.120278  0  4.018849  0
C  C135  1  0.98683479  0.12199938  0.74162965  1  0.422254  0  0.009989  -0.050666  0  3.983391  0
C  C136  1  0.98724301  0.01446542  0.28913978  1  0.076645  0  -0.034645  -0.037813  0  4.072755  0
C  C137  1  0.43745752  0.46493842  0.18801103  1  0.320171  0  -0.13199  -0.197405  0  4.014525  0
C  C138  1  0.17893200  0.25203426  0.10172140  1  0.300474  0  -0.134205  -0.212937  0  4.013367  0
C  C139  1  0.92065395  0.97837471  0.68411950  1  0.427955  0  0.0143  -0.041524  0  3.972397  0
N  N140  1  0.01650826  0.05715484  0.40867475  1  -0.76839  0  -0.289848  -0.188949  0  3.590692  0
N  N141  1  0.47986388  0.32008086  0.02583655  1  -0.597028  0  -0.172453  -0.151903  0  3.417883  0
N  N142  1  0.00433838  0.00352183  0.03038607  1  -0.52926  0  -0.174788  -0.177343  0  3.317066  0
N  N143  1  0.87269845  0.98504439  0.47812662  1  -0.788791  0  -0.281735  -0.176407  0  3.631673  0
N  N144  1  0.04808768  0.07528007  0.03464082  1  -0.513164  0  -0.164743  -0.132434  0  3.333267  0
N  N145  1  0.88844223  0.78078019  0.33085713  1  -0.825481  0  -0.289497  -0.189633  0  3.642896  0
N  N146  1  0.10747827  0.23878663  0.62713084  1  -0.804432  0  -0.286653  -0.176354  0  3.592403  0
N  N147  1  0.83168808  0.79306697  0.35640658  1  -0.737203  0  -0.271412  -0.245342  0  3.317679  0
N  N148  1  0.13857576  0.22855150  0.57618228  1  -0.786007  0  -0.271345  -0.17063  0  3.551344  0
N  N149  1  0.91948707  0.07400890  0.51316695  1  -0.806573  0  -0.292476  -0.201625  0  3.635584  0
N  N150  1  0.96937590  0.96784172  0.36788680  1  -0.784118  0  -0.274802  -0.1734  0  3.532489  0
N  N151  1  0.96462823  0.85936182  0.51893730  1  -0.78769  0  -0.284701  -0.168298  0  3.631273  0
N  N152  1  0.12555329  0.06845789  0.58088197  1  -0.792046  0  -0.284156  -0.184902  0  3.626561  0
N  N153  1  0.46275682  0.41243199  0.14256002  1  -1.219376  0  -0.445402  -0.279053  0  3.629878  0
N  N154  1  0.12865687  0.22806807  0.02617953  1  -1.192516  0  -0.434868  -0.264035  0  3.618041  0
N  N155  1  0.12616336  0.95924906  0.41761546  1  -0.813681  0  -0.267369  -0.176941  0  3.529022  0
N  N156  1  0.95942021  0.09004548  0.66813501  1  -0.822162  0  -0.284931  -0.185226  0  3.562415  0
N  N157  1  0.91832023  0.00030273  0.63216964  1  -0.764179  0  -0.277781  -0.191365  0  3.51903  0
N  N158  1  0.17119876  0.04882411  0.45967385  1  -0.762673  0  -0.275909  -0.174493  0  3.585261  0
N  N159  1  0.06769080  0.05227368  0.60837610  1  -0.834221  0  -0.304041  -0.229844  0  3.614492  0
N  N160  1  0.01905258  0.87064226  0.48792652  1  -0.780644  0  -0.26722  -0.162557  0  3.564129  0
N  N161  1  0.48822391  0.27313052  0.97178959  1  -0.492237  0  -0.185328  -0.186408  0  3.282722  0
