# generated using pymatgen
data_CdH7C5N2O5
_symmetry_space_group_name_H-M   'P 1'
_cell_length_a   8.30051041
_cell_length_b   8.93071889
_cell_length_c   12.32694973
_cell_angle_alpha   99.85317703
_cell_angle_beta   89.99969553
_cell_angle_gamma   90.00018749
_symmetry_Int_Tables_number   1
_chemical_formula_structural   CdH7C5N2O5
_chemical_formula_sum   'Cd4 H28 C20 N8 O20'
_cell_volume   900.31205723
_cell_formula_units_Z   4
loop_
 _symmetry_equiv_pos_site_id
 _symmetry_equiv_pos_as_xyz
  1  'x, y, z'
loop_
 _atom_site_type_symbol
 _atom_site_label
 _atom_site_symmetry_multiplicity
 _atom_site_fract_x
 _atom_site_fract_y
 _atom_site_fract_z
 _atom_site_occupancy
 _atom_site_hle17_bader_spin_density
 _atom_site_hle17_ddec_charge
 _atom_site_hle17_ddec_spin_density
 _atom_site_hle17_ddec_sum_bond_order
 _atom_site_hle17_magmom
 _atom_site_hse06_10hf_bader_spin_density
 _atom_site_hse06_10hf_ddec_charge
 _atom_site_hse06_10hf_ddec_spin_density
 _atom_site_hse06_10hf_ddec_sum_bond_order
 _atom_site_hse06_10hf_magmom
 _atom_site_hse06_bader_spin_density
 _atom_site_hse06_ddec_charge
 _atom_site_hse06_ddec_spin_density
 _atom_site_hse06_ddec_sum_bond_order
 _atom_site_hse06_magmom
 _atom_site_pbe_bader_spin_density
 _atom_site_pbe_cm5_charge
 _atom_site_pbe_ddec_charge
 _atom_site_pbe_ddec_spin_density
 _atom_site_pbe_ddec_sum_bond_order
 _atom_site_pbe_magmom
Cd  Cd0  1  0.17866262  0.07965550  0.61562801  1  0  1.113788  0  1.634145  0  0  0.923606  0  2.078262  0  0  0.978667  0  2.026241  0  0  0.763048  0.884534  0  2.113846  0
Cd  Cd1  1  0.67865760  0.92033259  0.88437082  1  0  1.113845  0  1.634109  0  0  0.923691  0  2.078201  0  0  0.978754  0  2.02618  0  0  0.763082  0.884622  0  2.113786  0
Cd  Cd2  1  0.82133876  0.92033712  0.38437401  1  0  1.113797  0  1.634163  0  0  0.923631  0  2.078274  0  0  0.978696  0  2.02625  0  0  0.763071  0.884562  0  2.113861  0
Cd  Cd3  1  0.32134016  0.07966127  0.11562895  1  0  1.113776  0  1.634198  0  0  0.923609  0  2.07831  0  0  0.97867  0  2.026288  0  0  0.763075  0.884539  0  2.113896  0
H  H4  1  0.16352148  0.94342360  0.36992211  1  0  0.2992  0  0.900633  0  0  0.288239  0  0.957266  0  0  0.294095  0  0.953538  0  0  0.305212  0.284035  0  0.959984  0
H  H5  1  0.66352505  0.05657330  0.13008121  1  0  0.299193  0  0.900672  0  0  0.288235  0  0.957298  0  0  0.294091  0  0.953569  0  0  0.305221  0.284032  0  0.960016  0
H  H6  1  0.83647629  0.05657477  0.63007912  1  0  0.299216  0  0.900649  0  0  0.288271  0  0.957257  0  0  0.294127  0  0.953528  0  0  0.305226  0.284068  0  0.959975  0
H  H7  1  0.33648115  0.94342828  0.86992536  1  0  0.299189  0  0.900724  0  0  0.288242  0  0.957335  0  0  0.294098  0  0.953607  0  0  0.305237  0.284039  0  0.960052  0
H  H8  1  0.32086060  0.58793783  0.36213340  1  0  0.115205  0  0.936882  0  0  0.123535  0  0.999014  0  0  0.127941  0  0.995893  0  0  0.109294  0.120306  0  1.001415  0
H  H9  1  0.82087019  0.41204816  0.13786534  1  0  0.115156  0  0.936959  0  0  0.123431  0  0.999137  0  0  0.12789  0  0.995958  0  0  0.109285  0.120204  0  1.001537  0
H  H10  1  0.67913837  0.41205275  0.63786265  1  0  0.115158  0  0.936866  0  0  0.123478  0  0.999004  0  0  0.127887  0  0.995879  0  0  0.109279  0.120251  0  1.001405  0
H  H11  1  0.17914083  0.58794667  0.86213862  1  0  0.115153  0  0.936918  0  0  0.123479  0  0.999047  0  0  0.127889  0  0.995923  0  0  0.109286  0.120251  0  1.001446  0
H  H12  1  0.03873356  0.23312675  0.45899552  1  0  0.291406  0  0.871891  0  0  0.288802  0  0.914481  0  0  0.293406  0  0.912559  0  0  0.316452  0.285457  0  0.915984  0
H  H13  1  0.53873072  0.76687198  0.04101257  1  0  0.291415  0  0.871956  0  0  0.288802  0  0.914556  0  0  0.293407  0  0.912633  0  0  0.316439  0.285454  0  0.916066  0
H  H14  1  0.96126059  0.76686805  0.54100925  1  0  0.291438  0  0.871841  0  0  0.288821  0  0.914436  0  0  0.293427  0  0.912508  0  0  0.316449  0.285474  0  0.915943  0
H  H15  1  0.46126945  0.23313301  0.95899449  1  0  0.291373  0  0.87195  0  0  0.288768  0  0.914539  0  0  0.293373  0  0.912617  0  0  0.316442  0.28542  0  0.916049  0
H  H16  1  0.22925811  0.20029928  0.41550907  1  0  0.291093  0  0.935294  0  0  0.275238  0  0.999648  0  0  0.282482  0  0.994727  0  0  0.293868  0.270035  0  1.003184  0
H  H17  1  0.72925624  0.79969767  0.08449645  1  0  0.291067  0  0.935262  0  0  0.275193  0  0.999654  0  0  0.282439  0  0.994734  0  0  0.293822  0.269989  0  1.003188  0
H  H18  1  0.77073243  0.79970129  0.58449410  1  0  0.291125  0  0.935269  0  0  0.275237  0  0.999654  0  0  0.28249  0  0.994739  0  0  0.293844  0.270035  0  1.003187  0
H  H19  1  0.27074514  0.20030515  0.91550786  1  0  0.291078  0  0.935244  0  0  0.275191  0  0.999655  0  0  0.282436  0  0.994736  0  0  0.293837  0.269987  0  1.00319  0
H  H20  1  0.07655568  0.05683346  0.29249103  1  0  0.289987  0  0.929575  0  0  0.275707  0  0.993866  0  0  0.282183  0  0.989209  0  0  0.292887  0.271062  0  0.997255  0
H  H21  1  0.57655576  0.94316668  0.20751225  1  0  0.289939  0  0.929743  0  0  0.275657  0  0.994036  0  0  0.282134  0  0.989379  0  0  0.292875  0.271011  0  0.997426  0
H  H22  1  0.92343486  0.94316484  0.70751181  1  0  0.290069  0  0.92963  0  0  0.275732  0  0.993989  0  0  0.282209  0  0.989333  0  0  0.292898  0.271087  0  0.997377  0
H  H23  1  0.42344923  0.05683500  0.79249189  1  0  0.290014  0  0.929554  0  0  0.275734  0  0.993847  0  0  0.282211  0  0.98919  0  0  0.292902  0.271089  0  0.997234  0
H  H24  1  0.52820391  0.15837992  0.61683689  1  0  0.430899  0  0.876264  0  0  0.393795  0  0.94906  0  0  0.405786  0  0.931973  0  0  0.286035  0.385363  0  0.961037  0
H  H25  1  0.02819506  0.84162065  0.88315617  1  0  0.430975  0  0.876164  0  0  0.393887  0  0.948943  0  0  0.405878  0  0.931857  0  0  0.286075  0.385454  0  0.960922  0
H  H26  1  0.47179988  0.84162186  0.38316483  1  0  0.430918  0  0.876231  0  0  0.393795  0  0.949059  0  0  0.405785  0  0.931974  0  0  0.286036  0.385362  0  0.961036  0
H  H27  1  0.97180150  0.15837904  0.11684038  1  0  0.430991  0  0.876146  0  0  0.3939  0  0.948929  0  0  0.405891  0  0.931842  0  0  0.286073  0.385468  0  0.960907  0
H  H28  1  0.43493364  0.28621626  0.69945127  1  0  0.422137  0  0.825671  0  0  0.402272  0  0.88388  0  0  0.410243  0  0.875096  0  0  0.317881  0.396575  0  0.890185  0
H  H29  1  0.93493217  0.71377338  0.80055092  1  0  0.422213  0  0.825566  0  0  0.402342  0  0.883763  0  0  0.410312  0  0.874981  0  0  0.317906  0.396648  0  0.890068  0
H  H30  1  0.56506171  0.71377864  0.30055108  1  0  0.422113  0  0.825668  0  0  0.402258  0  0.883858  0  0  0.410229  0  0.875074  0  0  0.317882  0.396562  0  0.890162  0
H  H31  1  0.06506319  0.28622025  0.19945450  1  0  0.422179  0  0.825694  0  0  0.402323  0  0.883871  0  0  0.410295  0  0.875086  0  0  0.317908  0.396628  0  0.890176  0
C  C32  1  0.33750016  0.79204301  0.54928497  1  0  0.648056  0  3.903072  0  0  0.594654  0  4.201116  0  0  0.628595  0  4.194205  0  0  0.203398  0.571636  0  4.205011  0
C  C33  1  0.83749691  0.20795458  0.95071304  1  0  0.648149  0  3.902963  0  0  0.594724  0  4.201068  0  0  0.628661  0  4.194156  0  0  0.203423  0.57171  0  4.204964  0
C  C34  1  0.66250724  0.20795999  0.45071450  1  0  0.648117  0  3.902737  0  0  0.594716  0  4.2008  0  0  0.628659  0  4.193886  0  0  0.203379  0.5717  0  4.204697  0
C  C35  1  0.16249483  0.79204524  0.04928029  1  0  0.64783  0  3.902953  0  0  0.594408  0  4.201054  0  0  0.628347  0  4.194148  0  0  0.203266  0.571393  0  4.204945  0
C  C36  1  0.42143820  0.64115599  0.52574009  1  0  -0.061279  0  3.73401  0  0  -0.050079  0  3.975553  0  0  -0.054246  0  3.994825  0  0  -0.012031  -0.047471  0  3.962729  0
C  C37  1  0.92142927  0.35883940  0.97426055  1  0  -0.061249  0  3.734028  0  0  -0.050075  0  3.975578  0  0  -0.054244  0  3.994865  0  0  -0.012042  -0.047478  0  3.96277  0
C  C38  1  0.57857041  0.35884024  0.47425759  1  0  -0.061218  0  3.733921  0  0  -0.050024  0  3.975454  0  0  -0.054197  0  3.994727  0  0  -0.011997  -0.047422  0  3.962642  0
C  C39  1  0.07856247  0.64115676  0.02573874  1  0  -0.061228  0  3.734086  0  0  -0.049985  0  3.975664  0  0  -0.054156  0  3.994938  0  0  -0.01206  -0.047382  0  3.962845  0
C  C40  1  0.55852550  0.68805867  0.71308626  1  0  0.648008  0  3.945763  0  0  0.59545  0  4.24764  0  0  0.629112  0  4.240602  0  0  0.192821  0.572539  0  4.25164  0
C  C41  1  0.05853239  0.31196283  0.78689916  1  0  0.648545  0  3.945709  0  0  0.595879  0  4.2477  0  0  0.629539  0  4.240661  0  0  0.192925  0.572969  0  4.2517  0
C  C42  1  0.44147588  0.31194456  0.28690755  1  0  0.64809  0  3.945486  0  0  0.595491  0  4.247403  0  0  0.62915  0  4.240368  0  0  0.192882  0.57258  0  4.251402  0
C  C43  1  0.94146778  0.68805176  0.21309630  1  0  0.648309  0  3.945547  0  0  0.595714  0  4.247548  0  0  0.629376  0  4.240508  0  0  0.192928  0.572804  0  4.251548  0
C  C44  1  0.52024015  0.58978140  0.60457366  1  0  -0.044066  0  3.721095  0  0  -0.032061  0  3.961618  0  0  -0.034878  0  3.979743  0  0  -0.008731  -0.030428  0  3.949642  0
C  C45  1  0.02023208  0.41022136  0.89542136  1  0  -0.044308  0  3.721097  0  0  -0.032177  0  3.961532  0  0  -0.034997  0  3.979659  0  0  -0.008725  -0.030541  0  3.949555  0
C  C46  1  0.47976604  0.41021729  0.39541950  1  0  -0.044037  0  3.721171  0  0  -0.031967  0  3.961628  0  0  -0.034781  0  3.979753  0  0  -0.008683  -0.030334  0  3.949655  0
C  C47  1  0.97976448  0.58977827  0.10457680  1  0  -0.044023  0  3.721074  0  0  -0.032088  0  3.961727  0  0  -0.034905  0  3.97987  0  0  -0.008677  -0.030454  0  3.949749  0
C  C48  1  0.40174809  0.55032857  0.42214926  1  0  -0.116161  0  3.735765  0  0  -0.146979  0  3.985817  0  0  -0.14755  0  4.003464  0  0  -0.085139  -0.146534  0  3.974164  0
C  C49  1  0.90175106  0.44966772  0.07785311  1  0  -0.116079  0  3.736006  0  0  -0.146795  0  3.986117  0  0  -0.147415  0  4.003749  0  0  -0.085105  -0.14635  0  3.974466  0
C  C50  1  0.59825329  0.44966431  0.57784631  1  0  -0.116093  0  3.735636  0  0  -0.146883  0  3.985714  0  0  -0.147452  0  4.003354  0  0  -0.085094  -0.146439  0  3.974065  0
C  C51  1  0.09825273  0.55033957  0.92215347  1  0  -0.11605  0  3.735779  0  0  -0.146866  0  3.985812  0  0  -0.147438  0  4.003455  0  0  -0.085087  -0.146421  0  3.974157  0
N  N52  1  0.12987244  0.15489186  0.44927505  1  0  -0.479521  0  3.097639  0  0  -0.437984  0  3.355481  0  0  -0.454803  0  3.355855  0  0  -0.539822  -0.426242  0  3.355056  0
N  N53  1  0.62987100  0.84510610  0.05072855  1  0  -0.47947  0  3.09773  0  0  -0.437906  0  3.355523  0  0  -0.454727  0  3.355899  0  0  -0.539761  -0.426164  0  3.355092  0
N  N54  1  0.87012171  0.84510647  0.55072699  1  0  -0.479601  0  3.097728  0  0  -0.437979  0  3.355495  0  0  -0.454811  0  3.355872  0  0  -0.539781  -0.426237  0  3.355071  0
N  N55  1  0.37012797  0.15489558  0.94927560  1  0  -0.47938  0  3.097618  0  0  -0.437808  0  3.355436  0  0  -0.454628  0  3.355813  0  0  -0.539754  -0.426067  0  3.355005  0
N  N56  1  0.07771910  0.02598579  0.36935767  1  0  -0.488825  0  3.080098  0  0  -0.453879  0  3.344049  0  0  -0.469646  0  3.344688  0  0  -0.550674  -0.44281  0  3.343459  0
N  N57  1  0.57772111  0.97401322  0.13064545  1  0  -0.488814  0  3.080325  0  0  -0.453872  0  3.344261  0  0  -0.46964  0  3.344904  0  0  -0.550675  -0.442802  0  3.343667  0
N  N58  1  0.92227625  0.97401138  0.63064501  1  0  -0.488893  0  3.080241  0  0  -0.453952  0  3.344255  0  0  -0.469722  0  3.344899  0  0  -0.550696  -0.442884  0  3.343665  0
N  N59  1  0.42228268  0.02599069  0.86935983  1  0  -0.488934  0  3.080178  0  0  -0.45403  0  3.344178  0  0  -0.469797  0  3.344815  0  0  -0.550753  -0.442961  0  3.343587  0
O  O60  1  0.33509714  0.87267829  0.47238750  1  0  -0.647999  0  1.986695  0  0  -0.576993  0  2.206383  0  0  -0.604479  0  2.195727  0  0  -0.316743  -0.557686  0  2.213044  0
O  O61  1  0.83509455  0.12732477  0.02761365  1  0  -0.648047  0  1.98659  0  0  -0.577069  0  2.206308  0  0  -0.604557  0  2.195654  0  0  -0.31676  -0.557762  0  2.212968  0
O  O62  1  0.66491387  0.12732225  0.52761648  1  0  -0.648094  0  1.986381  0  0  -0.577108  0  2.206085  0  0  -0.604595  0  2.195424  0  0  -0.316789  -0.5578  0  2.212748  0
O  O63  1  0.16491165  0.87267184  0.97237434  1  0  -0.647884  0  1.986431  0  0  -0.576954  0  2.206196  0  0  -0.60444  0  2.195545  0  0  -0.316712  -0.557647  0  2.212853  0
O  O64  1  0.27102564  0.83438708  0.64200088  1  0  -0.606551  0  1.928567  0  0  -0.546227  0  2.159823  0  0  -0.573192  0  2.150073  0  0  -0.321482  -0.527401  0  2.165893  0
O  O65  1  0.77102056  0.16560803  0.85799863  1  0  -0.606606  0  1.928481  0  0  -0.546274  0  2.159754  0  0  -0.573237  0  2.15  0  0  -0.321509  -0.527449  0  2.165824  0
O  O66  1  0.72898778  0.16561252  0.35799809  1  0  -0.6065  0  1.928376  0  0  -0.546221  0  2.159685  0  0  -0.573186  0  2.149934  0  0  -0.321467  -0.527395  0  2.165755  0
O  O67  1  0.22897238  0.83440088  0.14199600  1  0  -0.606481  0  1.92857  0  0  -0.546105  0  2.159808  0  0  -0.57307  0  2.150059  0  0  -0.321416  -0.527279  0  2.165876  0
O  O68  1  0.63022135  0.81378698  0.70375062  1  0  -0.65421  0  2.005602  0  0  -0.576134  0  2.236451  0  0  -0.607109  0  2.228434  0  0  -0.333946  -0.554321  0  2.241192  0
O  O69  1  0.13024941  0.18624624  0.79623136  1  0  -0.654394  0  2.00564  0  0  -0.576237  0  2.236521  0  0  -0.607208  0  2.228495  0  0  -0.333895  -0.554424  0  2.241263  0
O  O70  1  0.36976919  0.18621395  0.29624368  1  0  -0.654275  0  2.005242  0  0  -0.576206  0  2.236145  0  0  -0.607178  0  2.228123  0  0  -0.334017  -0.554392  0  2.240885  0
O  O71  1  0.86975438  0.81376839  0.20376328  1  0  -0.654326  0  2.005631  0  0  -0.576259  0  2.236577  0  0  -0.607233  0  2.228552  0  0  -0.333957  -0.554446  0  2.241319  0
O  O72  1  0.52967503  0.64465298  0.80258949  1  0  -0.630291  0  1.84006  0  0  -0.585493  0  2.04671  0  0  -0.609312  0  2.037211  0  0  -0.345903  -0.568573  0  2.052599  0
O  O73  1  0.02964303  0.35537138  0.69740862  1  0  -0.63051  0  1.840112  0  0  -0.585728  0  2.046852  0  0  -0.609545  0  2.037354  0  0  -0.346045  -0.56881  0  2.052744  0
O  O74  1  0.47033599  0.35534678  0.19740544  1  0  -0.630288  0  1.839998  0  0  -0.585488  0  2.046674  0  0  -0.609305  0  2.037183  0  0  -0.345909  -0.568568  0  2.052563  0
O  O75  1  0.97034750  0.64465201  0.30259541  1  0  -0.630438  0  1.840021  0  0  -0.585622  0  2.046719  0  0  -0.609441  0  2.037224  0  0  -0.34598  -0.568701  0  2.052609  0
O  O76  1  0.43569255  0.17721466  0.67218068  1  0  -0.820953  0  1.889816  0  0  -0.755532  0  2.087952  0  0  -0.777363  0  2.05873  0  0  -0.566481  -0.74014  0  2.108218  0
O  O77  1  0.93568401  0.82277751  0.82781538  1  0  -0.821128  0  1.889718  0  0  -0.755701  0  2.087844  0  0  -0.777527  0  2.058615  0  0  -0.56654  -0.740312  0  2.108118  0
O  O78  1  0.56430883  0.82278377  0.32781894  1  0  -0.820947  0  1.889765  0  0  -0.755528  0  2.087917  0  0  -0.777357  0  2.058694  0  0  -0.566495  -0.740136  0  2.108184  0
O  O79  1  0.06430893  0.17721521  0.17218423  1  0  -0.82106  0  1.889813  0  0  -0.755665  0  2.087925  0  0  -0.777494  0  2.058698  0  0  -0.566515  -0.740274  0  2.108196  0
