# generated using pymatgen
data_Zr6H16C52S15Cl4O47
_symmetry_space_group_name_H-M   'P 1'
_cell_length_a   16.39893762
_cell_length_b   16.49424164
_cell_length_c   16.48836176
_cell_angle_alpha   62.19503906
_cell_angle_beta   60.20716912
_cell_angle_gamma   60.03369209
_symmetry_Int_Tables_number   1
_chemical_formula_structural   Zr6H16C52S15Cl4O47
_chemical_formula_sum   'Zr6 H16 C52 S15 Cl4 O47'
_cell_volume   3208.58839212
_cell_formula_units_Z   1
loop_
 _symmetry_equiv_pos_site_id
 _symmetry_equiv_pos_as_xyz
  1  'x, y, z'
loop_
 _atom_site_type_symbol
 _atom_site_label
 _atom_site_symmetry_multiplicity
 _atom_site_fract_x
 _atom_site_fract_y
 _atom_site_fract_z
 _atom_site_occupancy
 _atom_site_pbe_bader_charge
 _atom_site_pbe_bader_spin_density
 _atom_site_pbe_cm5_charge
 _atom_site_pbe_ddec_charge
 _atom_site_pbe_ddec_spin_density
 _atom_site_pbe_ddec_sum_bond_order
 _atom_site_pbe_magmom
Zr  Zr0  1  0.88827421  0.90002268  0.60883038  1  2.637378  0  1.632307  2.376219  0  2.762713  0
Zr  Zr1  1  0.10423610  0.10664469  0.39685460  1  2.641832  0  1.633153  2.377658  0  2.751242  0
Zr  Zr2  1  0.10675071  0.89999894  0.60199050  1  2.62076  0  1.620806  2.362826  0  2.775795  0
Zr  Zr3  1  0.88597742  0.10952463  0.40154486  1  2.636447  0  1.629419  2.37518  0  2.755263  0
Zr  Zr4  1  0.10241791  0.89326574  0.39347563  1  2.639319  0  1.626348  2.37929  0  2.708885  0
Zr  Zr5  1  0.88839260  0.11165058  0.61420206  1  2.642602  0  1.627783  2.383037  0  2.705769  0
H  H6  1  0.08309715  0.75423924  0.57838979  1  0.609057  0  0.33044  0.421254  0  0.859926  0
H  H7  1  0.07899651  0.07850364  0.25459207  1  0.616077  0  0.331706  0.422291  0  0.858882  0
H  H8  1  0.08477752  0.08845221  0.58519612  1  0.605171  0  0.329487  0.423403  0  0.857249  0
H  H9  1  0.74079667  0.09071591  0.59255884  1  0.598644  0  0.333693  0.427431  0  0.84866  0
H  H10  1  0.10180248  0.62489900  0.35903993  1  0.132106  0  0.125877  0.153704  0  0.96426  0
H  H11  1  0.59752274  0.13148446  0.90662475  1  0.119728  0  0.125513  0.152784  0  0.962914  0
H  H12  1  0.83146216  0.09912332  0.14734754  1  0.145295  0  0.122602  0.149841  0  0.970691  0
H  H13  1  0.62618444  0.39892181  0.36757216  1  0.142024  0  0.122596  0.149509  0  0.970056  0
H  H14  1  0.94098849  0.61065209  0.77418729  1  0.132942  0  0.108522  0.127515  0  1.008589  0
H  H15  1  0.14418972  0.33169658  0.16080072  1  0.141845  0  0.117595  0.14356  0  0.99394  0
H  H16  1  0.62295596  0.86156742  0.60810436  1  0.155984  0  0.127189  0.153922  0  0.963041  0
H  H17  1  0.91221871  0.29209896  0.78787014  1  0.627417  0  0.343412  0.393091  0  0.858429  0
H  H18  1  0.31312475  0.86039896  0.02056585  1  0.654556  0  0.33814  0.408492  0  0.860198  0
H  H19  1  0.19166943  0.91918012  0.73089903  1  0.656806  0  0.315523  0.378227  0  0.943549  0
H  H20  1  0.20446418  0.67461960  0.72660024  1  0.645122  0  0.314465  0.377665  0  0.938209  0
H  H21  1  0.28333050  0.28422726  0.40543490  1  0.632945  0  0.345716  0.392427  0  0.857441  0
C  C22  1  0.99048832  0.73590950  0.49717141  1  1.576876  0  0.227267  0.644718  0  4.150369  0
C  C23  1  0.27121684  0.98948755  0.23201001  1  1.583173  0  0.228343  0.642894  0  4.144739  0
C  C24  1  0.98939588  0.27677849  0.50682290  1  1.609575  0  0.229111  0.643256  0  4.150562  0
C  C25  1  0.72680863  0.00621146  0.77910279  1  1.563641  0  0.228623  0.647701  0  4.139743  0
C  C26  1  0.00236029  0.73546411  0.76464100  1  1.566  0  0.238593  0.653055  0  4.073178  0
C  C27  1  0.72641950  0.99936651  0.50307132  1  1.577314  0  0.227522  0.645854  0  4.152944  0
C  C28  1  0.00279929  0.26238928  0.23428745  1  1.570754  0  0.235852  0.650167  0  4.079456  0
C  C29  1  0.27728250  0.00030765  0.49004391  1  1.592679  0  0.229172  0.6445  0  4.149794  0
C  C30  1  0.27363436  0.73421614  0.49471954  1  1.558773  0  0.226226  0.645259  0  4.144159  0
C  C31  1  0.00256268  0.99906522  0.77721676  1  1.571963  0  0.229798  0.643689  0  4.130027  0
C  C32  1  0.72751618  0.27913904  0.50540255  1  1.559472  0  0.230454  0.651545  0  4.136147  0
C  C33  1  0.98011971  0.99722525  0.24301122  1  1.593369  0  0.228432  0.644511  0  4.153138  0
C  C34  1  0.92410618  0.41934842  0.57665191  1  -0.100257  0  -0.022454  -0.146303  0  3.972504  0
C  C35  1  0.04538757  0.60050119  0.42624266  1  0.094524  0  -0.086994  -0.133745  0  3.963505  0
C  C36  1  0.98392310  0.36913082  0.50629698  1  -0.123957  0  -0.011865  -0.118576  0  3.9138  0
C  C37  1  0.98675389  0.64860540  0.49731854  1  -0.210719  0  -0.022792  -0.125083  0  3.971852  0
C  C38  1  0.02127802  0.51772622  0.45499010  1  -0.187141  0  -0.02042  -0.011233  0  4.06999  0
C  C39  1  0.94539508  0.50437316  0.54760819  1  -0.138092  0  -0.018601  -0.032863  0  4.0643  0
C  C40  1  0.41846622  0.92448045  0.08490735  1  -0.006662  0  -0.023963  -0.146789  0  3.969475  0
C  C41  1  0.58099612  0.06800951  0.92359524  1  0.049755  0  -0.086468  -0.131364  0  3.958425  0
C  C42  1  0.36114754  0.98822800  0.14274328  1  -0.194712  0  -0.012321  -0.12535  0  3.909584  0
C  C43  1  0.63782146  0.00347192  0.86788753  1  -0.181049  0  -0.024412  -0.131773  0  3.98045  0
C  C44  1  0.50082943  0.03909468  0.00263895  1  -0.147587  0  -0.018368  -0.012284  0  4.061435  0
C  C45  1  0.49860006  0.95337659  0.00489366  1  -0.178331  0  -0.017557  -0.032088  0  4.069919  0
C  C46  1  0.07265617  0.94480008  0.91307654  1  -0.106476  0  -0.024145  -0.146856  0  3.992747  0
C  C47  1  0.90370983  0.04870145  0.11490824  1  0.034703  0  -0.087584  -0.138668  0  3.958731  0
C  C48  1  0.99989235  0.99634858  0.86896642  1  -0.10596  0  -0.018953  -0.136664  0  3.928701  0
C  C49  1  0.97828385  0.99501591  0.15594286  1  -0.236321  0  -0.018295  -0.117498  0  3.973547  0
C  C50  1  0.93673312  0.02838078  0.02692405  1  -0.133256  0  -0.017925  -0.004875  0  4.052861  0
C  C51  1  0.03619887  0.96185090  0.00327145  1  -0.139136  0  -0.019833  -0.037028  0  4.095604  0
C  C52  1  0.40722922  0.59358842  0.57009580  1  -0.082446  0  -0.021111  -0.137506  0  3.952407  0
C  C53  1  0.59699397  0.42117384  0.43217594  1  0.050007  0  -0.089868  -0.1344  0  3.969227  0
C  C54  1  0.36359782  0.64614493  0.49753950  1  -0.118584  0  -0.017935  -0.138392  0  3.94178  0
C  C55  1  0.63996163  0.36968264  0.50420775  1  -0.191142  0  -0.024158  -0.135691  0  3.978926  0
C  C56  1  0.51249305  0.50314047  0.45611554  1  -0.200602  0  -0.019698  -0.013986  0  4.07426  0
C  C57  1  0.49279424  0.51156143  0.54631676  1  -0.149511  0  -0.015265  -0.032099  0  4.061596  0
C  C58  1  0.04892429  0.59872397  0.91119714  1  0.032822  0  0.024819  0.095956  0  3.990245  0
C  C59  1  0.96936779  0.58172599  0.83316023  1  0.037727  0  -0.090917  -0.149331  0  3.972495  0
C  C60  1  0.96263743  0.49396718  0.90183954  1  0.076506  0  0.015384  0.115483  0  3.998579  0
C  C61  1  0.99755264  0.45393399  0.98198337  1  0.037973  0  -0.001211  -0.014092  0  3.890817  0
C  C62  1  0.97720589  0.37477944  0.06849561  1  0.087367  0  0.025489  0.097054  0  3.960478  0
C  C63  1  0.09940484  0.37017754  0.11390993  1  0.02108  0  -0.090968  -0.15511  0  3.992378  0
C  C64  1  0.11654595  0.44893241  0.03560894  1  0.042595  0  0.012355  0.103296  0  4.060815  0
C  C65  1  0.05571351  0.50186408  0.97537772  1  0.110076  0  -0.000638  -0.007499  0  3.909075  0
C  C66  1  0.00808205  0.63756481  0.83898560  1  0.039165  0  -0.0215  -0.085955  0  3.972061  0
C  C67  1  0.02333758  0.33756788  0.13683385  1  0.035707  0  -0.020819  -0.087756  0  3.944069  0
C  C68  1  0.41882318  0.06683670  0.42554915  1  -0.137078  0  -0.026915  -0.155025  0  3.993134  0
C  C69  1  0.59836757  0.92553259  0.55128262  1  0.004678  0  -0.08315  -0.125734  0  3.956451  0
C  C70  1  0.37078187  0.99799049  0.48402858  1  -0.120559  0  -0.013356  -0.132454  0  3.929413  0
C  C71  1  0.64298170  0.99578184  0.49576333  1  -0.176449  0  -0.023026  -0.124983  0  3.987625  0
C  C72  1  0.51747346  0.95103207  0.52420377  1  -0.130511  0  -0.016395  -0.014944  0  4.062961  0
C  C73  1  0.50273407  0.04026326  0.44890071  1  -0.128841  0  -0.01907  -0.032921  0  4.08339  0
S  S74  1  0.06506963  0.42600658  0.40519743  1  0.303068  0  0.120939  0.180682  0  2.782723  0
S  S75  1  0.90246226  0.59487357  0.59859605  1  0.340879  0  0.110064  0.175514  0  2.841493  0
S  S76  1  0.40511585  0.08248356  0.09890886  1  0.349654  0  0.13432  0.214558  0  2.799524  0
S  S77  1  0.59524387  0.90813730  0.90998423  1  0.330733  0  0.104591  0.174806  0  2.834496  0
S  S78  1  0.88843080  0.06776867  0.93752721  1  0.311478  0  0.116961  0.178686  0  2.739331  0
S  S79  1  0.08753626  0.92123430  0.08979686  1  0.342072  0  0.115253  0.188073  0  2.907862  0
S  S80  1  0.42632471  0.59566266  0.40164675  1  0.346594  0  0.12874  0.206806  0  2.775699  0
S  S81  1  0.57899356  0.41930807  0.60096471  1  0.368485  0  0.124178  0.208983  0  2.828994  0
S  S82  1  0.42901622  0.90117171  0.56481570  1  0.392304  0  0.154792  0.256521  0  2.822442  0
S  S83  1  0.58921174  0.09212315  0.41042991  1  0.318264  0  0.097649  0.162157  0  2.83902  0
S  S84  1  0.83050985  0.38941204  0.69091336  1  3.084235  0  0.545253  1.178452  0  5.972721  0
S  S85  1  0.40574809  0.81631017  0.10158611  1  3.120246  0  0.543712  1.188666  0  5.990564  0
S  S86  1  0.19997969  0.86919157  0.87023592  1  3.150256  0  0.542845  1.192502  0  6.027301  0
S  S87  1  0.36747673  0.61504310  0.68296479  1  3.137657  0  0.542315  1.194845  0  5.989913  0
S  S88  1  0.38837221  0.17565498  0.33196331  1  3.068184  0  0.542598  1.186531  0  5.976764  0
Cl  Cl89  1  0.21997088  0.47281440  0.00802192  1  -0.157488  0  0.009844  -0.044384  0  1.540162  0
Cl  Cl90  1  0.07667609  0.67259889  0.93272081  1  -0.129133  0  0.026263  -0.012891  0  1.743607  0
Cl  Cl91  1  0.91532246  0.43697166  0.87825396  1  -0.184668  0  -0.0182  -0.089773  0  1.597357  0
Cl  Cl92  1  0.89099491  0.32929503  0.09188607  1  -0.154362  0  0.011262  -0.037636  0  1.653552  0
O  O93  1  0.92422417  0.77067216  0.56900825  1  -1.180806  0  -0.358629  -0.620749  0  2.28348  0
O  O94  1  0.23785184  0.05823840  0.26856856  1  -1.177111  0  -0.348046  -0.607584  0  2.281529  0
O  O95  1  0.05804859  0.24305409  0.43545754  1  -1.170747  0  -0.344546  -0.598951  0  2.26406  0
O  O96  1  0.76335709  0.93794765  0.74040890  1  -1.173262  0  -0.363263  -0.622293  0  2.298852  0
O  O97  1  0.07302253  0.76833236  0.73109131  1  -1.184609  0  -0.342442  -0.628826  0  2.323793  0
O  O98  1  0.75650334  0.07105135  0.44088685  1  -1.182188  0  -0.360112  -0.617959  0  2.305729  0
O  O99  1  0.92816266  0.23574958  0.27119178  1  -1.167992  0  -0.339467  -0.605576  0  2.323162  0
O  O100  1  0.24242237  0.93390277  0.55952398  1  -1.179944  0  -0.351435  -0.606826  0  2.285782  0
O  O101  1  0.23945798  0.76549411  0.42681807  1  -1.160032  0  -0.341715  -0.596631  0  2.240664  0
O  O102  1  0.93004962  0.06338566  0.74773632  1  -1.167994  0  -0.331646  -0.581408  0  2.272094  0
O  O103  1  0.76053415  0.24290382  0.57547178  1  -1.172833  0  -0.352978  -0.609798  0  2.267712  0
O  O104  1  0.05245506  0.92959806  0.27294564  1  -1.171612  0  -0.353502  -0.609871  0  2.283102  0
O  O105  1  0.07854934  0.93549679  0.73332658  1  -1.197792  0  -0.351878  -0.631615  0  2.307241  0
O  O106  1  0.76365527  0.24213920  0.43608123  1  -1.176826  0  -0.366511  -0.616765  0  2.266767  0
O  O107  1  0.91254589  0.06745099  0.27890242  1  -1.173032  0  -0.355749  -0.603911  0  2.281162  0
O  O108  1  0.23510292  0.77256468  0.56357986  1  -1.181761  0  -0.368399  -0.624495  0  2.374987  0
O  O109  1  0.92836138  0.77728546  0.73541766  1  -1.173147  0  -0.344242  -0.591183  0  2.286348  0
O  O110  1  0.23709235  0.06909933  0.42745267  1  -1.171477  0  -0.351933  -0.59131  0  2.326003  0
O  O111  1  0.06650578  0.22936096  0.27584016  1  -1.182462  0  -0.370497  -0.621471  0  2.327288  0
O  O112  1  0.76107025  0.93285098  0.57058522  1  -1.17989  0  -0.357827  -0.607563  0  2.261311  0
O  O113  1  0.76066120  0.07477691  0.74614447  1  -1.169725  0  -0.353816  -0.606653  0  2.233063  0
O  O114  1  0.05955538  0.76873324  0.42771413  1  -1.179565  0  -0.352009  -0.604058  0  2.244296  0
O  O115  1  0.23282371  0.92457779  0.26475558  1  -1.159377  0  -0.351155  -0.592695  0  2.288777  0
O  O116  1  0.92599079  0.23818113  0.57903448  1  -1.173524  0  -0.352411  -0.595259  0  2.318888  0
O  O117  1  0.81351162  0.06568095  0.56760681  1  -1.223574  0  -0.69293  -1.069584  0  2.355864  0
O  O118  1  0.05907216  0.06407210  0.56275957  1  -1.235849  0  -0.693025  -1.075533  0  2.35488  0
O  O119  1  0.05449956  0.05781985  0.32539688  1  -1.24341  0  -0.693329  -1.068226  0  2.370342  0
O  O120  1  0.05751907  0.82510771  0.55728545  1  -1.238837  0  -0.697425  -1.0713  0  2.378702  0
O  O121  1  0.13193887  0.95700054  0.45500695  1  -1.19892  0  -0.78904  -1.146394  0  2.129838  0
O  O122  1  0.94977851  0.95909071  0.46014828  1  -1.197452  0  -0.786831  -1.147508  0  2.117194  0
O  O123  1  0.95169412  0.13341959  0.46409803  1  -1.194628  0  -0.789346  -1.150474  0  2.132744  0
O  O124  1  0.95385404  0.96147907  0.63540114  1  -1.19969  0  -0.791167  -1.14901  0  2.119147  0
O  O125  1  0.89178585  0.28226701  0.74741655  1  -1.180081  0  -0.35732  -0.539063  0  2.206201  0
O  O126  1  0.75703093  0.37786116  0.67872697  1  -1.25987  0  -0.282124  -0.482004  0  2.176777  0
O  O127  1  0.80314526  0.45654984  0.74063641  1  -1.28847  0  -0.312962  -0.537086  0  2.174903  0
O  O128  1  0.30092021  0.85582021  0.08720255  1  -1.204587  0  -0.355679  -0.546787  0  2.233949  0
O  O129  1  0.39382855  0.75547327  0.20011983  1  -1.290099  0  -0.300287  -0.514831  0  2.200214  0
O  O130  1  0.48472702  0.77982727  0.02032321  1  -1.298335  0  -0.315173  -0.53604  0  2.146444  0
O  O131  1  0.23399339  0.92178589  0.75710588  1  -1.249076  0  -0.355391  -0.532615  0  2.269013  0
O  O132  1  0.20364004  0.77322085  0.89018969  1  -1.273764  0  -0.301207  -0.511147  0  2.186451  0
O  O133  1  0.25449809  0.88160867  0.90795955  1  -1.30484  0  -0.313836  -0.536807  0  2.140145  0
O  O134  1  0.25784234  0.60942462  0.73745093  1  -1.219518  0  -0.364644  -0.543916  0  2.260084  0
O  O135  1  0.36412560  0.70996436  0.66664184  1  -1.283973  0  -0.310817  -0.538408  0  2.200804  0
O  O136  1  0.42790800  0.52851956  0.73588741  1  -1.287707  0  -0.307202  -0.514074  0  2.147598  0
O  O137  1  0.27654555  0.23949668  0.38760867  1  -1.185408  0  -0.357314  -0.540804  0  2.2316  0
O  O138  1  0.38097160  0.15657499  0.26024893  1  -1.271  0  -0.292975  -0.504755  0  2.19808  0
O  O139  1  0.45433335  0.22491309  0.30480885  1  -1.288607  0  -0.319932  -0.544629  0  2.141619  0
