# generated using pymatgen
data_H10PbC14N2O9
_symmetry_space_group_name_H-M   'P 1'
_cell_length_a   6.68987937
_cell_length_b   6.73645950
_cell_length_c   17.38334073
_cell_angle_alpha   87.46250517
_cell_angle_beta   81.61289440
_cell_angle_gamma   84.88246908
_symmetry_Int_Tables_number   1
_chemical_formula_structural   H10PbC14N2O9
_chemical_formula_sum   'H20 Pb2 C28 N4 O18'
_cell_volume   771.54309842
_cell_formula_units_Z   2
loop_
 _symmetry_equiv_pos_site_id
 _symmetry_equiv_pos_as_xyz
  1  'x, y, z'
loop_
 _atom_site_type_symbol
 _atom_site_label
 _atom_site_symmetry_multiplicity
 _atom_site_fract_x
 _atom_site_fract_y
 _atom_site_fract_z
 _atom_site_occupancy
 _atom_site_hle17_bader_spin_density
 _atom_site_hle17_ddec_charge
 _atom_site_hle17_ddec_spin_density
 _atom_site_hle17_ddec_sum_bond_order
 _atom_site_hle17_magmom
 _atom_site_hse06_10hf_bader_charge
 _atom_site_hse06_10hf_bader_spin_density
 _atom_site_hse06_10hf_ddec_charge
 _atom_site_hse06_10hf_ddec_spin_density
 _atom_site_hse06_10hf_ddec_sum_bond_order
 _atom_site_hse06_10hf_magmom
 _atom_site_hse06_bader_spin_density
 _atom_site_hse06_ddec_charge
 _atom_site_hse06_ddec_spin_density
 _atom_site_hse06_ddec_sum_bond_order
 _atom_site_hse06_magmom
 _atom_site_pbe_bader_spin_density
 _atom_site_pbe_cm5_charge
 _atom_site_pbe_ddec_charge
 _atom_site_pbe_ddec_spin_density
 _atom_site_pbe_ddec_sum_bond_order
 _atom_site_pbe_magmom
H  H0  1  0.79261995  0.24103198  0.98790475  1  0  0.113726  0  0.987335  0  0.103348  0  0.119641  0  1.054836  0  0  0.123828  0  1.05149  0  0  0.10782  0.11659  0  1.057338  0
H  H1  1  0.20738223  0.75899581  0.01208306  1  0  0.113797  0  0.987388  0  0.103386  0  0.119673  0  1.054918  0  0  0.123859  0  1.051599  0  0  0.107812  0.116621  0  1.057422  0
H  H2  1  0.62609943  0.15706684  0.87392731  1  0  0.116105  0  0.94532  0  0.136815  0  0.120611  0  1.014468  0  0  0.124583  0  1.01107  0  0  0.115015  0.117629  0  1.017129  0
H  H3  1  0.37389728  0.84296975  0.12606528  1  0  0.116066  0  0.945468  0  0.136338  0  0.12068  0  1.014511  0  0  0.124623  0  1.011144  0  0  0.115101  0.117704  0  1.01717  0
H  H4  1  0.05080348  0.26143832  0.02050269  1  0  0.091231  0  0.968512  0  0.132432  0  0.095963  0  1.038838  0  0  0.099903  0  1.034172  0  0  0.117457  0.093062  0  1.042325  0
H  H5  1  0.94919011  0.73854411  0.97950627  1  0  0.091335  0  0.9684  0  0.132453  0  0.096049  0  1.038712  0  0  0.099991  0  1.034045  0  0  0.117478  0.093144  0  1.042198  0
H  H6  1  0.24043167  0.79609028  0.41954165  1  0  0.118169  0  0.981076  0  0.101233  0  0.122899  0  1.048885  0  0  0.127246  0  1.045771  0  0  0.109372  0.119725  0  1.05132  0
H  H7  1  0.75963065  0.20386548  0.58046983  1  0  0.118117  0  0.981069  0  0.101626  0  0.122861  0  1.048873  0  0  0.127194  0  1.045796  0  0  0.109305  0.119681  0  1.051329  0
H  H8  1  0.28709842  0.99312049  0.53178780  1  0  0.111593  0  0.930404  0  0.164647  0  0.1209  0  0.99071  0  0  0.124248  0  0.988134  0  0  0.11467  0.118403  0  0.992725  0
H  H9  1  0.71295929  0.00685318  0.46822254  1  0  0.111284  0  0.931027  0  0.16498  0  0.120632  0  0.991251  0  0  0.123975  0  0.988681  0  0  0.114652  0.118146  0  0.993249  0
H  H10  1  0.20472578  0.52523567  0.38759766  1  0  0.089943  0  0.9643  0  0.114501  0  0.094988  0  1.035114  0  0  0.098878  0  1.030318  0  0  0.120067  0.092164  0  1.038549  0
H  H11  1  0.79523509  0.47476024  0.61240536  1  0  0.089994  0  0.964651  0  0.114307  0  0.095061  0  1.035418  0  0  0.098945  0  1.03062  0  0  0.120106  0.092238  0  1.03885  0
H  H12  1  0.97883163  0.06993661  0.84116510  1  0  0.400688  0  0.895137  0  0.668121  0  0.366142  0  0.978304  0  0  0.379695  0  0.96399  0  0  0.301586  0.356614  0  0.988268  0
H  H13  1  0.02115589  0.93004902  0.15883550  1  0  0.400733  0  0.894992  0  0.668277  0  0.366167  0  0.978189  0  0  0.379731  0  0.963859  0  0  0.301587  0.356638  0  0.988153  0
H  H14  1  0.30721333  0.39517182  0.64280580  1  0  0.416552  0  0.871099  0  0.670121  0  0.387156  0  0.944357  0  0  0.39973  0  0.92762  0  0  0.305415  0.378331  0  0.953634  0
H  H15  1  0.69279064  0.60481699  0.35718989  1  0  0.416578  0  0.870927  0  0.670082  0  0.387167  0  0.944205  0  0  0.399745  0  0.927562  0  0  0.30542  0.378338  0  0.953483  0
H  H16  1  0.69798551  0.31582198  0.33856024  1  0  0.426512  0  0.819253  0  0.616216  0  0.403527  0  0.879777  0  0  0.412434  0  0.869852  0  0  0.320355  0.39714  0  0.886916  0
H  H17  1  0.30197997  0.68415765  0.66143871  1  0  0.426559  0  0.819035  0  0.615838  0  0.403569  0  0.879589  0  0  0.41248  0  0.869657  0  0  0.320332  0.397183  0  0.886729  0
H  H18  1  0.61730251  0.41650451  0.26105253  1  0  0.43726  0  0.86508  0  0.673977  0  0.39959  0  0.937401  0  0  0.412439  0  0.91909  0  0  0.291447  0.390554  0  0.950236  0
H  H19  1  0.38271644  0.58348424  0.73894698  1  0  0.437216  0  0.865167  0  0.673899  0  0.399622  0  0.937353  0  0  0.412464  0  0.919059  0  0  0.291437  0.390583  0  0.95019  0
Pb  Pb20  1  0.09760821  0.41930687  0.20628353  1  0  1.312384  0  1.389332  0  1.487522  0  1.106939  0  1.785559  0  0  1.167011  0  1.744283  0  0  0.643232  1.063894  0  1.814239  0
Pb  Pb21  1  0.90249122  0.58070076  0.79369143  1  0  1.312393  0  1.38903  0  1.487437  0  1.106993  0  1.785215  0  0  1.167053  0  1.743933  0  0  0.643257  1.063938  0  1.813894  0
C  C22  1  0.50812676  0.29622508  0.06217860  1  0  0.095483  0  3.751103  0  0.445885  0  0.097786  0  3.993364  0  0  0.099575  0  4.013411  0  0  0.114622  0.096547  0  3.979735  0
C  C23  1  0.49185605  0.70382913  0.93782197  1  0  0.095207  0  3.751292  0  0.445283  0  0.097624  0  3.993535  0  0  0.099422  0  4.013572  0  0  0.11459  0.096382  0  3.979906  0
C  C24  1  0.62914542  0.24524180  0.99246692  1  0  -0.113494  0  3.718309  0  0.092285  0  -0.137612  0  3.974093  0  0  -0.143142  0  3.994466  0  0  -0.079146  -0.133959  0  3.960391  0
C  C25  1  0.37084892  0.75483479  0.00753450  1  0  -0.113586  0  3.718483  0  0.092131  0  -0.137657  0  3.974182  0  0  -0.143202  0  3.994549  0  0  -0.079125  -0.134004  0  3.960491  0
C  C26  1  0.53803246  0.19924225  0.92944179  1  0  -0.006432  0  3.670245  0  -0.053046  0  -0.037666  0  3.925913  0  0  -0.033708  0  3.943077  0  0  -0.058258  -0.039895  0  3.914213  0
C  C27  1  0.46197476  0.80077467  0.07056201  1  0  -0.006339  0  3.670435  0  -0.051874  0  -0.037653  0  3.926091  0  0  -0.033676  0  3.943257  0  0  -0.058446  -0.039887  0  3.914393  0
C  C28  1  0.32711118  0.20281656  0.93782534  1  0  -0.10785  0  3.731912  0  0.028137  0  -0.080895  0  3.963517  0  0  -0.091728  0  3.985964  0  0  -0.007565  -0.07413  0  3.948716  0
C  C29  1  0.67289307  0.79720203  0.06217169  1  0  -0.107993  0  3.732037  0  0.028166  0  -0.081158  0  3.963769  0  0  -0.091962  0  3.986174  0  0  -0.007584  -0.074383  0  3.948953  0
C  C30  1  0.21569342  0.25589391  0.00973982  1  0  0.143931  0  3.639277  0  0.484222  0  0.102578  0  3.892778  0  0  0.11119  0  3.907698  0  0  0.062268  0.096961  0  3.882702  0
C  C31  1  0.78428908  0.74413210  0.99025594  1  0  0.143809  0  3.639376  0  0.484089  0  0.102559  0  3.892835  0  0  0.111166  0  3.907739  0  0  0.062252  0.09694  0  3.882761  0
C  C32  1  0.60594442  0.34820994  0.13115278  1  0  0.629632  0  3.91143  0  1.598643  0  0.572282  0  4.215534  0  0  0.606583  0  4.2086  0  0  0.216609  0.549083  0  4.219287  0
C  C33  1  0.39403244  0.65180993  0.86884852  1  0  0.630009  0  3.911082  0  1.597581  0  0.572491  0  4.21542  0  0  0.606798  0  4.20848  0  0  0.216678  0.549291  0  4.219175  0
C  C34  1  0.23335233  0.14308891  0.87025645  1  0  0.643207  0  3.847067  0  1.595976  0  0.593059  0  4.149078  0  0  0.625184  0  4.141965  0  0  0.226322  0.571263  0  4.153529  0
C  C35  1  0.76665685  0.85690721  0.12974463  1  0  0.643235  0  3.847099  0  1.595656  0  0.593126  0  4.149106  0  0  0.625245  0  4.141993  0  0  0.226325  0.571331  0  4.153551  0
C  C36  1  0.19256230  0.05676150  0.34546392  1  0  0.114681  0  3.714132  0  0.542066  0  0.116988  0  3.951313  0  0  0.119794  0  3.969381  0  0  0.125017  0.115085  0  3.939077  0
C  C37  1  0.80742904  0.94319718  0.65454085  1  0  0.114242  0  3.714384  0  0.530797  0  0.116556  0  3.951551  0  0  0.119361  0  3.969624  0  0  0.124942  0.114653  0  3.939314  0
C  C38  1  0.23252999  0.95736385  0.41424792  1  0  -0.093656  0  3.68198  0  0.071001  0  -0.116836  0  3.933252  0  0  -0.122355  0  3.952578  0  0  -0.069073  -0.113384  0  3.920463  0
C  C39  1  0.76748545  0.04257849  0.58575753  1  0  -0.093471  0  3.682385  0  0.082573  0  -0.116708  0  3.933744  0  0  -0.122228  0  3.953068  0  0  -0.069103  -0.11326  0  3.920952  0
C  C40  1  0.25989512  0.06770260  0.47702773  1  0  0.005334  0  3.663873  0  -0.093238  0  -0.025388  0  3.917048  0  0  -0.020621  0  3.934262  0  0  -0.052826  -0.028148  0  3.905259  0
C  C41  1  0.74013472  0.93226363  0.52297841  1  0  0.005511  0  3.664335  0  -0.093446  0  -0.025171  0  3.917513  0  0  -0.020406  0  3.934725  0  0  -0.052757  -0.027932  0  3.905734  0
C  C42  1  0.25053371  0.27549055  0.46909729  1  0  -0.111837  0  3.733692  0  0.05689  0  -0.087751  0  3.972732  0  0  -0.099451  0  3.995247  0  0  -0.005848  -0.080359  0  3.957767  0
C  C43  1  0.74942649  0.72448006  0.53090377  1  0  -0.111392  0  3.733043  0  0.056789  0  -0.087396  0  3.97224  0  0  -0.099083  0  3.994739  0  0  -0.005876  -0.080018  0  3.957294  0
C  C44  1  0.21272384  0.36399477  0.39760948  1  0  0.141639  0  3.666256  0  0.51574  0  0.097484  0  3.922385  0  0  0.106681  0  3.937789  0  0  0.064449  0.091505  0  3.911917  0
C  C45  1  0.78726661  0.63597603  0.60238829  1  0  0.141474  0  3.666391  0  0.515307  0  0.097334  0  3.922541  0  0  0.106538  0  3.937929  0  0  0.064528  0.091363  0  3.912069  0
C  C46  1  0.15460204  0.94138761  0.27708493  1  0  0.645672  0  3.878434  0  1.593182  0  0.58754  0  4.180947  0  0  0.623305  0  4.169991  0  0  0.227996  0.563263  0  4.187603  0
C  C47  1  0.84541806  0.05860403  0.72291794  1  0  0.645675  0  3.878884  0  1.593261  0  0.587644  0  4.181256  0  0  0.62339  0  4.170306  0  0  0.227952  0.563368  0  4.187913  0
C  C48  1  0.27333383  0.40293471  0.53481254  1  0  0.6548  0  3.838072  0  1.550843  0  0.603246  0  4.14115  0  0  0.63665  0  4.133862  0  0  0.229586  0.580656  0  4.145489  0
C  C49  1  0.72664385  0.59707623  0.46518826  1  0  0.654688  0  3.837533  0  1.550516  0  0.603071  0  4.140748  0  0  0.636475  0  4.133461  0  0  0.2295  0.580483  0  4.145083  0
N  N50  1  0.30445467  0.30205486  0.07006176  1  0  -0.3468  0  3.201791  0  -1.265294  0  -0.279481  0  3.450803  0  0  -0.297801  0  3.472161  0  0  -0.293375  -0.266843  0  3.435996  0
N  N51  1  0.69553288  0.69798321  0.92993013  1  0  -0.34684  0  3.201942  0  -1.265013  0  -0.279607  0  3.450942  0  0  -0.29792  0  3.472288  0  0  -0.293416  -0.26697  0  3.436138  0
N  N52  1  0.18312939  0.25732261  0.33785898  1  0  -0.338947  0  3.211257  0  -1.318946  0  -0.268986  0  3.460459  0  0  -0.287658  0  3.480578  0  0  -0.289782  -0.256133  0  3.446401  0
N  N53  1  0.81685444  0.74263771  0.66213983  1  0  -0.33892  0  3.211337  0  -1.318953  0  -0.268924  0  3.460483  0  0  -0.2876  0  3.480605  0  0  -0.289855  -0.256066  0  3.446418  0
O  O54  1  0.48778746  0.39509316  0.19400605  1  0  -0.638479  0  2.039739  0  -1.202659  0  -0.565519  0  2.273291  0  0  -0.595967  0  2.264619  0  0  -0.289782  -0.544179  0  2.278513  0
O  O55  1  0.51217330  0.60488951  0.80599023  1  0  -0.638588  0  2.039362  0  -1.202392  0  -0.565665  0  2.272998  0  0  -0.596113  0  2.264336  0  0  -0.289864  -0.544339  0  2.278227  0
O  O56  1  0.79625273  0.34424337  0.12187124  1  0  -0.629127  0  1.978647  0  -1.165729  0  -0.570423  0  2.219625  0  0  -0.598865  0  2.214061  0  0  -0.300294  -0.550569  0  2.222783  0
O  O57  1  0.20371498  0.65582059  0.87815128  1  0  -0.629243  0  1.978742  0  -1.164976  0  -0.570521  0  2.219895  0  0  -0.598976  0  2.214342  0  0  -0.300311  -0.550638  0  2.223007  0
O  O58  1  0.03172882  0.13975771  0.88557103  1  0  -0.589452  0  2.127315  0  -1.223635  0  -0.534343  0  2.362158  0  0  -0.559274  0  2.349615  0  0  -0.330358  -0.516689  0  2.370179  0
O  O59  1  0.96828390  0.86023571  0.11442069  1  0  -0.589539  0  2.127227  0  -1.223528  0  -0.53442  0  2.362053  0  0  -0.559362  0  2.349525  0  0  -0.330435  -0.516761  0  2.370067  0
O  O60  1  0.33505514  0.09913174  0.80778230  1  0  -0.519073  0  1.871474  0  -1.154512  0  -0.481544  0  2.07063  0  0  -0.499603  0  2.06358  0  0  -0.290032  -0.469293  0  2.075294  0
O  O61  1  0.66495150  0.90091075  0.19221373  1  0  -0.519001  0  1.871515  0  -1.154343  0  -0.481466  0  2.070624  0  0  -0.499526  0  2.063582  0  0  -0.28994  -0.469225  0  2.075302  0
O  O62  1  0.11185975  0.04570273  0.21638791  1  0  -0.643009  0  2.073594  0  -1.215318  0  -0.565444  0  2.313331  0  0  -0.595968  0  2.302222  0  0  -0.287388  -0.544111  0  2.320239  0
O  O63  1  0.88815092  0.95429665  0.78360384  1  0  -0.642719  0  2.074049  0  -1.215367  0  -0.565236  0  2.313757  0  0  -0.595712  0  2.302626  0  0  -0.287264  -0.543906  0  2.320665  0
O  O64  1  0.16430812  0.75522988  0.28325719  1  0  -0.611586  0  1.956494  0  -1.148817  0  -0.555179  0  2.192196  0  0  -0.582137  0  2.183185  0  0  -0.292184  -0.53643  0  2.197761  0
O  O65  1  0.83570353  0.24475584  0.71674332  1  0  -0.611602  0  1.956483  0  -1.148858  0  -0.555241  0  2.192157  0  0  -0.582197  0  2.183153  0  0  -0.292166  -0.53649  0  2.197722  0
O  O66  1  0.26203999  0.58715823  0.52928769  1  0  -0.576002  0  1.926073  0  -1.143017  0  -0.536088  0  2.148973  0  0  -0.558516  0  2.143652  0  0  -0.295904  -0.520594  0  2.152306  0
O  O67  1  0.73796042  0.41281688  0.47071756  1  0  -0.576061  0  1.925299  0  -1.142633  0  -0.536088  0  2.148211  0  0  -0.558486  0  2.142834  0  0  -0.295862  -0.52059  0  2.151543  0
O  O68  1  0.30279822  0.29750786  0.59924610  1  0  -0.544849  0  2.064695  0  -1.18937  0  -0.493812  0  2.276571  0  0  -0.516646  0  2.260616  0  0  -0.327435  -0.477836  0  2.285248  0
O  O69  1  0.69719359  0.70249718  0.40075404  1  0  -0.544814  0  2.064504  0  -1.189302  0  -0.493722  0  2.276399  0  0  -0.516561  0  2.260522  0  0  -0.327367  -0.477748  0  2.285074  0
O  O70  1  0.71300705  0.42794999  0.30135664  1  0  -0.837862  0  1.890828  0  -1.270355  0  -0.772285  0  2.075195  0  0  -0.795469  0  2.046369  0  0  -0.544014  -0.75585  0  2.094731  0
O  O71  1  0.28698009  0.57203850  0.69864798  1  0  -0.837898  0  1.890745  0  -1.269955  0  -0.772313  0  2.075049  0  0  -0.795491  0  2.046194  0  0  -0.543926  -0.755874  0  2.094591  0
