# generated using pymatgen
data_AgP2H20C26NO3
_symmetry_space_group_name_H-M   'P 1'
_cell_length_a   10.50134157
_cell_length_b   11.69839594
_cell_length_c   12.17031167
_cell_angle_alpha   110.70652875
_cell_angle_beta   98.50318235
_cell_angle_gamma   97.31066330
_symmetry_Int_Tables_number   1
_chemical_formula_structural   AgP2H20C26NO3
_chemical_formula_sum   'Ag2 P4 H40 C52 N2 O6'
_cell_volume   1356.86230754
_cell_formula_units_Z   2
loop_
 _symmetry_equiv_pos_site_id
 _symmetry_equiv_pos_as_xyz
  1  'x, y, z'
loop_
 _atom_site_type_symbol
 _atom_site_label
 _atom_site_symmetry_multiplicity
 _atom_site_fract_x
 _atom_site_fract_y
 _atom_site_fract_z
 _atom_site_occupancy
 _atom_site_hle17_bader_spin_density
 _atom_site_hle17_ddec_charge
 _atom_site_hle17_ddec_spin_density
 _atom_site_hle17_ddec_sum_bond_order
 _atom_site_hle17_magmom
 _atom_site_hse06_10hf_bader_spin_density
 _atom_site_hse06_10hf_ddec_charge
 _atom_site_hse06_10hf_ddec_spin_density
 _atom_site_hse06_10hf_ddec_sum_bond_order
 _atom_site_hse06_10hf_magmom
 _atom_site_hse06_bader_spin_density
 _atom_site_hse06_ddec_charge
 _atom_site_hse06_ddec_spin_density
 _atom_site_hse06_ddec_sum_bond_order
 _atom_site_hse06_magmom
 _atom_site_pbe_bader_spin_density
 _atom_site_pbe_cm5_charge
 _atom_site_pbe_ddec_charge
 _atom_site_pbe_ddec_spin_density
 _atom_site_pbe_ddec_sum_bond_order
 _atom_site_pbe_magmom
Ag  Ag0  1  0.82832764  0.51760135  0.54714318  1  0  0.279383  0  1.867102  0  0  0.1659  0  2.359758  0  0  0.176885  0  2.317623  0  0  0.441064  0.159338  0  2.387546  0
Ag  Ag1  1  0.17167344  0.48239946  0.45285815  1  0  0.279411  0  1.867076  0  0  0.165935  0  2.359745  0  0  0.176918  0  2.31761  0  0  0.441076  0.159374  0  2.387534  0
P  P2  1  0.65853347  0.33599669  0.50050923  1  0  0.380294  0  3.845045  0  0  0.333377  0  4.306395  0  0  0.348196  0  4.296842  0  0  0.011136  0.323133  0  4.312546  0
P  P3  1  0.34146665  0.66400412  0.49948951  1  0  0.380208  0  3.845356  0  0  0.333263  0  4.306824  0  0  0.348083  0  4.29727  0  0  0.011055  0.323018  0  4.312969  0
P  P4  1  0.23048630  0.30835305  0.30424758  1  0  0.382637  0  3.829742  0  0  0.332593  0  4.292398  0  0  0.347887  0  4.282763  0  0  0.011521  0.321758  0  4.298897  0
P  P5  1  0.76951093  0.69164775  0.69575160  1  0  0.382644  0  3.830096  0  0  0.332579  0  4.292761  0  0  0.347872  0  4.283127  0  0  0.011475  0.321747  0  4.299256  0
H  H6  1  0.29156082  0.15016829  0.43829974  1  0  0.093893  0  0.956025  0  0  0.106421  0  1.016697  0  0  0.108399  0  1.016768  0  0  0.100703  0.10501  0  1.016517  0
H  H7  1  0.70844008  0.84983159  0.56170207  1  0  0.093873  0  0.956017  0  0  0.106393  0  1.016706  0  0  0.10837  0  1.016776  0  0  0.100693  0.104981  0  1.016525  0
H  H8  1  0.21530286  0.92711494  0.39579453  1  0  0.080947  0  0.997531  0  0  0.089643  0  1.063908  0  0  0.090873  0  1.065984  0  0  0.094434  0.088518  0  1.062942  0
H  H9  1  0.78469997  0.07288495  0.60420671  1  0  0.080941  0  0.997508  0  0  0.089641  0  1.063881  0  0  0.090859  0  1.065979  0  0  0.094426  0.088523  0  1.062907  0
H  H10  1  0.04632627  0.79529391  0.21210941  1  0  0.091128  0  0.975916  0  0  0.100224  0  1.041693  0  0  0.102805  0  1.040561  0  0  0.099084  0.098351  0  1.042587  0
H  H11  1  0.95367715  0.20470412  0.78789128  1  0  0.091218  0  0.975852  0  0  0.10027  0  1.041668  0  0  0.102851  0  1.040533  0  0  0.099075  0.098396  0  1.042563  0
H  H12  1  0.95399082  0.88913764  0.07161220  1  0  0.08054  0  0.992262  0  0  0.09018  0  1.056737  0  0  0.091696  0  1.058054  0  0  0.094304  0.089075  0  1.055941  0
H  H13  1  0.04600988  0.11086130  0.92839091  1  0  0.080601  0  0.992208  0  0  0.090217  0  1.056714  0  0  0.091736  0  1.058036  0  0  0.094303  0.089112  0  1.055918  0
H  H14  1  0.03467775  0.11147444  0.11021454  1  0  0.087068  0  0.971121  0  0  0.09918  0  1.030797  0  0  0.101602  0  1.030357  0  0  0.098346  0.097434  0  1.031175  0
H  H15  1  0.96531813  0.88852447  0.88978958  1  0  0.087059  0  0.971059  0  0  0.099157  0  1.030753  0  0  0.10158  0  1.030314  0  0  0.098337  0.097412  0  1.03113  0
H  H16  1  0.37376840  0.20081572  0.11465960  1  0  0.096812  0  0.934084  0  0  0.1121  0  0.984548  0  0  0.114716  0  0.983801  0  0  0.105225  0.11022  0  0.985097  0
H  H17  1  0.62623058  0.79918415  0.88533949  1  0  0.096806  0  0.934074  0  0  0.112092  0  0.984539  0  0  0.114709  0  0.983792  0  0  0.105214  0.110212  0  0.985088  0
H  H18  1  0.36203917  0.20533838  0.91056346  1  0  0.087655  0  0.956064  0  0  0.099974  0  1.012331  0  0  0.102348  0  1.012415  0  0  0.101515  0.098207  0  1.012531  0
H  H19  1  0.63796095  0.79466243  0.08943610  1  0  0.087662  0  0.956064  0  0  0.09998  0  1.012332  0  0  0.102355  0  1.012416  0  0  0.101511  0.098215  0  1.012532  0
H  H20  1  0.20569427  0.31983739  0.83732874  1  0  0.088091  0  0.983875  0  0  0.090967  0  1.059826  0  0  0.094506  0  1.0569  0  0  0.098908  0.088306  0  1.062128  0
H  H21  1  0.79430471  0.68016248  0.16267035  1  0  0.088086  0  0.983887  0  0  0.090972  0  1.05983  0  0  0.094511  0  1.056905  0  0  0.098916  0.088312  0  1.062133  0
H  H22  1  0.06372293  0.42784098  0.96623247  1  0  0.089398  0  0.953721  0  0  0.102495  0  1.010018  0  0  0.105106  0  1.00911  0  0  0.101792  0.100629  0  1.010727  0
H  H23  1  0.93627488  0.57215795  0.03376780  1  0  0.089373  0  0.953721  0  0  0.102486  0  1.010004  0  0  0.105106  0  1.009087  0  0  0.101786  0.100621  0  1.010713  0
H  H24  1  0.07653181  0.42734666  0.17272045  1  0  0.094027  0  0.973869  0  0  0.098827  0  1.04634  0  0  0.102807  0  1.043036  0  0  0.095644  0.095921  0  1.048763  0
H  H25  1  0.92346793  0.57265228  0.82728007  1  0  0.094065  0  0.973816  0  0  0.098865  0  1.046284  0  0  0.102845  0  1.04298  0  0  0.095665  0.095958  0  1.048707  0
H  H26  1  0.43337684  0.41146529  0.61714960  1  0  0.091589  0  0.971454  0  0  0.100897  0  1.038198  0  0  0.103167  0  1.037652  0  0  0.095675  0.099202  0  1.038763  0
H  H27  1  0.56662195  0.58853364  0.38284834  1  0  0.091598  0  0.971468  0  0  0.100908  0  1.03821  0  0  0.103178  0  1.037662  0  0  0.095692  0.099213  0  1.038776  0
H  H28  1  0.39552747  0.43955385  0.81923371  1  0  0.088281  0  0.958434  0  0  0.099645  0  1.017485  0  0  0.102218  0  1.016591  0  0  0.099843  0.097769  0  1.018264  0
H  H29  1  0.60447285  0.56044789  0.18076537  1  0  0.088283  0  0.958407  0  0  0.099641  0  1.017467  0  0  0.102213  0  1.016574  0  0  0.099848  0.097765  0  1.018245  0
H  H30  1  0.55303225  0.38827400  0.96118621  1  0  0.083804  0  0.957468  0  0  0.09633  0  1.015818  0  0  0.098748  0  1.015199  0  0  0.099913  0.094651  0  1.016188  0
H  H31  1  0.44696728  0.61172867  0.03881309  1  0  0.083782  0  0.957524  0  0  0.096312  0  1.01587  0  0  0.098731  0  1.015248  0  0  0.099909  0.094633  0  1.016239  0
H  H32  1  0.74978788  0.30640305  0.89691250  1  0  0.087789  0  0.940885  0  0  0.102165  0  0.992111  0  0  0.104791  0  0.991604  0  0  0.102031  0.100361  0  0.99246  0
H  H33  1  0.25021032  0.69359775  0.10308681  1  0  0.087771  0  0.940892  0  0  0.102186  0  0.992083  0  0  0.104797  0  0.991597  0  0  0.102044  0.100381  0  0.992434  0
H  H34  1  0.79239933  0.28545750  0.69684071  1  0  0.095245  0  0.976884  0  0  0.104672  0  1.043607  0  0  0.107261  0  1.04239  0  0  0.099777  0.10278  0  1.044643  0
H  H35  1  0.20760079  0.71454330  0.30315967  1  0  0.095263  0  0.976899  0  0  0.104708  0  1.043601  0  0  0.107298  0  1.042385  0  0  0.099777  0.102817  0  1.044637  0
H  H36  1  0.49526893  0.08214827  0.41057534  1  0  0.091672  0  0.960366  0  0  0.102638  0  1.023783  0  0  0.104705  0  1.023744  0  0  0.099727  0.101496  0  1.023368  0
H  H37  1  0.50473312  0.91785255  0.58942529  1  0  0.091682  0  0.960278  0  0  0.102644  0  1.023702  0  0  0.104709  0  1.023665  0  0  0.099745  0.1015  0  1.023293  0
H  H38  1  0.55284966  0.87251209  0.33595956  1  0  0.088521  0  0.97588  0  0  0.097647  0  1.03946  0  0  0.099179  0  1.041311  0  0  0.097199  0.096363  0  1.038692  0
H  H39  1  0.44715028  0.12748778  0.66404048  1  0  0.088505  0  0.975894  0  0  0.09763  0  1.039477  0  0  0.099162  0  1.041328  0  0  0.097194  0.096347  0  1.038709  0
H  H40  1  0.78452373  0.85254036  0.32472627  1  0  0.095322  0  0.956492  0  0  0.105338  0  1.018787  0  0  0.108019  0  1.017383  0  0  0.102379  0.103245  0  1.020076  0
H  H41  1  0.21547620  0.14745951  0.67527295  1  0  0.095325  0  0.956487  0  0  0.105353  0  1.018768  0  0  0.108036  0  1.017365  0  0  0.102379  0.10326  0  1.020057  0
H  H42  1  0.95601585  0.04196325  0.37876447  1  0  0.089435  0  0.986613  0  0  0.10043  0  1.045852  0  0  0.101718  0  1.048073  0  0  0.097355  0.099666  0  1.044266  0
H  H43  1  0.04398486  0.95803570  0.62123535  1  0  0.089452  0  0.986641  0  0  0.100444  0  1.045879  0  0  0.101731  0  1.0481  0  0  0.097368  0.09968  0  1.044291  0
H  H44  1  0.89767390  0.25192108  0.44848998  1  0  0.088515  0  0.968749  0  0  0.094553  0  1.041462  0  0  0.097659  0  1.039476  0  0  0.094298  0.092171  0  1.042994  0
H  H45  1  0.10232700  0.74807880  0.55150937  1  0  0.088534  0  0.968744  0  0  0.094561  0  1.041469  0  0  0.097667  0  1.039482  0  0  0.094306  0.09218  0  1.042998  0
C  C46  1  0.50681665  0.32685373  0.41477955  1  0  -0.167919  0  3.737554  0  0  -0.14787  0  4.011341  0  0  -0.151327  0  4.034017  0  0  -0.04308  -0.145813  0  3.996232  0
C  C47  1  0.49316985  0.67314143  0.58521057  1  0  -0.167845  0  3.736781  0  0  -0.147789  0  4.010599  0  0  -0.151243  0  4.033274  0  0  -0.04299  -0.145736  0  3.995489  0
C  C48  1  0.39703928  0.32251034  0.36061975  1  0  -0.171339  0  3.729699  0  0  -0.152103  0  4.006732  0  0  -0.155723  0  4.02982  0  0  -0.042279  -0.14981  0  3.991445  0
C  C49  1  0.60297147  0.67748586  0.63938045  1  0  -0.171441  0  3.72897  0  0  -0.152217  0  4.006046  0  0  -0.155834  0  4.02913  0  0  -0.042303  -0.149925  0  3.990755  0
C  C50  1  0.17095346  0.14437890  0.27507896  1  0  -0.092295  0  3.763493  0  0  -0.053135  0  4.001498  0  0  -0.059202  0  4.027744  0  0  -0.025418  -0.049199  0  3.983645  0
C  C51  1  0.82904761  0.85562190  0.72492319  1  0  -0.092251  0  3.763473  0  0  -0.053029  0  4.001376  0  0  -0.059095  0  4.027622  0  0  -0.025359  -0.049102  0  3.983533  0
C  C52  1  0.21948654  0.09256866  0.35660668  1  0  -0.081069  0  3.750923  0  0  -0.100615  0  3.99044  0  0  -0.101869  0  4.01227  0  0  -0.087841  -0.099155  0  3.974859  0
C  C53  1  0.78051261  0.90743214  0.64339358  1  0  -0.081044  0  3.750826  0  0  -0.100606  0  3.990337  0  0  -0.101857  0  4.01216  0  0  -0.087851  -0.099143  0  3.974754  0
C  C54  1  0.17593480  0.96684666  0.33265474  1  0  -0.069031  0  3.76926  0  0  -0.078823  0  4.013053  0  0  -0.080703  0  4.034601  0  0  -0.09075  -0.077643  0  3.998517  0
C  C55  1  0.82406802  0.03315323  0.66734733  1  0  -0.068972  0  3.769211  0  0  -0.078768  0  4.013006  0  0  -0.080642  0  4.034552  0  0  -0.090725  -0.077596  0  3.998462  0
C  C56  1  0.08181041  0.89296028  0.22935287  1  0  -0.071163  0  3.757343  0  0  -0.086222  0  4.002636  0  0  -0.08748  0  4.022789  0  0  -0.090822  -0.085199  0  3.98896  0
C  C57  1  0.91819241  0.10703961  0.77065002  1  0  -0.071394  0  3.757327  0  0  -0.086416  0  4.002616  0  0  -0.087672  0  4.022764  0  0  -0.090873  -0.085395  0  3.988941  0
C  C58  1  0.03016182  0.94567449  0.15039580  1  0  -0.068699  0  3.777522  0  0  -0.078761  0  4.020895  0  0  -0.080981  0  4.043234  0  0  -0.09103  -0.077395  0  4.005966  0
C  C59  1  0.96983869  0.05432352  0.84960779  1  0  -0.068678  0  3.777382  0  0  -0.078714  0  4.020716  0  0  -0.080942  0  4.043059  0  0  -0.091021  -0.07735  0  4.005787  0
C  C60  1  0.07451404  0.07101668  0.17270817  1  0  -0.083587  0  3.760678  0  0  -0.101696  0  3.997204  0  0  -0.103226  0  4.019545  0  0  -0.090016  -0.100632  0  3.982127  0
C  C61  1  0.92548415  0.92898412  0.82729442  1  0  -0.083612  0  3.760697  0  0  -0.101735  0  3.997218  0  0  -0.103264  0  4.019561  0  0  -0.09002  -0.100669  0  3.98214  0
C  C62  1  0.22519725  0.31289602  0.15582641  1  0  -0.10399  0  3.778312  0  0  -0.061722  0  4.011346  0  0  -0.06937  0  4.039411  0  0  -0.024382  -0.05652  0  3.992429  0
C  C63  1  0.77480269  0.68710385  0.84417363  1  0  -0.103966  0  3.778285  0  0  -0.061697  0  4.011312  0  0  -0.069345  0  4.039378  0  0  -0.024376  -0.056493  0  3.992392  0
C  C64  1  0.30602169  0.25076921  0.08208360  1  0  -0.066968  0  3.743545  0  0  -0.087536  0  3.982336  0  0  -0.087919  0  4.004083  0  0  -0.082029  -0.087157  0  3.967507  0
C  C65  1  0.69397825  0.74923067  0.91791644  1  0  -0.066932  0  3.74357  0  0  -0.087497  0  3.982352  0  0  -0.08788  0  4.004098  0  0  -0.082014  -0.087117  0  3.967522  0
C  C66  1  0.29958595  0.25367361  0.96801591  1  0  -0.074297  0  3.771011  0  0  -0.084264  0  4.016733  0  0  -0.087537  0  4.038894  0  0  -0.087691  -0.082225  0  4.00194  0
C  C67  1  0.70041303  0.74632626  0.03198318  1  0  -0.074333  0  3.771039  0  0  -0.084302  0  4.01677  0  0  -0.087576  0  4.038928  0  0  -0.087687  -0.082263  0  4.001977  0
C  C68  1  0.21231132  0.31775869  0.92682977  1  0  -0.056742  0  3.743943  0  0  -0.072587  0  3.997484  0  0  -0.073315  0  4.018247  0  0  -0.082973  -0.071853  0  3.983484  0
C  C69  1  0.78768765  0.68224118  0.07317015  1  0  -0.056735  0  3.743932  0  0  -0.072592  0  3.997486  0  0  -0.073322  0  4.018255  0  0  -0.082984  -0.071862  0  3.983494  0
C  C70  1  0.13145032  0.37856049  0.99970211  1  0  -0.064767  0  3.752382  0  0  -0.076535  0  3.997638  0  0  -0.080153  0  4.020432  0  0  -0.087298  -0.074181  0  3.982082  0
C  C71  1  0.86854847  0.62143845  0.00029664  1  0  -0.064719  0  3.752345  0  0  -0.076504  0  3.997618  0  0  -0.080128  0  4.020408  0  0  -0.087291  -0.074151  0  3.982062  0
C  C72  1  0.13763536  0.37697596  0.11467588  1  0  -0.075662  0  3.744717  0  0  -0.093614  0  3.985184  0  0  -0.094512  0  4.007676  0  0  -0.083627  -0.092755  0  3.969912  0
C  C73  1  0.86236361  0.62302391  0.88532403  1  0  -0.075721  0  3.744693  0  0  -0.093675  0  3.985173  0  0  -0.094573  0  4.007667  0  0  -0.083648  -0.092815  0  3.9699  0
C  C74  1  0.61487133  0.34495240  0.64304923  1  0  -0.109215  0  3.770638  0  0  -0.070674  0  4.012155  0  0  -0.077206  0  4.038817  0  0  -0.029175  -0.065993  0  3.994173  0
C  C75  1  0.38512861  0.65504748  0.35694999  1  0  -0.109161  0  3.770615  0  0  -0.070656  0  4.012188  0  0  -0.077188  0  4.03885  0  0  -0.029137  -0.065962  0  3.994182  0
C  C76  1  0.50370264  0.38942763  0.67826784  1  0  -0.070709  0  3.73877  0  0  -0.088617  0  3.975894  0  0  -0.090387  0  3.999873  0  0  -0.088601  -0.087255  0  3.95949  0
C  C77  1  0.49629634  0.61057224  0.32173043  1  0  -0.07072  0  3.738836  0  0  -0.088613  0  3.975965  0  0  -0.090383  0  3.999942  0  0  -0.088657  -0.087256  0  3.959558  0
C  C78  1  0.48252797  0.40523708  0.79295569  1  0  -0.063324  0  3.754703  0  0  -0.074487  0  4.001556  0  0  -0.077136  0  4.023739  0  0  -0.088894  -0.072628  0  3.98636  0
C  C79  1  0.51747137  0.59476466  0.20704409  1  0  -0.063387  0  3.754688  0  0  -0.074544  0  4.001542  0  0  -0.077193  0  4.023726  0  0  -0.088932  -0.072685  0  3.986348  0
C  C80  1  0.57035711  0.37557558  0.87183717  1  0  -0.070387  0  3.774017  0  0  -0.086016  0  4.023425  0  0  -0.086917  0  4.044712  0  0  -0.089309  -0.085128  0  4.008646  0
C  C81  1  0.42964205  0.62442522  0.12816144  1  0  -0.070341  0  3.773959  0  0  -0.085967  0  4.023379  0  0  -0.086869  0  4.04466  0  0  -0.089276  -0.085079  0  4.008597  0
C  C82  1  0.68039233  0.32978565  0.83597442  1  0  -0.064609  0  3.775229  0  0  -0.074482  0  4.019135  0  0  -0.076959  0  4.040662  0  0  -0.088843  -0.072731  0  4.004413  0
C  C83  1  0.31960702  0.67021608  0.16402454  1  0  -0.06457  0  3.775132  0  0  -0.07448  0  4.019054  0  0  -0.076945  0  4.040588  0  0  -0.088851  -0.072729  0  4.004334  0
C  C84  1  0.70360552  0.31585687  0.72258456  1  0  -0.083035  0  3.751125  0  0  -0.104332  0  3.99862  0  0  -0.105603  0  4.021129  0  0  -0.089644  -0.103661  0  3.983896  0
C  C85  1  0.29639382  0.68414486  0.27741604  1  0  -0.083082  0  3.751087  0  0  -0.104397  0  3.998626  0  0  -0.105667  0  4.021128  0  0  -0.089649  -0.10373  0  3.9839  0
C  C86  1  0.69351547  0.18020479  0.43593422  1  0  -0.104305  0  3.784852  0  0  -0.06358  0  4.018943  0  0  -0.071176  0  4.046571  0  0  -0.026692  -0.058382  0  4.000113  0
C  C87  1  0.30648447  0.81979508  0.56406500  1  0  -0.104269  0  3.784851  0  0  -0.063528  0  4.018897  0  0  -0.071125  0  4.046526  0  0  -0.026665  -0.058338  0  4.000088  0
C  C88  1  0.59608444  0.07320480  0.40324559  1  0  -0.068372  0  3.737132  0  0  -0.087317  0  3.973549  0  0  -0.087946  0  3.995847  0  0  -0.084264  -0.086719  0  3.958086  0
C  C89  1  0.40391550  0.92679508  0.59675363  1  0  -0.068378  0  3.737019  0  0  -0.087313  0  3.973436  0  0  -0.087942  0  3.995737  0  0  -0.084276  -0.086716  0  3.957969  0
C  C90  1  0.62860723  0.95557041  0.36150773  1  0  -0.077188  0  3.755372  0  0  -0.085014  0  3.997003  0  0  -0.087924  0  4.018634  0  0  -0.08895  -0.083206  0  3.98284  0
C  C91  1  0.37139289  0.04443039  0.63849183  1  0  -0.077164  0  3.755338  0  0  -0.084993  0  3.996976  0  0  -0.087904  0  4.01861  0  0  -0.088941  -0.083185  0  3.982811  0
C  C92  1  0.75848589  0.94437795  0.35360488  1  0  -0.051351  0  3.728541  0  0  -0.064731  0  3.972168  0  0  -0.065345  0  3.992342  0  0  -0.080691  -0.064225  0  3.958829  0
C  C93  1  0.24151290  0.05562099  0.64639305  1  0  -0.051372  0  3.728627  0  0  -0.064761  0  3.97225  0  0  -0.06538  0  3.992429  0  0  -0.08071  -0.064255  0  3.95891  0
C  C94  1  0.85503241  0.05061225  0.38474542  1  0  -0.063633  0  3.747916  0  0  -0.073061  0  3.98653  0  0  -0.076046  0  4.009389  0  0  -0.08855  -0.071115  0  3.970974  0
C  C95  1  0.14496753  0.94938763  0.61525298  1  0  -0.063647  0  3.748139  0  0  -0.073069  0  3.986743  0  0  -0.076054  0  4.009603  0  0  -0.08855  -0.071124  0  3.971182  0
C  C96  1  0.82266561  0.16859980  0.42490386  1  0  -0.078721  0  3.750973  0  0  -0.096534  0  3.989574  0  0  -0.097501  0  4.011783  0  0  -0.086695  -0.095637  0  3.974448  0
C  C97  1  0.17733318  0.83139914  0.57509325  1  0  -0.078726  0  3.75107  0  0  -0.096531  0  3.989661  0  0  -0.097499  0  4.011871  0  0  -0.086691  -0.095634  0  3.97453  0
N  N98  1  0.91735232  0.59812602  0.34524854  1  0  0.673996  0  4.157686  0  0  0.709399  0  4.437839  0  0  0.737001  0  4.446486  0  0  0.097498  0.690972  0  4.43146  0
N  N99  1  0.08264743  0.40187292  0.65475198  1  0  0.674016  0  4.157551  0  0  0.709428  0  4.437686  0  0  0.737028  0  4.446335  0  0  0.097499  0.691003  0  4.431308  0
O  O100  1  0.95326587  0.53334974  0.40846840  1  0  -0.466305  0  1.9405  0  0  -0.423252  0  2.21883  0  0  -0.44216  0  2.203414  0  0  -0.242456  -0.410883  0  2.228878  0
O  O101  1  0.04673406  0.46665013  0.59153164  1  0  -0.466317  0  1.940412  0  0  -0.42326  0  2.218731  0  0  -0.442165  0  2.203314  0  0  -0.242469  -0.410893  0  2.228782  0
O  O102  1  0.98411469  0.60953361  0.27118017  1  0  -0.444386  0  1.759499  0  0  -0.433938  0  1.966951  0  0  -0.448812  0  1.962294  0  0  -0.176811  -0.423405  0  1.969796  0
O  O103  1  0.01588525  0.39046626  0.72881905  1  0  -0.444389  0  1.759559  0  0  -0.433951  0  1.967008  0  0  -0.448826  0  1.962356  0  0  -0.176795  -0.423419  0  1.969855  0
O  O104  1  0.81794502  0.64589964  0.36156405  1  0  -0.442984  0  1.737302  0  0  -0.43407  0  1.94469  0  0  -0.447847  0  1.9388  0  0  -0.180558  -0.424054  0  1.948235  0
O  O105  1  0.18205588  0.35410024  0.63843612  1  0  -0.442981  0  1.737175  0  0  -0.434073  0  1.944562  0  0  -0.44785  0  1.938675  0  0  -0.180555  -0.424057  0  1.94811  0
