# generated using pymatgen
data_Zn2P2H22C19(NO4)2
_symmetry_space_group_name_H-M   'P 1'
_cell_length_a   9.59166703
_cell_length_b   9.74457273
_cell_length_c   24.65900878
_cell_angle_alpha   89.99997228
_cell_angle_beta   90.00006279
_cell_angle_gamma   90.00001307
_symmetry_Int_Tables_number   1
_chemical_formula_structural   Zn2P2H22C19(NO4)2
_chemical_formula_sum   'Zn8 P8 H88 C76 N8 O32'
_cell_volume   2304.79610246
_cell_formula_units_Z   4
loop_
 _symmetry_equiv_pos_site_id
 _symmetry_equiv_pos_as_xyz
  1  'x, y, z'
loop_
 _atom_site_type_symbol
 _atom_site_label
 _atom_site_symmetry_multiplicity
 _atom_site_fract_x
 _atom_site_fract_y
 _atom_site_fract_z
 _atom_site_occupancy
 _atom_site_pbe_bader_charge
 _atom_site_pbe_bader_spin_density
 _atom_site_pbe_cm5_charge
 _atom_site_pbe_ddec_charge
 _atom_site_pbe_ddec_spin_density
 _atom_site_pbe_ddec_sum_bond_order
 _atom_site_pbe_magmom
Zn  Zn0  1  0.49809802  0.11210347  0.01671447  1  1.303413  0  0.718789  0.935499  0  2.317109  0
Zn  Zn1  1  0.00190248  0.88789700  0.51671493  1  1.303439  0  0.71881  0.935525  0  2.317148  0
Zn  Zn2  1  0.50190204  0.61210356  0.48328549  1  1.303437  0  0.718799  0.935505  0  2.317137  0
Zn  Zn3  1  0.99809800  0.38789646  0.98328504  1  1.303459  0  0.718802  0.935504  0  2.31712  0
Zn  Zn4  1  0.62983909  0.12124367  0.49742807  1  1.312198  0  0.721299  0.943419  0  2.361995  0
Zn  Zn5  1  0.87016099  0.87875633  0.99742827  1  1.312196  0  0.72129  0.943403  0  2.362026  0
Zn  Zn6  1  0.37016097  0.62124329  0.00257271  1  1.312198  0  0.721305  0.943434  0  2.361997  0
Zn  Zn7  1  0.12983950  0.37875618  0.50257210  1  1.312194  0  0.721296  0.943415  0  2.362014  0
P  P8  1  0.26842478  0.33843762  0.05435460  1  3.371725  0  0.276804  1.199564  0  5.516871  0
P  P9  1  0.23157478  0.66156179  0.55435479  1  3.371714  0  0.276801  1.199587  0  5.516863  0
P  P10  1  0.73157533  0.83843883  0.44564573  1  3.371715  0  0.276784  1.199508  0  5.516912  0
P  P11  1  0.76842460  0.16156124  0.94564522  1  3.371715  0  0.276798  1.199548  0  5.516923  0
P  P12  1  0.57987123  0.82938785  0.06540576  1  3.382994  0  0.281366  1.19859  0  5.501216  0
P  P13  1  0.92012867  0.17061268  0.56540571  1  3.383  0  0.281358  1.198503  0  5.501399  0
P  P14  1  0.42012887  0.32938724  0.43459417  1  3.382992  0  0.28136  1.198491  0  5.501366  0
P  P15  1  0.07987176  0.67061273  0.93459429  1  3.382991  0  0.28137  1.198517  0  5.501371  0
H  H16  1  0.24535703  0.16344325  0.94827741  1  0.185254  0  0.117451  0.10581  0  1.042298  0
H  H17  1  0.25464259  0.83655567  0.44827793  1  0.185262  0  0.117443  0.105826  0  1.042279  0
H  H18  1  0.75464340  0.66344495  0.55172260  1  0.185271  0  0.117433  0.105785  0  1.042292  0
H  H19  1  0.74535647  0.33655457  0.05172240  1  0.185253  0  0.117446  0.10583  0  1.042267  0
H  H20  1  0.15285890  0.07891624  0.86013598  1  0.124254  0  0.110536  0.126793  0  1.023507  0
H  H21  1  0.34714048  0.92108382  0.36013652  1  0.124269  0  0.110539  0.126845  0  1.023472  0
H  H22  1  0.84714047  0.57891580  0.63986364  1  0.124264  0  0.11055  0.126851  0  1.023468  0
H  H23  1  0.65285965  0.42108361  0.13986379  1  0.124269  0  0.110556  0.126863  0  1.023471  0
H  H24  1  0.49130380  0.78595806  0.85709734  1  0.10085  0  0.109305  0.123276  0  1.000391  0
H  H25  1  0.00869662  0.21404406  0.35709787  1  0.100836  0  0.109274  0.123202  0  1.000421  0
H  H26  1  0.50869666  0.28595576  0.64290224  1  0.100836  0  0.109274  0.123188  0  1.00043  0
H  H27  1  0.99130346  0.71404365  0.14290208  1  0.100838  0  0.109281  0.123238  0  1.000393  0
H  H28  1  0.57026622  0.88196735  0.94474280  1  0.128381  0  0.116791  0.083372  0  1.042053  0
H  H29  1  0.92973371  0.11803477  0.44474272  1  0.128379  0  0.116853  0.083465  0  1.042077  0
H  H30  1  0.42973426  0.38196515  0.55525717  1  0.128379  0  0.116836  0.083429  0  1.042054  0
H  H31  1  0.07026531  0.61803425  0.05525684  1  0.128378  0  0.116798  0.08338  0  1.042101  0
H  H32  1  0.15137949  0.88725855  0.79252126  1  0.065666  0  0.096248  0.104734  0  1.004098  0
H  H33  1  0.34862074  0.11274057  0.29252115  1  0.065671  0  0.096244  0.104722  0  1.004103  0
H  H34  1  0.84862099  0.38725933  0.70747951  1  0.065667  0  0.09625  0.104729  0  1.004107  0
H  H35  1  0.65137931  0.61274102  0.20747882  1  0.065672  0  0.096248  0.104735  0  1.004098  0
H  H36  1  0.28089816  0.75790964  0.79520146  1  0.006103  0  0.095167  0.099931  0  0.985883  0
H  H37  1  0.21910209  0.24209050  0.29520086  1  0.006087  0  0.095146  0.099884  0  0.985822  0
H  H38  1  0.71910230  0.25790937  0.70479934  1  0.00605  0  0.095163  0.099927  0  0.985879  0
H  H39  1  0.78089696  0.74208996  0.20479868  1  0.006086  0  0.095148  0.099882  0  0.985848  0
H  H40  1  0.45432678  0.92701612  0.75451898  1  0.022676  0  0.088667  0.082498  0  0.992452  0
H  H41  1  0.04567230  0.07298304  0.25451915  1  0.022669  0  0.088689  0.082556  0  0.992391  0
H  H42  1  0.54567267  0.42701679  0.74548057  1  0.022664  0  0.088662  0.082489  0  0.99246  0
H  H43  1  0.95432670  0.57298455  0.24548082  1  0.022673  0  0.088662  0.082502  0  0.992455  0
H  H44  1  0.31779149  0.04803350  0.74853421  1  0.044224  0  0.089324  0.083594  0  0.994636  0
H  H45  1  0.18220758  0.95196567  0.24853427  1  0.04425  0  0.08934  0.083649  0  0.994624  0
H  H46  1  0.68220787  0.54803288  0.75146542  1  0.044231  0  0.089333  0.083626  0  0.994597  0
H  H47  1  0.81779151  0.45196639  0.25146563  1  0.044228  0  0.089356  0.083647  0  0.994621  0
H  H48  1  0.31651122  0.76166461  0.69653164  1  0.040081  0  0.096411  0.102112  0  0.983109  0
H  H49  1  0.18348770  0.23833565  0.19653184  1  0.04007  0  0.096443  0.102172  0  0.983023  0
H  H50  1  0.68348715  0.26166524  0.80346835  1  0.040087  0  0.096439  0.10217  0  0.98305  0
H  H51  1  0.81651238  0.73833602  0.30346769  1  0.040069  0  0.096439  0.102164  0  0.983047  0
H  H52  1  0.18359272  0.88546274  0.68927056  1  0.033244  0  0.098275  0.107793  0  0.990662  0
H  H53  1  0.31640618  0.11453752  0.18927084  1  0.033222  0  0.098262  0.107782  0  0.990691  0
H  H54  1  0.81640567  0.38546339  0.81072940  1  0.033237  0  0.098279  0.107815  0  0.990661  0
H  H55  1  0.68359284  0.61453684  0.31072912  1  0.033255  0  0.098275  0.10781  0  0.990662  0
H  H56  1  0.19717827  0.04663176  0.61385967  1  0.126671  0  0.111225  0.126791  0  1.018378  0
H  H57  1  0.30282250  0.95336757  0.11386019  1  0.126662  0  0.111218  0.126797  0  1.018388  0
H  H58  1  0.80282109  0.54663203  0.88613996  1  0.126683  0  0.111218  0.126764  0  1.01839  0
H  H59  1  0.69717763  0.45336810  0.38614053  1  0.126668  0  0.111213  0.126776  0  1.018403  0
H  H60  1  0.33079728  0.13663577  0.53544818  1  0.160657  0  0.11863  0.103223  0  1.032764  0
H  H61  1  0.16920327  0.86336366  0.03544826  1  0.160656  0  0.118619  0.103211  0  1.032778  0
H  H62  1  0.66920419  0.63663592  0.96455183  1  0.16065  0  0.118624  0.103214  0  1.032775  0
H  H63  1  0.83079684  0.36336413  0.46455166  1  0.160655  0  0.118629  0.10322  0  1.032768  0
H  H64  1  0.68963496  0.93179019  0.58432444  1  0.110008  0  0.118106  0.087457  0  1.045563  0
H  H65  1  0.81036395  0.06820826  0.08432391  1  0.110015  0  0.118085  0.087422  0  1.045578  0
H  H66  1  0.31036449  0.43179060  0.91567633  1  0.110004  0  0.118116  0.087489  0  1.045523  0
H  H67  1  0.18963609  0.56820939  0.41567566  1  0.110012  0  0.118112  0.08745  0  1.045551  0
H  H68  1  0.57182030  0.83393155  0.66450567  1  0.10399  0  0.110103  0.122148  0  1.008594  0
H  H69  1  0.92818093  0.16606783  0.16450517  1  0.104013  0  0.11009  0.122128  0  1.008612  0
H  H70  1  0.42817913  0.33393209  0.83549471  1  0.103997  0  0.110087  0.122113  0  1.008645  0
H  H71  1  0.07182018  0.66606800  0.33549438  1  0.103997  0  0.1101  0.12215  0  1.008575  0
H  H72  1  0.19023301  0.31296904  0.10165657  1  -0.451534  0  0.083891  -0.121235  0  1.001581  0
H  H73  1  0.30976668  0.68702928  0.60165638  1  -0.451533  0  0.083899  -0.121242  0  1.0016  0
H  H74  1  0.80976605  0.81296930  0.39834336  1  -0.451524  0  0.083884  -0.121241  0  1.001587  0
H  H75  1  0.69023271  0.18702979  0.89834362  1  -0.451536  0  0.083893  -0.121246  0  1.001618  0
H  H76  1  0.61274775  0.77529823  0.11682389  1  -0.456503  0  0.088838  -0.109067  0  0.99069  0
H  H77  1  0.88725334  0.22470121  0.61682423  1  -0.456512  0  0.088835  -0.10906  0  0.990718  0
H  H78  1  0.38725234  0.27529869  0.38317604  1  -0.456504  0  0.088842  -0.109058  0  0.990708  0
H  H79  1  0.11274711  0.72470134  0.88317617  1  -0.456504  0  0.088839  -0.109055  0  0.990715  0
H  H80  1  0.23694048  0.72220086  0.25062076  1  0.053148  0  0.100535  0.126135  0  1.018148  0
H  H81  1  0.26306068  0.27779831  0.75062063  1  0.053146  0  0.100519  0.126111  0  1.018155  0
H  H82  1  0.76306064  0.22220054  0.24937959  1  0.053146  0  0.100521  0.126119  0  1.0181  0
H  H83  1  0.73694082  0.77779976  0.74937935  1  0.053161  0  0.100538  0.126134  0  1.018135  0
H  H84  1  0.50103332  0.40794797  0.31960862  1  0.053407  0  0.096748  0.112253  0  1.041405  0
H  H85  1  0.99896730  0.59205122  0.81960853  1  0.053411  0  0.096783  0.112311  0  1.041461  0
H  H86  1  0.49896680  0.90794945  0.18039170  1  0.053414  0  0.096767  0.112281  0  1.04146  0
H  H87  1  0.00103311  0.09205185  0.68039109  1  0.053404  0  0.096757  0.112272  0  1.041428  0
H  H88  1  0.52698487  0.30453559  0.22846588  1  0.075964  0  0.093712  0.090024  0  1.061429  0
H  H89  1  0.97301445  0.69546474  0.72846535  1  0.075928  0  0.09372  0.090037  0  1.061381  0
H  H90  1  0.47301418  0.80453593  0.27153446  1  0.076096  0  0.093713  0.09004  0  1.061417  0
H  H91  1  0.02698599  0.19546526  0.77153424  1  0.075962  0  0.093713  0.090039  0  1.061409  0
H  H92  1  0.41649824  0.40970802  0.14789732  1  0.065899  0  0.098535  0.117612  0  1.052256  0
H  H93  1  0.08350054  0.59029127  0.64789705  1  0.065883  0  0.098521  0.117604  0  1.05226  0
H  H94  1  0.58350084  0.90970931  0.35210300  1  0.065877  0  0.098531  0.117622  0  1.052237  0
H  H95  1  0.91649883  0.09029189  0.85210256  1  0.065888  0  0.098541  0.117623  0  1.052219  0
H  H96  1  0.27914149  0.58541608  0.11748972  1  0.645255  0  0.300182  0.358531  0  0.966321  0
H  H97  1  0.22085929  0.41458324  0.61748995  1  0.64526  0  0.300152  0.358465  0  0.966351  0
H  H98  1  0.72085856  0.08541765  0.38251065  1  0.64525  0  0.300161  0.358507  0  0.966328  0
H  H99  1  0.77914224  0.91458249  0.88251041  1  0.645252  0  0.300158  0.358521  0  0.966368  0
H  H100  1  0.39286660  0.57903906  0.36909353  1  0.65423  0  0.301004  0.36069  0  0.965041  0
H  H101  1  0.10713489  0.42096099  0.86909372  1  0.654272  0  0.301002  0.360666  0  0.965058  0
H  H102  1  0.60713449  0.07903886  0.13090684  1  0.654279  0  0.301023  0.360648  0  0.965092  0
H  H103  1  0.89286560  0.92096057  0.63090665  1  0.654279  0  0.301021  0.360646  0  0.965096  0
C  C104  1  0.29657645  0.08014254  0.92640996  1  0.359455  0  0.046147  0.102108  0  3.91209  0
C  C105  1  0.20342311  0.91985949  0.42640963  1  0.359139  0  0.046174  0.102105  0  3.912122  0
C  C106  1  0.70342292  0.58014010  0.57359087  1  0.358712  0  0.046183  0.102177  0  3.912137  0
C  C107  1  0.79657701  0.41985837  0.07359027  1  0.359134  0  0.046157  0.102108  0  3.912113  0
C  C108  1  0.24564675  0.03153705  0.87730660  1  -0.006852  0  -0.081019  -0.17558  0  3.902767  0
C  C109  1  0.25435372  0.96846504  0.37730669  1  -0.006485  0  -0.081065  -0.17572  0  3.902716  0
C  C110  1  0.75435365  0.53153455  0.62269343  1  -0.006074  0  -0.081067  -0.175719  0  3.90278  0
C  C111  1  0.74564746  0.46846488  0.12269361  1  -0.006475  0  -0.081069  -0.175743  0  3.902744  0
C  C112  1  0.31336915  0.92350127  0.85060797  1  0.020502  0  0.018713  0.173094  0  3.939844  0
C  C113  1  0.18662917  0.07650188  0.35060820  1  0.020474  0  0.018779  0.173159  0  3.939751  0
C  C114  1  0.68663030  0.42349901  0.64939239  1  0.02048  0  0.018726  0.173055  0  3.939821  0
C  C115  1  0.81336984  0.57650142  0.14939217  1  0.020479  0  0.018774  0.173168  0  3.939773  0
C  C116  1  0.43213685  0.86898374  0.87571282  1  -0.031618  0  -0.083353  -0.180084  0  3.930805  0
C  C117  1  0.06786466  0.13101835  0.37571340  1  -0.031663  0  -0.08332  -0.179917  0  3.930678  0
C  C118  1  0.56786467  0.36898148  0.62428633  1  -0.03164  0  -0.083261  -0.179793  0  3.930604  0
C  C119  1  0.93213644  0.63101795  0.12428616  1  -0.031636  0  -0.083291  -0.179947  0  3.930651  0
C  C120  1  0.47775256  0.92217332  0.92472575  1  0.437915  0  0.042941  0.097145  0  3.961456  0
C  C121  1  0.02224700  0.07782973  0.42472550  1  0.437883  0  0.042873  0.09694  0  3.961482  0
C  C122  1  0.52224793  0.42217009  0.57527421  1  0.437867  0  0.042839  0.096935  0  3.961496  0
C  C123  1  0.97775305  0.57782940  0.07527406  1  0.43786  0  0.042918  0.097067  0  3.961468  0
C  C124  1  0.26401581  0.86959539  0.79690143  1  0.000822  0  -0.158326  -0.209874  0  3.937436  0
C  C125  1  0.23598340  0.13040372  0.29690167  1  0.00084  0  -0.158332  -0.209801  0  3.93742  0
C  C126  1  0.73598363  0.36959513  0.70309854  1  0.000864  0  -0.15834  -0.209879  0  3.937464  0
C  C127  1  0.76401666  0.63040421  0.20309829  1  0.000825  0  -0.158333  -0.209855  0  3.937501  0
C  C128  1  0.34072713  0.93732031  0.74900819  1  -0.021159  0  -0.154183  -0.116574  0  3.899413  0
C  C129  1  0.15927298  0.06268091  0.24900841  1  -0.021173  0  -0.154288  -0.116851  0  3.89943  0
C  C130  1  0.65927232  0.43731997  0.75099136  1  -0.021166  0  -0.154184  -0.116586  0  3.899404  0
C  C131  1  0.84072706  0.56268033  0.25099115  1  -0.021167  0  -0.154226  -0.116644  0  3.899511  0
C  C132  1  0.29655850  0.87296964  0.69473756  1  0.021518  0  -0.156057  -0.204853  0  3.931543  0
C  C133  1  0.20344146  0.12702959  0.19473738  1  0.021567  0  -0.156034  -0.204841  0  3.931458  0
C  C134  1  0.70343990  0.37297028  0.80526241  1  0.021558  0  -0.156093  -0.204986  0  3.931547  0
C  C135  1  0.79655860  0.62702893  0.30526218  1  0.021545  0  -0.156089  -0.204948  0  3.931568  0
C  C136  1  0.37240761  0.93211235  0.64687555  1  -0.059303  0  0.019996  0.171406  0  3.936927  0
C  C137  1  0.12759222  0.06788694  0.14687575  1  -0.059291  0  0.020048  0.171505  0  3.936906  0
C  C138  1  0.62759184  0.43211290  0.85312441  1  -0.059289  0  0.020012  0.171506  0  3.936776  0
C  C139  1  0.87240887  0.56788830  0.35312381  1  -0.059278  0  0.020026  0.171466  0  3.936894  0
C  C140  1  0.30646584  0.01876703  0.60950713  1  -0.040389  0  -0.076492  -0.165321  0  3.901585  0
C  C141  1  0.19353388  0.98123230  0.10950678  1  -0.040471  0  -0.07648  -0.165342  0  3.901584  0
C  C142  1  0.69353248  0.51876728  0.89049291  1  -0.040402  0  -0.076492  -0.165322  0  3.901554  0
C  C143  1  0.80646626  0.48123183  0.39049352  1  -0.040355  0  -0.07647  -0.165296  0  3.901513  0
C  C144  1  0.37986074  0.06941167  0.56525556  1  0.447088  0  0.049665  0.105592  0  3.907792  0
C  C145  1  0.12013990  0.93058670  0.06525560  1  0.447148  0  0.049649  0.105571  0  3.907793  0
C  C146  1  0.62013863  0.56941184  0.93474487  1  0.447123  0  0.049668  0.105592  0  3.907832  0
C  C147  1  0.87986127  0.43058721  0.43474430  1  0.447063  0  0.04966  0.105587  0  3.907809  0
C  C148  1  0.58064349  0.95488508  0.59257292  1  0.456503  0  0.042212  0.092742  0  3.956832  0
C  C149  1  0.91935753  0.04511439  0.09257366  1  0.456299  0  0.042276  0.09281  0  3.956854  0
C  C150  1  0.41935700  0.45488450  0.90742663  1  0.45648  0  0.042208  0.09274  0  3.956913  0
C  C151  1  0.08064251  0.54511550  0.40742632  1  0.456496  0  0.042247  0.092842  0  3.956841  0
C  C152  1  0.51318917  0.90090525  0.63744130  1  0.008107  0  -0.08308  -0.183445  0  3.937852  0
C  C153  1  0.98680990  0.09909314  0.13744084  1  0.00808  0  -0.083127  -0.183488  0  3.938016  0
C  C154  1  0.48680819  0.40090679  0.86255907  1  0.008074  0  -0.083089  -0.183478  0  3.937984  0
C  C155  1  0.01319015  0.59909326  0.36255872  1  0.008069  0  -0.083151  -0.183579  0  3.938043  0
C  C156  1  0.31934942  0.57332521  0.19414245  1  0.49858  0  0.074236  0.341998  0  4.121693  0
C  C157  1  0.18065054  0.42667505  0.69414225  1  0.498576  0  0.074255  0.342017  0  4.121735  0
C  C158  1  0.68065063  0.07332481  0.30585753  1  0.49842  0  0.074264  0.341987  0  4.121655  0
C  C159  1  0.81934995  0.92667645  0.80585770  1  0.498405  0  0.074248  0.341969  0  4.121687  0
C  C160  1  0.30010466  0.63003264  0.24583024  1  -0.032927  0  -0.134397  -0.359635  0  3.970718  0
C  C161  1  0.19989439  0.36996756  0.74583007  1  -0.032914  0  -0.134387  -0.359612  0  3.970698  0
C  C162  1  0.69989539  0.13003230  0.25416891  1  -0.032926  0  -0.134368  -0.359584  0  3.970577  0
C  C163  1  0.80010608  0.86996799  0.75416909  1  -0.032921  0  -0.13436  -0.359579  0  3.970671  0
C  C164  1  0.36626527  0.57158983  0.29094156  1  0.421196  0  0.071402  0.325827  0  4.139556  0
C  C165  1  0.13373495  0.42841031  0.79094176  1  0.421195  0  0.071408  0.325846  0  4.139501  0
C  C166  1  0.63373581  0.07159056  0.20905800  1  0.421194  0  0.071466  0.325949  0  4.139433  0
C  C167  1  0.86626345  0.92840979  0.70905779  1  0.42119  0  0.071465  0.325937  0  4.13948  0
C  C168  1  0.44893389  0.45360314  0.28476738  1  -0.001993  0  -0.136574  -0.288663  0  4.049023  0
C  C169  1  0.05106633  0.54639701  0.78476751  1  -0.00198  0  -0.136555  -0.288656  0  4.048929  0
C  C170  1  0.55106521  0.95360254  0.21523293  1  -0.001992  0  -0.136589  -0.288721  0  4.049068  0
C  C171  1  0.94893408  0.04639780  0.71523292  1  -0.001982  0  -0.136599  -0.288727  0  4.049099  0
C  C172  1  0.46395935  0.39650985  0.23328397  1  -0.094999  0  -0.099523  -0.030966  0  4.084789  0
C  C173  1  0.03604072  0.60348933  0.73328328  1  -0.094953  0  -0.099576  -0.031082  0  4.084795  0
C  C174  1  0.53603973  0.89651124  0.26671594  1  -0.09513  0  -0.099553  -0.031042  0  4.084789  0
C  C175  1  0.96395970  0.10348904  0.76671552  1  -0.094995  0  -0.099541  -0.031026  0  4.084865  0
C  C176  1  0.40124027  0.45475255  0.18785269  1  -0.019627  0  -0.135804  -0.292541  0  4.041185  0
C  C177  1  0.09875967  0.54524771  0.68785284  1  -0.019637  0  -0.135782  -0.292477  0  4.04125  0
C  C178  1  0.59875882  0.95475287  0.31214803  1  -0.019484  0  -0.135769  -0.292476  0  4.041089  0
C  C179  1  0.90124073  0.04524838  0.81214800  1  -0.019501  0  -0.135795  -0.292491  0  4.041134  0
N  N180  1  0.41178377  0.02680824  0.94996528  1  -1.266608  0  -0.337352  -0.280676  0  3.616143  0
N  N181  1  0.08821586  0.97319376  0.44996570  1  -1.266577  0  -0.337387  -0.280642  0  3.616123  0
N  N182  1  0.58821558  0.52680682  0.55003475  1  -1.266566  0  -0.337359  -0.280667  0  3.616205  0
N  N183  1  0.91178428  0.47319373  0.05003460  1  -1.266579  0  -0.337391  -0.280687  0  3.616116  0
N  N184  1  0.51553578  0.03858325  0.55692963  1  -1.284052  0  -0.340333  -0.280124  0  3.633962  0
N  N185  1  0.98446514  0.96141524  0.05692941  1  -1.283838  0  -0.340324  -0.280085  0  3.633871  0
N  N186  1  0.48446358  0.53858338  0.94307040  1  -1.284044  0  -0.340309  -0.280095  0  3.633997  0
N  N187  1  0.01553604  0.46141555  0.44307049  1  -1.284036  0  -0.340315  -0.280112  0  3.633879  0
O  O188  1  0.39881400  0.24907507  0.05770433  1  -1.448772  0  -0.387604  -0.705215  0  2.360687  0
O  O189  1  0.10118662  0.75092433  0.55770444  1  -1.448776  0  -0.387614  -0.705229  0  2.360731  0
O  O190  1  0.60118609  0.74907523  0.44229561  1  -1.448766  0  -0.387589  -0.705161  0  2.360667  0
O  O191  1  0.89881383  0.25092484  0.94229555  1  -1.448796  0  -0.38759  -0.705176  0  2.360681  0
O  O192  1  0.56185980  0.98582980  0.07523582  1  -1.449084  0  -0.375448  -0.733671  0  2.396204  0
O  O193  1  0.93813909  0.01417072  0.57523622  1  -1.449085  0  -0.375449  -0.733659  0  2.396259  0
O  O194  1  0.43814034  0.48582920  0.42476408  1  -1.449045  0  -0.375438  -0.733647  0  2.396259  0
O  O195  1  0.06186026  0.51417078  0.92476382  1  -1.449091  0  -0.375448  -0.733656  0  2.396263  0
O  O196  1  0.17685460  0.30399385  0.00517297  1  -1.451654  0  -0.382278  -0.73458  0  2.391869  0
O  O197  1  0.32314587  0.69600664  0.50517278  1  -1.451655  0  -0.382267  -0.734577  0  2.391809  0
O  O198  1  0.82314654  0.80399297  0.49482696  1  -1.451666  0  -0.382267  -0.73456  0  2.391883  0
O  O199  1  0.67685457  0.19600704  0.99482681  1  -1.451637  0  -0.382271  -0.73457  0  2.391856  0
O  O200  1  0.30327380  0.49333717  0.05865931  1  -1.447883  0  -0.379546  -0.742929  0  2.434585  0
O  O201  1  0.19672473  0.50666325  0.55865911  1  -1.447875  0  -0.379539  -0.742939  0  2.434597  0
O  O202  1  0.69672530  0.99333633  0.44134058  1  -1.44788  0  -0.379533  -0.742911  0  2.434599  0
O  O203  1  0.80327462  0.00666271  0.94134093  1  -1.447877  0  -0.37954  -0.74294  0  2.434603  0
O  O204  1  0.70043625  0.79408413  0.02719176  1  -1.459627  0  -0.385657  -0.739688  0  2.41524  0
O  O205  1  0.79956251  0.20591541  0.52719206  1  -1.45963  0  -0.385658  -0.739678  0  2.415295  0
O  O206  1  0.29956281  0.29408447  0.47280817  1  -1.459628  0  -0.385675  -0.739669  0  2.415267  0
O  O207  1  0.20043689  0.70591545  0.97280834  1  -1.459631  0  -0.385674  -0.739699  0  2.415299  0
O  O208  1  0.44147086  0.76721683  0.04730525  1  -1.44982  0  -0.385993  -0.716258  0  2.404833  0
O  O209  1  0.05852868  0.23278361  0.54730504  1  -1.449812  0  -0.386005  -0.716225  0  2.404845  0
O  O210  1  0.55852819  0.26721622  0.45269509  1  -1.449807  0  -0.386  -0.716221  0  2.404853  0
O  O211  1  0.94147176  0.73278383  0.95269495  1  -1.449801  0  -0.386017  -0.716237  0  2.404836  0
O  O212  1  0.25755927  0.63707148  0.15142944  1  -1.182847  0  -0.366881  -0.471701  0  2.314619  0
O  O213  1  0.24244057  0.36292986  0.65142969  1  -1.182846  0  -0.36688  -0.471679  0  2.314683  0
O  O214  1  0.74244079  0.13707104  0.34857133  1  -1.182794  0  -0.366882  -0.471704  0  2.314616  0
O  O215  1  0.75755887  0.86292914  0.84857109  1  -1.18279  0  -0.366865  -0.471697  0  2.314657  0
O  O216  1  0.35014824  0.63567573  0.33968763  1  -1.184798  0  -0.363342  -0.469063  0  2.313829  0
O  O217  1  0.14985109  0.36432435  0.83968784  1  -1.184808  0  -0.363354  -0.469061  0  2.313825  0
O  O218  1  0.64985182  0.13567550  0.16031273  1  -1.184816  0  -0.363452  -0.469127  0  2.313863  0
O  O219  1  0.85014835  0.86432492  0.66031293  1  -1.184814  0  -0.363445  -0.469116  0  2.313891  0
