# generated using pymatgen
data_CdFeH30C31N4O5
_symmetry_space_group_name_H-M   'P 1'
_cell_length_a   11.73737387
_cell_length_b   12.04469049
_cell_length_c   13.61141611
_cell_angle_alpha   68.55993650
_cell_angle_beta   77.14331279
_cell_angle_gamma   62.28756823
_symmetry_Int_Tables_number   1
_chemical_formula_structural   CdFeH30C31N4O5
_chemical_formula_sum   'Cd2 Fe2 H60 C62 N8 O10'
_cell_volume   1582.44688766
_cell_formula_units_Z   2
loop_
 _symmetry_equiv_pos_site_id
 _symmetry_equiv_pos_as_xyz
  1  'x, y, z'
loop_
 _atom_site_type_symbol
 _atom_site_label
 _atom_site_symmetry_multiplicity
 _atom_site_fract_x
 _atom_site_fract_y
 _atom_site_fract_z
 _atom_site_occupancy
 _atom_site_hle17_bader_spin_density
 _atom_site_hle17_ddec_charge
 _atom_site_hle17_ddec_spin_density
 _atom_site_hle17_ddec_sum_bond_order
 _atom_site_hle17_magmom
 _atom_site_hse06_10hf_bader_spin_density
 _atom_site_hse06_10hf_ddec_charge
 _atom_site_hse06_10hf_ddec_spin_density
 _atom_site_hse06_10hf_ddec_sum_bond_order
 _atom_site_hse06_10hf_magmom
 _atom_site_hse06_bader_spin_density
 _atom_site_hse06_ddec_charge
 _atom_site_hse06_ddec_spin_density
 _atom_site_hse06_ddec_sum_bond_order
 _atom_site_hse06_magmom
 _atom_site_pbe_bader_spin_density
 _atom_site_pbe_cm5_charge
 _atom_site_pbe_ddec_charge
 _atom_site_pbe_ddec_spin_density
 _atom_site_pbe_ddec_sum_bond_order
 _atom_site_pbe_magmom
Cd  Cd0  1  0.87511555  0.64507737  0.62364484  1  0  1.122776  0  1.689387  0  0  0.934157  0  2.136776  0  0  0.990766  0  2.08505  0  0  0.760124  0.893868  0  2.172117  0
Cd  Cd1  1  0.12488351  0.35492410  0.37635344  1  0  1.122815  0  1.689388  0  0  0.934195  0  2.13676  0  0  0.990802  0  2.085037  0  0  0.760159  0.893902  0  2.172099  0
Fe  Fe2  1  0.11067278  0.87082021  0.25474236  1  0  0.122297  0  3.586116  0  0  0.225126  0  3.996842  0  0  0.229962  0  3.983175  0  0  0.543408  0.228762  0  3.999209  0
Fe  Fe3  1  0.88932423  0.12918418  0.74525978  1  0  0.122371  0  3.586049  0  0  0.224938  0  3.996855  0  0  0.230109  0  3.98314  0  0  0.543437  0.228753  0  3.999196  0
H  H4  1  0.29701527  0.64353296  0.37889466  1  0  0.122003  0  0.937343  0  0  0.13841  0  0.989357  0  0  0.14178  0  0.987223  0  0  0.112516  0.13597  0  0.991084  0
H  H5  1  0.70298211  0.35646847  0.62110984  1  0  0.121921  0  0.937391  0  0  0.13841  0  0.989316  0  0  0.141784  0  0.987184  0  0  0.11251  0.135969  0  0.991049  0
H  H6  1  0.37039285  0.82758875  0.23388996  1  0  0.106125  0  0.948283  0  0  0.124894  0  0.996088  0  0  0.127999  0  0.99469  0  0  0.105499  0.122712  0  0.997142  0
H  H7  1  0.62960540  0.17241268  0.76611436  1  0  0.106085  0  0.94826  0  0  0.124858  0  0.996057  0  0  0.127966  0  0.994661  0  0  0.105467  0.122677  0  0.997109  0
H  H8  1  0.18146500  0.06867236  0.23723166  1  0  0.107668  0  0.964877  0  0  0.119461  0  1.024377  0  0  0.122103  0  1.023836  0  0  0.103111  0.117649  0  1.024796  0
H  H9  1  0.81853507  0.93133103  0.76277240  1  0  0.107626  0  0.964939  0  0  0.119422  0  1.024428  0  0  0.122065  0  1.023888  0  0  0.103095  0.117611  0  1.024851  0
H  H10  1  0.99623882  0.03273532  0.38580426  1  0  0.125727  0  0.942652  0  0  0.139841  0  0.99975  0  0  0.142926  0  0.998113  0  0  0.11237  0.137659  0  1.00105  0
H  H11  1  0.00376214  0.96726806  0.61420110  1  0  0.125711  0  0.942661  0  0  0.139869  0  0.999701  0  0  0.14296  0  0.99806  0  0  0.112359  0.137684  0  1.001005  0
H  H12  1  0.76539992  0.22735705  0.91560958  1  0  0.117263  0  0.939446  0  0  0.13406  0  0.990179  0  0  0.137716  0  0.987475  0  0  0.110006  0.131401  0  0.992362  0
H  H13  1  0.23459979  0.77264930  0.08439213  1  0  0.117242  0  0.939423  0  0  0.134045  0  0.990154  0  0  0.137697  0  0.987447  0  0  0.109998  0.131387  0  0.992339  0
H  H14  1  0.90524653  0.96240495  0.95486801  1  0  0.106076  0  0.957258  0  0  0.121434  0  1.011011  0  0  0.124211  0  1.01039  0  0  0.103201  0.119489  0  1.011583  0
H  H15  1  0.09475055  0.03760141  0.04513348  1  0  0.106123  0  0.957249  0  0  0.12147  0  1.011013  0  0  0.124247  0  1.010385  0  0  0.10323  0.119508  0  1.011603  0
H  H16  1  0.12178858  0.92114246  0.82570926  1  0  0.111814  0  0.962574  0  0  0.125599  0  1.018497  0  0  0.128014  0  1.018721  0  0  0.103614  0.123938  0  1.01836  0
H  H17  1  0.87820661  0.07885998  0.17429240  1  0  0.111731  0  0.962586  0  0  0.1255  0  1.018545  0  0  0.127914  0  1.018764  0  0  0.103583  0.123844  0  1.018395  0
H  H18  1  0.11814615  0.16000363  0.70776625  1  0  0.119104  0  0.94964  0  0  0.135317  0  1.005083  0  0  0.137995  0  1.004052  0  0  0.111637  0.133431  0  1.005875  0
H  H19  1  0.88184982  0.83999686  0.29223295  1  0  0.119045  0  0.94974  0  0  0.135304  0  1.005124  0  0  0.13798  0  1.004092  0  0  0.111618  0.133415  0  1.005919  0
H  H20  1  0.69021773  0.94091636  0.66052127  1  0  0.094206  0  0.961784  0  0  0.105919  0  1.025371  0  0  0.10768  0  1.023432  0  0  0.134448  0.104555  0  1.026783  0
H  H21  1  0.30977960  0.05908510  0.33947882  1  0  0.094231  0  0.961748  0  0  0.105945  0  1.025339  0  0  0.107704  0  1.0234  0  0  0.134452  0.104578  0  1.026753  0
H  H22  1  0.61570323  0.59965043  0.59336592  1  0  0.111792  0  0.945425  0  0  0.125171  0  1.000321  0  0  0.127828  0  0.998912  0  0  0.107441  0.123122  0  1.001642  0
H  H23  1  0.38430184  0.40034708  0.40663317  1  0  0.111705  0  0.945328  0  0  0.125055  0  1.000278  0  0  0.127709  0  0.998869  0  0  0.107368  0.123006  0  1.001598  0
H  H24  1  0.39358503  0.65304189  0.55292951  1  0  0.090148  0  0.949691  0  0  0.104697  0  1.00209  0  0  0.107199  0  1.001534  0  0  0.098715  0.10283  0  1.002701  0
H  H25  1  0.60642160  0.34694972  0.44707192  1  0  0.090198  0  0.94969  0  0  0.104753  0  1.002081  0  0  0.107253  0  1.001528  0  0  0.098751  0.102881  0  1.002692  0
H  H26  1  0.21299595  0.86851971  0.55172215  1  0  0.09053  0  0.968533  0  0  0.104006  0  1.026394  0  0  0.105668  0  1.027292  0  0  0.098379  0.102698  0  1.026023  0
H  H27  1  0.78700801  0.13147192  0.44827539  1  0  0.090537  0  0.968622  0  0  0.104003  0  1.0265  0  0  0.105677  0  1.027374  0  0  0.098388  0.102692  0  1.026129  0
H  H28  1  0.23987223  0.03559057  0.59533689  1  0  0.120808  0  0.968656  0  0  0.128723  0  1.032804  0  0  0.132144  0  1.030864  0  0  0.105961  0.126141  0  1.034464  0
H  H29  1  0.76012961  0.96440403  0.40465791  1  0  0.120732  0  0.968711  0  0  0.128641  0  1.032875  0  0  0.132054  0  1.030953  0  0  0.105937  0.126091  0  1.034471  0
H  H30  1  0.34535625  0.16990378  0.61380020  1  0  0.093383  0  0.931731  0  0  0.107598  0  0.995816  0  0  0.108656  0  0.995124  0  0  0.112661  0.106643  0  0.996588  0
H  H31  1  0.65464239  0.83009868  0.38619563  1  0  0.093288  0  0.931806  0  0  0.107531  0  0.99585  0  0  0.108587  0  0.995159  0  0  0.112625  0.106574  0  0.996624  0
H  H32  1  0.49317283  0.15545824  0.63926421  1  0  0.074984  0  0.929461  0  0  0.090996  0  0.992331  0  0  0.090796  0  0.994226  0  0  0.10977  0.091072  0  0.991041  0
H  H33  1  0.50682617  0.84454126  0.36073471  1  0  0.075015  0  0.929402  0  0  0.091013  0  0.992287  0  0  0.090812  0  0.994183  0  0  0.109795  0.09109  0  0.990998  0
H  H34  1  0.31845353  0.04030408  0.80422231  1  0  0.070723  0  0.934586  0  0  0.091648  0  0.991991  0  0  0.092283  0  0.992937  0  0  0.092403  0.091208  0  0.991216  0
H  H35  1  0.68154288  0.95969741  0.19577354  1  0  0.070765  0  0.934594  0  0  0.091662  0  0.991992  0  0  0.092295  0  0.992939  0  0  0.092411  0.091222  0  0.991216  0
H  H36  1  0.46842482  0.02299557  0.82892433  1  0  0.054278  0  0.932845  0  0  0.072012  0  0.995149  0  0  0.072942  0  0.994946  0  0  0.084735  0.071176  0  0.99549  0
H  H37  1  0.53157065  0.97700395  0.17107308  1  0  0.054316  0  0.932811  0  0  0.072036  0  0.995108  0  0  0.072963  0  0.994906  0  0  0.084744  0.071199  0  0.995447  0
H  H38  1  0.23508082  0.28852737  0.75436198  1  0  0.08253  0  0.926114  0  0  0.101855  0  0.98213  0  0  0.103122  0  0.982105  0  0  0.096547  0.100848  0  0.982316  0
H  H39  1  0.76491428  0.71147312  0.24563813  1  0  0.08256  0  0.926148  0  0  0.101813  0  0.982211  0  0  0.103078  0  0.98219  0  0  0.096561  0.100807  0  0.982392  0
H  H40  1  0.38317674  0.26732610  0.78566749  1  0  0.057756  0  0.926741  0  0  0.079671  0  0.979272  0  0  0.080159  0  0.979792  0  0  0.089247  0.079224  0  0.979026  0
H  H41  1  0.61682095  0.73267441  0.21432842  1  0  0.057742  0  0.926732  0  0  0.07965  0  0.979258  0  0  0.080136  0  0.979779  0  0  0.089236  0.079204  0  0.979012  0
H  H42  1  0.19241086  0.16592859  0.93817613  1  0  0.07221  0  0.938801  0  0  0.092396  0  0.998168  0  0  0.093047  0  0.998974  0  0  0.093974  0.091811  0  0.997747  0
H  H43  1  0.80758951  0.83407187  0.06182514  1  0  0.072197  0  0.9388  0  0  0.092405  0  0.998137  0  0  0.093065  0  0.998942  0  0  0.093979  0.091818  0  0.997722  0
H  H44  1  0.34362667  0.13192158  0.97455838  1  0  0.059925  0  0.927813  0  0  0.079207  0  0.98583  0  0  0.080008  0  0.985924  0  0  0.087098  0.078535  0  0.985876  0
H  H45  1  0.65637414  0.86807988  0.02543954  1  0  0.05991  0  0.927829  0  0  0.079191  0  0.985845  0  0  0.07999  0  0.985943  0  0  0.087093  0.078517  0  0.98589  0
H  H46  1  0.27933786  0.37126374  0.93763600  1  0  0.07337  0  0.919209  0  0  0.091756  0  0.975915  0  0  0.091792  0  0.976886  0  0  0.112786  0.091605  0  0.975429  0
H  H47  1  0.72066206  0.62873573  0.06236716  1  0  0.073373  0  0.919216  0  0  0.091734  0  0.975935  0  0  0.09177  0  0.976905  0  0  0.112772  0.091583  0  0.975443  0
H  H48  1  0.13539619  0.41121533  0.88602918  1  0  0.080642  0  0.93193  0  0  0.096505  0  0.993206  0  0  0.096712  0  0.994411  0  0  0.112941  0.096294  0  0.99246  0
H  H49  1  0.86460424  0.58878710  0.11397144  1  0  0.080624  0  0.931995  0  0  0.096482  0  0.993257  0  0  0.096689  0  0.994462  0  0  0.112911  0.096268  0  0.992511  0
H  H50  1  0.27053391  0.34106357  0.13211434  1  0  0.105649  0  0.913138  0  0  0.117669  0  0.970341  0  0  0.120354  0  0.966793  0  0  0.142581  0.115575  0  0.973024  0
H  H51  1  0.72946336  0.65893591  0.86788786  1  0  0.105684  0  0.913086  0  0  0.117682  0  0.970306  0  0  0.120383  0  0.966738  0  0  0.142605  0.115586  0  0.972995  0
H  H52  1  0.94913127  0.33965725  0.93937384  1  0  0.110974  0  0.968726  0  0  0.122154  0  1.028719  0  0  0.124286  0  1.028831  0  0  0.105506  0.12062  0  1.028677  0
H  H53  1  0.05086722  0.66033929  0.06062834  1  0  0.111015  0  0.968625  0  0  0.122141  0  1.028701  0  0  0.124269  0  1.028815  0  0  0.105505  0.120611  0  1.028655  0
H  H54  1  0.73954312  0.35007269  0.03355611  1  0  0.089953  0  0.947492  0  0  0.10319  0  1.001525  0  0  0.106205  0  0.999834  0  0  0.101551  0.10098  0  1.0029  0
H  H55  1  0.26045584  0.64992482  0.96644640  1  0  0.089945  0  0.94747  0  0  0.103187  0  1.0015  0  0  0.106201  0  0.999811  0  0  0.101547  0.100975  0  1.002877  0
H  H56  1  0.69301882  0.34529394  0.22187057  1  0  0.088998  0  0.970701  0  0  0.100439  0  1.028542  0  0  0.102606  0  1.029018  0  0  0.096646  0.098857  0  1.028367  0
H  H57  1  0.30697763  0.65470752  0.77812969  1  0  0.089025  0  0.970631  0  0  0.100453  0  1.028474  0  0  0.102621  0  1.028951  0  0  0.096643  0.098872  0  1.0283  0
H  H58  1  0.85315897  0.33954872  0.32013946  1  0  0.116741  0  0.962267  0  0  0.126155  0  1.022275  0  0  0.129107  0  1.020928  0  0  0.106075  0.124053  0  1.023277  0
H  H59  1  0.14683958  0.66044979  0.67986208  1  0  0.116782  0  0.962247  0  0  0.126202  0  1.02225  0  0  0.129154  0  1.020902  0  0  0.106101  0.124101  0  1.023252  0
H  H60  1  0.84312417  0.53310104  0.48116346  1  0  0.430208  0  0.86636  0  0  0.400768  0  0.927956  0  0  0.411475  0  0.912219  0  0  0.289628  0.39315  0  0.939157  0
H  H61  1  0.15688237  0.46690138  0.51883376  1  0  0.430233  0  0.866284  0  0  0.400788  0  0.927894  0  0  0.411495  0  0.912156  0  0  0.289626  0.393167  0  0.939099  0
H  H62  1  0.90540892  0.62514525  0.41055246  1  0  0.423721  0  0.880823  0  0  0.391268  0  0.94819  0  0  0.40264  0  0.931612  0  0  0.285992  0.383129  0  0.960057  0
H  H63  1  0.09460188  0.37485322  0.58944666  1  0  0.423678  0  0.88087  0  0  0.391204  0  0.948283  0  0  0.402575  0  0.931705  0  0  0.285997  0.383061  0  0.960153  0
C  C64  1  0.04600451  0.75046991  0.49126466  1  0  0.649564  0  3.945357  0  0  0.601775  0  4.235939  0  0  0.637641  0  4.227492  0  0  0.191596  0.577299  0  4.241023  0
C  C65  1  0.95399573  0.24952462  0.50874370  1  0  0.649369  0  3.944907  0  0  0.601558  0  4.235491  0  0  0.637425  0  4.227054  0  0  0.191567  0.577082  0  4.24057  0
C  C66  1  0.12300491  0.81611338  0.41302521  1  0  -0.100641  0  3.744629  0  0  -0.091699  0  4.009267  0  0  -0.101538  0  4.027643  0  0  -0.083287  -0.085922  0  3.997261  0
C  C67  1  0.87699159  0.18388806  0.58697945  1  0  -0.100632  0  3.7448  0  0  -0.091622  0  4.009371  0  0  -0.101499  0  4.027802  0  0  -0.083335  -0.085862  0  3.997387  0
C  C68  1  0.24607411  0.74945589  0.36317669  1  0  -0.113911  0  3.700989  0  0  -0.154156  0  3.979488  0  0  -0.155198  0  3.995377  0  0  -0.146654  -0.153809  0  3.968667  0
C  C69  1  0.75392242  0.25054753  0.63682513  1  0  -0.113863  0  3.700973  0  0  -0.154167  0  3.979447  0  0  -0.155248  0  3.995383  0  0  -0.146611  -0.15384  0  3.968651  0
C  C70  1  0.28390540  0.84680360  0.28682147  1  0  -0.12027  0  3.748848  0  0  -0.148404  0  4.026146  0  0  -0.151801  0  4.042859  0  0  -0.154478  -0.146414  0  4.014498  0
C  C71  1  0.71609369  0.15319785  0.71317900  1  0  -0.120118  0  3.748886  0  0  -0.148234  0  4.026155  0  0  -0.151667  0  4.042918  0  0  -0.154418  -0.14626  0  4.01453  0
C  C72  1  0.18453437  0.97419170  0.28886130  1  0  -0.117499  0  3.737562  0  0  -0.145504  0  4.018211  0  0  -0.148778  0  4.034171  0  0  -0.157279  -0.143881  0  4.007443  0
C  C73  1  0.81546345  0.02581073  0.71114058  1  0  -0.117501  0  3.737654  0  0  -0.145485  0  4.018294  0  0  -0.148789  0  4.034296  0  0  -0.157262  -0.143884  0  4.007556  0
C  C74  1  0.08515845  0.95578971  0.36643610  1  0  -0.104088  0  3.670005  0  0  -0.145139  0  3.949183  0  0  -0.144364  0  3.962313  0  0  -0.145176  -0.146097  0  3.940517  0
C  C75  1  0.91484032  0.04421468  0.63356570  1  0  -0.104135  0  3.670092  0  0  -0.145215  0  3.949258  0  0  -0.144479  0  3.962437  0  0  -0.14523  -0.146194  0  3.94062  0
C  C76  1  0.93014748  0.24238753  0.79892153  1  0  -0.104013  0  3.756707  0  0  -0.095065  0  4.021161  0  0  -0.104594  0  4.039886  0  0  -0.086953  -0.089579  0  4.009102  0
C  C77  1  0.06985772  0.75761391  0.20107774  1  0  -0.1039  0  3.756638  0  0  -0.095044  0  4.021239  0  0  -0.104532  0  4.039907  0  0  -0.086958  -0.089534  0  4.009149  0
C  C78  1  0.85929154  0.17743018  0.87946582  1  0  -0.126113  0  3.709866  0  0  -0.164299  0  3.984867  0  0  -0.165459  0  3.999965  0  0  -0.151454  -0.164057  0  3.974959  0
C  C79  1  0.14070893  0.82257223  0.12053774  1  0  -0.126035  0  3.709804  0  0  -0.164222  0  3.984823  0  0  -0.165344  0  3.999871  0  0  -0.151414  -0.163968  0  3.974896  0
C  C80  1  0.93280827  0.03857609  0.89947227  1  0  -0.096047  0  3.736848  0  0  -0.122488  0  4.008141  0  0  -0.125743  0  4.025684  0  0  -0.150355  -0.120954  0  3.996503  0
C  C81  1  0.06718836  0.96142927  0.10053184  1  0  -0.096245  0  3.736972  0  0  -0.122706  0  4.008295  0  0  -0.125923  0  4.025783  0  0  -0.150426  -0.121138  0  3.996635  0
C  C82  1  0.04876017  0.01635423  0.83166060  1  0  -0.106503  0  3.719745  0  0  -0.1332  0  3.990928  0  0  -0.136585  0  4.008171  0  0  -0.150439  -0.131391  0  3.979227  0
C  C83  1  0.95123853  0.98364819  0.16834184  1  0  -0.106339  0  3.719691  0  0  -0.133053  0  3.990931  0  0  -0.136399  0  4.008123  0  0  -0.150445  -0.131234  0  3.979196  0
C  C84  1  0.04718957  0.14163015  0.76976032  1  0  -0.124037  0  3.700922  0  0  -0.165197  0  3.980267  0  0  -0.166471  0  3.996557  0  0  -0.152084  -0.164722  0  3.969276  0
C  C85  1  0.95281291  0.85836735  0.23024296  1  0  -0.124035  0  3.700856  0  0  -0.165234  0  3.980243  0  0  -0.166473  0  3.996484  0  0  -0.152046  -0.164739  0  3.969234  0
C  C86  1  0.88818073  0.38650236  0.74988208  1  0  0.648555  0  3.948645  0  0  0.600845  0  4.243249  0  0  0.636562  0  4.234392  0  0  0.188081  0.576488  0  4.248653  0
C  C87  1  0.11182485  0.61349811  0.25011449  1  0  0.648354  0  3.948886  0  0  0.600632  0  4.243544  0  0  0.636344  0  4.23469  0  0  0.187928  0.576273  0  4.248949  0
C  C88  1  0.62583479  0.90578744  0.64869530  1  0  0.195336  0  3.685263  0  0  0.13031  0  3.958697  0  0  0.147913  0  3.969753  0  0  0.154402  0.118913  0  3.950683  0
C  C89  1  0.37416346  0.09421599  0.35130250  1  0  0.195328  0  3.685253  0  0  0.130268  0  3.958671  0  0  0.147873  0  3.969726  0  0  0.154388  0.11887  0  3.950656  0
C  C90  1  0.55119740  0.78847729  0.61734342  1  0  0.151006  0  3.822202  0  0  0.149678  0  4.066592  0  0  0.153193  0  4.090516  0  0  0.085257  0.147178  0  4.050436  0
C  C91  1  0.44880507  0.21152221  0.38265261  1  0  0.151068  0  3.822201  0  0  0.149704  0  4.066648  0  0  0.153219  0  4.09057  0  0  0.085249  0.147203  0  4.050489  0
C  C92  1  0.53413544  0.69287245  0.59486935  1  0  -0.135566  0  3.749287  0  0  -0.154234  0  3.996661  0  0  -0.156215  0  4.016276  0  0  -0.090042  -0.152762  0  3.983456  0
C  C93  1  0.46587001  0.30712408  0.40512778  1  0  -0.135519  0  3.749249  0  0  -0.154144  0  3.996624  0  0  -0.156121  0  4.016237  0  0  -0.089989  -0.15267  0  3.983416  0
C  C94  1  0.41071340  0.72369651  0.57279377  1  0  -0.09721  0  3.812871  0  0  -0.112171  0  4.067999  0  0  -0.11497  0  4.090931  0  0  -0.103072  -0.110296  0  4.052417  0
C  C95  1  0.58929326  0.27629708  0.42720408  1  0  -0.097219  0  3.812923  0  0  -0.11219  0  4.068039  0  0  -0.114991  0  4.090969  0  0  -0.103067  -0.110316  0  4.052455  0
C  C96  1  0.30684588  0.84595529  0.57359564  1  0  -0.065167  0  3.770781  0  0  -0.083089  0  4.028986  0  0  -0.085048  0  4.052567  0  0  -0.096145  -0.081598  0  4.012997  0
C  C97  1  0.69315773  0.15403930  0.42640101  1  0  -0.065247  0  3.770938  0  0  -0.083164  0  4.029113  0  0  -0.08512  0  4.052687  0  0  -0.096215  -0.081683  0  4.013151  0
C  C98  1  0.32118808  0.94061283  0.59898171  1  0  -0.148936  0  3.749958  0  0  -0.169126  0  4.008819  0  0  -0.1721  0  4.028132  0  0  -0.0975  -0.167059  0  3.99583  0
C  C99  1  0.67881472  0.05938373  0.40101373  1  0  -0.148814  0  3.750018  0  0  -0.168973  0  4.008873  0  0  -0.171951  0  4.028187  0  0  -0.097446  -0.166917  0  3.995882  0
C  C100  1  0.44505184  0.90941153  0.62116374  1  0  0.092341  0  3.775943  0  0  0.080425  0  4.021609  0  0  0.084306  0  4.044065  0  0  0.0874  0.077806  0  4.006467  0
C  C101  1  0.55494975  0.09058798  0.37883173  1  0  0.092377  0  3.776014  0  0  0.080397  0  4.021728  0  0  0.08428  0  4.044183  0  0  0.087383  0.077774  0  4.006589  0
C  C102  1  0.42749875  0.10703811  0.66410386  1  0  -0.00068  0  3.626028  0  0  -0.062581  0  3.88811  0  0  -0.058466  0  3.900116  0  0  -0.05274  -0.065282  0  3.880082  0
C  C103  1  0.57249983  0.89296238  0.33589336  1  0  -0.000507  0  3.626093  0  0  -0.062447  0  3.888122  0  0  -0.058331  0  3.900128  0  0  -0.052744  -0.065148  0  3.880092  0
C  C104  1  0.38368266  0.08943197  0.78122812  1  0  -0.122981  0  3.700495  0  0  -0.168274  0  3.9704  0  0  -0.169736  0  3.984662  0  0  -0.16417  -0.167105  0  3.960533  0
C  C105  1  0.61631282  0.91056754  0.21877002  1  0  -0.123118  0  3.700579  0  0  -0.168318  0  3.97036  0  0  -0.169777  0  3.984621  0  0  -0.164132  -0.16715  0  3.960495  0
C  C106  1  0.31608406  0.22043969  0.80560738  1  0  -0.102742  0  3.684824  0  0  -0.136243  0  3.942344  0  0  -0.137525  0  3.957291  0  0  -0.16121  -0.135201  0  3.931991  0
C  C107  1  0.68391193  0.77956079  0.19439329  1  0  -0.10271  0  3.684889  0  0  -0.136167  0  3.942344  0  0  -0.137448  0  3.957287  0  0  -0.161224  -0.135124  0  3.931992  0
C  C108  1  0.26560623  0.20450267  0.92129429  1  0  -0.122921  0  3.692647  0  0  -0.167117  0  3.959919  0  0  -0.168536  0  3.973916  0  0  -0.162677  -0.16597  0  3.950249  0
C  C109  1  0.73439196  0.79549879  0.07870489  1  0  -0.122882  0  3.692644  0  0  -0.167082  0  3.959845  0  0  -0.16851  0  3.973853  0  0  -0.162655  -0.165939  0  3.950178  0
C  C110  1  0.20600012  0.33599781  0.94445568  1  0  0.006592  0  3.648542  0  0  -0.057137  0  3.913525  0  0  -0.052741  0  3.925869  0  0  -0.050326  -0.060038  0  3.905112  0
C  C111  1  0.79399938  0.66400265  0.05554577  1  0  0.006518  0  3.648549  0  0  -0.05717  0  3.913473  0  0  -0.052773  0  3.925815  0  0  -0.050285  -0.060061  0  3.905046  0
C  C112  1  0.18070724  0.33442545  0.13449416  1  0  0.193512  0  3.682208  0  0  0.126347  0  3.963486  0  0  0.143659  0  3.973677  0  0  0.156501  0.115205  0  3.956062  0
C  C113  1  0.81928748  0.66557601  0.86550864  1  0  0.19341  0  3.682304  0  0  0.126294  0  3.963566  0  0  0.143591  0  3.973753  0  0  0.156521  0.115156  0  3.956147  0
C  C114  1  0.01905371  0.33147556  0.07867023  1  0  0.091856  0  3.782929  0  0  0.079292  0  4.031267  0  0  0.083017  0  4.053151  0  0  0.088383  0.076808  0  4.016579  0
C  C115  1  0.98094396  0.66852295  0.92133147  1  0  0.091605  0  3.783114  0  0  0.079089  0  4.031452  0  0  0.082814  0  4.053332  0  0  0.088263  0.076602  0  4.016762  0
C  C116  1  0.92991150  0.33749460  0.02183585  1  0  -0.140531  0  3.751274  0  0  -0.161701  0  4.010322  0  0  -0.164216  0  4.031056  0  0  -0.095332  -0.159892  0  3.996197  0
C  C117  1  0.07008488  0.66250490  0.97816506  1  0  -0.140522  0  3.75121  0  0  -0.161664  0  4.010289  0  0  -0.164175  0  4.03102  0  0  -0.095318  -0.159851  0  3.996156  0
C  C118  1  0.81243415  0.34331063  0.07572263  1  0  -0.0763  0  3.791153  0  0  -0.090884  0  4.045538  0  0  -0.092687  0  4.066893  0  0  -0.096404  -0.089474  0  4.030851  0
C  C119  1  0.18756317  0.65669084  0.92427672  1  0  -0.076246  0  3.791176  0  0  -0.090838  0  4.045542  0  0  -0.092641  0  4.066896  0  0  -0.096359  -0.089424  0  4.030853  0
C  C120  1  0.78573394  0.34180081  0.18243213  1  0  -0.09301  0  3.803719  0  0  -0.108325  0  4.0567  0  0  -0.110934  0  4.079683  0  0  -0.100215  -0.106471  0  4.040989  0
C  C121  1  0.21426212  0.65820163  0.81756862  1  0  -0.093087  0  3.803754  0  0  -0.108375  0  4.05672  0  0  -0.110985  0  4.079703  0  0  -0.100218  -0.106521  0  4.041012  0
C  C122  1  0.87478547  0.33638522  0.23882709  1  0  -0.133055  0  3.718262  0  0  -0.150007  0  3.964881  0  0  -0.152667  0  3.985036  0  0  -0.088129  -0.148284  0  3.951354  0
C  C123  1  0.12521267  0.66361427  0.76117347  1  0  -0.133133  0  3.718157  0  0  -0.150074  0  3.964801  0  0  -0.152734  0  3.984957  0  0  -0.088182  -0.148355  0  3.951275  0
C  C124  1  0.99272921  0.33219545  0.18542400  1  0  0.142632  0  3.830493  0  0  0.142352  0  4.077154  0  0  0.146063  0  4.09982  0  0  0.085004  0.139657  0  4.062174  0
C  C125  1  0.00726933  0.66780306  0.81457680  1  0  0.142812  0  3.830203  0  0  0.142447  0  4.076966  0  0  0.146158  0  4.099631  0  0  0.08507  0.139763  0  4.061972  0
N  N126  1  0.66249044  0.79035939  0.63457599  1  0  -0.431677  0  3.207097  0  0  -0.364642  0  3.492379  0  0  -0.387517  0  3.50767  0  0  -0.354191  -0.349  0  3.481433  0
N  N127  1  0.33750996  0.20964305  0.36542097  1  0  -0.431663  0  3.207073  0  0  -0.364605  0  3.492366  0  0  -0.387481  0  3.507657  0  0  -0.354177  -0.348962  0  3.481416  0
N  N128  1  0.49662864  0.98096776  0.64238950  1  0  -0.120759  0  3.524768  0  0  -0.03241  0  3.750483  0  0  -0.049102  0  3.77465  0  0  -0.242007  -0.021384  0  3.733973  0
N  N129  1  0.50337161  0.01903076  0.35760728  1  0  -0.120958  0  3.524943  0  0  -0.032517  0  3.750583  0  0  -0.049209  0  3.774747  0  0  -0.242013  -0.021489  0  3.734076  0
N  N130  1  0.14026212  0.33145435  0.04921708  1  0  -0.129919  0  3.533177  0  0  -0.040519  0  3.761604  0  0  -0.057206  0  3.785951  0  0  -0.244504  -0.02937  0  3.744873  0
N  N131  1  0.85973600  0.66854515  0.95078201  1  0  -0.12963  0  3.533198  0  0  -0.040275  0  3.761608  0  0  -0.056961  0  3.785957  0  0  -0.244486  -0.029127  0  3.744871  0
N  N132  1  0.09635427  0.33386443  0.21748972  1  0  -0.43236  0  3.172072  0  0  -0.372164  0  3.462114  0  0  -0.393331  0  3.476195  0  0  -0.348548  -0.357743  0  3.452096  0
N  N133  1  0.90364302  0.66613505  0.78251322  1  0  -0.432434  0  3.172047  0  0  -0.372205  0  3.462074  0  0  -0.393373  0  3.476162  0  0  -0.348578  -0.357784  0  3.452051  0
O  O134  1  0.92948857  0.82123373  0.51601258  1  0  -0.633692  0  1.936893  0  0  -0.566964  0  2.172356  0  0  -0.595452  0  2.163962  0  0  -0.330283  -0.546925  0  2.17747  0
O  O135  1  0.07051983  0.17875586  0.48399650  1  0  -0.633666  0  1.936518  0  0  -0.566917  0  2.171955  0  0  -0.595404  0  2.163564  0  0  -0.330305  -0.546876  0  2.177065  0
O  O136  1  0.09953187  0.62541638  0.53190606  1  0  -0.672717  0  1.95765  0  0  -0.607915  0  2.184245  0  0  -0.634571  0  2.171404  0  0  -0.336536  -0.589139  0  2.19256  0
O  O137  1  0.90047387  0.37458800  0.46809142  1  0  -0.672601  0  1.957336  0  0  -0.607799  0  2.183935  0  0  -0.634457  0  2.171098  0  0  -0.336513  -0.589017  0  2.192234  0
O  O138  1  0.97222798  0.42174780  0.68258892  1  0  -0.68583  0  2.045849  0  0  -0.606457  0  2.290735  0  0  -0.638105  0  2.278898  0  0  -0.340332  -0.584283  0  2.298275  0
O  O139  1  0.02777933  0.57825268  0.31740510  1  0  -0.685819  0  2.045866  0  0  -0.60643  0  2.290715  0  0  -0.638075  0  2.278879  0  0  -0.340328  -0.584261  0  2.298262  0
O  O140  1  0.77960368  0.46659596  0.77481943  1  0  -0.627955  0  1.855691  0  0  -0.585003  0  2.072143  0  0  -0.608311  0  2.062907  0  0  -0.343232  -0.568751  0  2.07802  0
O  O141  1  0.22039740  0.53340258  0.22517277  1  0  -0.627839  0  1.855964  0  0  -0.584864  0  2.072396  0  0  -0.608169  0  2.063165  0  0  -0.343095  -0.568609  0  2.078274  0
O  O142  1  0.83535595  0.62307249  0.46721997  1  0  -0.838644  0  1.82695  0  0  -0.780906  0  2.014949  0  0  -0.802633  0  1.981208  0  0  -0.591406  -0.765487  0  2.038624  0
O  O143  1  0.16465122  0.37692206  0.53278040  1  0  -0.83865  0  1.826862  0  0  -0.780877  0  2.014841  0  0  -0.802605  0  1.981102  0  0  -0.591432  -0.765453  0  2.038518  0
