# generated using pymatgen
data_CdH8C13N2ClO2
_symmetry_space_group_name_H-M   'P 1'
_cell_length_a   8.59737313
_cell_length_b   8.65049118
_cell_length_c   18.20600000
_cell_angle_alpha   99.85324005
_cell_angle_beta   99.09557305
_cell_angle_gamma   108.04647747
_symmetry_Int_Tables_number   1
_chemical_formula_structural   CdH8C13N2ClO2
_chemical_formula_sum   'Cd4 H32 C52 N8 Cl4 O8'
_cell_volume   1235.78457523
_cell_formula_units_Z   4
loop_
 _symmetry_equiv_pos_site_id
 _symmetry_equiv_pos_as_xyz
  1  'x, y, z'
loop_
 _atom_site_type_symbol
 _atom_site_label
 _atom_site_symmetry_multiplicity
 _atom_site_fract_x
 _atom_site_fract_y
 _atom_site_fract_z
 _atom_site_occupancy
 _atom_site_hle17_bader_spin_density
 _atom_site_hle17_ddec_charge
 _atom_site_hle17_ddec_spin_density
 _atom_site_hle17_ddec_sum_bond_order
 _atom_site_hle17_magmom
 _atom_site_hse06_10hf_bader_spin_density
 _atom_site_hse06_10hf_ddec_charge
 _atom_site_hse06_10hf_ddec_spin_density
 _atom_site_hse06_10hf_ddec_sum_bond_order
 _atom_site_hse06_10hf_magmom
 _atom_site_hse06_bader_spin_density
 _atom_site_hse06_ddec_charge
 _atom_site_hse06_ddec_spin_density
 _atom_site_hse06_ddec_sum_bond_order
 _atom_site_hse06_magmom
 _atom_site_pbe_bader_charge
 _atom_site_pbe_bader_spin_density
 _atom_site_pbe_cm5_charge
 _atom_site_pbe_ddec_charge
 _atom_site_pbe_ddec_spin_density
 _atom_site_pbe_ddec_sum_bond_order
 _atom_site_pbe_magmom
Cd  Cd0  1  0.21612446  0.57951713  0.55481109  1  0  0.997193  0  1.925054  0  0  0.819057  0  2.396079  0  0  0.868428  0  2.351105  0  1.205526  0  0.671783  0.784234  0  2.426641  0
Cd  Cd1  1  0.02432501  0.16197279  0.94540320  1  0  1.000159  0  1.915052  0  0  0.821568  0  2.385537  0  0  0.871253  0  2.340399  0  1.207956  0  0.671573  0.786528  0  2.416192  0
Cd  Cd2  1  0.78387384  0.42048216  0.44518840  1  0  0.997149  0  1.925137  0  0  0.818988  0  2.396192  0  0  0.868362  0  2.351208  0  1.20556  0  0.671755  0.784163  0  2.426753  0
Cd  Cd3  1  0.97567564  0.83802650  0.05459646  1  0  1.000162  0  1.91506  0  0  0.821567  0  2.38555  0  0  0.871255  0  2.340409  0  1.207964  0  0.671564  0.786527  0  2.416206  0
H  H4  1  0.52448485  0.90219578  0.53191673  1  0  0.075808  0  0.937296  0  0  0.086003  0  0.998035  0  0  0.087943  0  0.996714  0  0.080074  0  0.115759  0.084565  0  0.998998  0
H  H5  1  0.37056044  0.49270700  0.96809603  1  0  0.0762  0  0.937598  0  0  0.086323  0  0.998451  0  0  0.088229  0  0.99714  0  0.068994  0  0.116052  0.084911  0  0.999405  0
H  H6  1  0.47551450  0.09779975  0.46808418  1  0  0.075786  0  0.937268  0  0  0.086009  0  0.997981  0  0  0.087949  0  0.996661  0  0.080024  0  0.115766  0.084571  0  0.998945  0
H  H7  1  0.62944300  0.50729354  0.03190284  1  0  0.076162  0  0.937637  0  0  0.086281  0  0.998496  0  0  0.088187  0  0.997186  0  0.069118  0  0.116026  0.084868  0  0.99945  0
H  H8  1  0.73459570  0.17836405  0.60823494  1  0  0.111765  0  0.962358  0  0  0.118863  0  1.028299  0  0  0.122444  0  1.026229  0  0.122762  0  0.101749  0.116199  0  1.03002  0
H  H9  1  0.57053983  0.62644720  0.89182268  1  0  0.112469  0  0.960678  0  0  0.118891  0  1.027358  0  0  0.122509  0  1.025248  0  0.133492  0  0.102017  0.116234  0  1.029083  0
H  H10  1  0.26540527  0.82163274  0.39176509  1  0  0.111804  0  0.962386  0  0  0.118886  0  1.028342  0  0  0.122449  0  1.02629  0  0.122786  0  0.101767  0.116221  0  1.030063  0
H  H11  1  0.42946200  0.37355208  0.10817597  1  0  0.112458  0  0.960686  0  0  0.118889  0  1.027356  0  0  0.122505  0  1.025249  0  0.13349  0  0.102015  0.116233  0  1.02908  0
H  H12  1  0.74380433  0.26110200  0.74967423  1  0  0.103635  0  0.938596  0  0  0.117338  0  0.995127  0  0  0.120111  0  0.99304  0  0.106635  0  0.111141  0.115282  0  0.996733  0
H  H13  1  0.51133627  0.49380633  0.75034771  1  0  0.102741  0  0.939467  0  0  0.116268  0  0.99616  0  0  0.119112  0  0.993999  0  0.070885  0  0.111125  0.114167  0  0.99781  0
H  H14  1  0.25619589  0.73889603  0.25032585  1  0  0.103699  0  0.938527  0  0  0.117394  0  0.99506  0  0  0.120168  0  0.992972  0  0.106624  0  0.111151  0.11534  0  0.996666  0
H  H15  1  0.48866320  0.50619295  0.24965076  1  0  0.102735  0  0.939425  0  0  0.116259  0  0.99613  0  0  0.119104  0  0.993968  0  0.070926  0  0.11112  0.114158  0  0.99778  0
H  H16  1  0.63238828  0.19227273  0.86183597  1  0  0.116056  0  0.970297  0  0  0.125921  0  1.030886  0  0  0.129299  0  1.029427  0  0.126417  0  0.103209  0.123385  0  1.032132  0
H  H17  1  0.32946783  0.27017560  0.63815781  1  0  0.116216  0  0.969622  0  0  0.126025  0  1.030057  0  0  0.129375  0  1.028619  0  0.126148  0  0.10357  0.123569  0  1.031192  0
H  H18  1  0.36761237  0.80772656  0.13816424  1  0  0.116055  0  0.970292  0  0  0.125917  0  1.030886  0  0  0.129296  0  1.029427  0  0.126421  0  0.10321  0.123383  0  1.03213  0
H  H19  1  0.67053282  0.72982369  0.36184130  1  0  0.116217  0  0.969585  0  0  0.126011  0  1.030028  0  0  0.129361  0  1.028591  0  0.126166  0  0.103562  0.123551  0  1.031178  0
H  H20  1  0.41721388  0.00555797  0.91499494  1  0  0.108328  0  0.961323  0  0  0.117588  0  1.024036  0  0  0.120687  0  1.02228  0  0.115603  0  0.094489  0.115301  0  1.025443  0
H  H21  1  0.08969144  0.00155708  0.58505512  1  0  0.107798  0  0.961127  0  0  0.116969  0  1.024031  0  0  0.120047  0  1.022318  0  0.117237  0  0.094426  0.114677  0  1.025441  0
H  H22  1  0.58278647  0.99444382  0.08500600  1  0  0.108314  0  0.961283  0  0  0.117575  0  1.024005  0  0  0.120672  0  1.02225  0  0.115634  0  0.094493  0.115288  0  1.025409  0
H  H23  1  0.91030803  0.99844221  0.41494445  1  0  0.107866  0  0.961118  0  0  0.117018  0  1.024034  0  0  0.120096  0  1.022321  0  0.117244  0  0.094462  0.114728  0  1.025442  0
H  H24  1  0.98000979  0.42201423  0.66791080  1  0  0.077839  0  0.949249  0  0  0.086395  0  1.015325  0  0  0.088761  0  1.012951  0  0.134688  0  0.109251  0.084581  0  1.017135  0
H  H25  1  0.75373847  0.81207388  0.83219009  1  0  0.077622  0  0.949263  0  0  0.086549  0  1.014778  0  0  0.088831  0  1.012514  0  0.121222  0  0.109122  0.084753  0  1.016577  0
H  H26  1  0.01998733  0.57798506  0.33209080  1  0  0.077815  0  0.949308  0  0  0.08637  0  1.015383  0  0  0.088736  0  1.013009  0  0.134673  0  0.109249  0.084557  0  1.017194  0
H  H27  1  0.24626262  0.18792666  0.16781080  1  0  0.07762  0  0.949255  0  0  0.086549  0  1.014766  0  0  0.088831  0  1.012503  0  0.121232  0  0.109129  0.084752  0  1.016565  0
H  H28  1  0.96001393  0.48715278  0.80694406  1  0  0.112861  0  0.963091  0  0  0.120409  0  1.026509  0  0  0.124201  0  1.024409  0  0.098892  0  0.106076  0.11764  0  1.028178  0
H  H29  1  0.67955975  0.65255740  0.69318316  1  0  0.112635  0  0.963895  0  0  0.120183  0  1.027326  0  0  0.123911  0  1.025314  0  0.113159  0  0.105958  0.11746  0  1.028969  0
H  H30  1  0.03998405  0.51284901  0.19305726  1  0  0.112887  0  0.963017  0  0  0.120421  0  1.026463  0  0  0.1242  0  1.024379  0  0.098906  0  0.106053  0.117652  0  1.028134  0
H  H31  1  0.32043985  0.34744564  0.30681782  1  0  0.112623  0  0.963916  0  0  0.120164  0  1.027367  0  0  0.12389  0  1.025357  0  0.113159  0  0.105956  0.117441  0  1.029008  0
H  H32  1  0.16638088  0.74969805  0.89471582  1  0  0.103805  0  0.949672  0  0  0.112952  0  1.013689  0  0  0.115301  0  1.012282  0  0.109592  0  0.104134  0.11117  0  1.014788  0
H  H33  1  0.85424094  0.77093190  0.60538567  1  0  0.103359  0  0.95004  0  0  0.112769  0  1.013872  0  0  0.115105  0  1.012466  0  0.126578  0  0.104721  0.11102  0  1.014905  0
H  H34  1  0.83361519  0.25030498  0.10528545  1  0  0.103771  0  0.94965  0  0  0.112929  0  1.013667  0  0  0.115278  0  1.012261  0  0.109679  0  0.104124  0.111147  0  1.014764  0
H  H35  1  0.14575352  0.22906989  0.39461429  1  0  0.103363  0  0.95002  0  0  0.112777  0  1.013859  0  0  0.115108  0  1.012448  0  0.126246  0  0.104724  0.111027  0  1.014894  0
C  C36  1  0.52996681  0.94567276  0.59254125  1  0  0.137471  0  3.709035  0  0  0.107211  0  3.963232  0  0  0.114165  0  3.981463  0  0.496476  0  0.055379  0.102706  0  3.950723  0
C  C37  1  0.35331575  0.43744497  0.90748676  1  0  0.134946  0  3.708147  0  0  0.104725  0  3.962602  0  0  0.111687  0  3.980834  0  0.541168  0  0.054088  0.100212  0  3.9501  0
C  C38  1  0.47003223  0.05432528  0.40745874  1  0  0.137456  0  3.709034  0  0  0.107158  0  3.963232  0  0  0.114111  0  3.981461  0  0.496463  0  0.055325  0.102653  0  3.950722  0
C  C39  1  0.64668725  0.56255432  0.09251198  1  0  0.134987  0  3.708077  0  0  0.104782  0  3.962534  0  0  0.111743  0  3.980769  0  0.541382  0  0.054111  0.100268  0  3.950032  0
C  C40  1  0.64909918  0.09909670  0.63596657  1  0  -0.109965  0  3.724653  0  0  -0.123748  0  3.980151  0  0  -0.129542  0  4.000229  0  0.011785  0  -0.080481  -0.119959  0  3.966645  0
C  C41  1  0.46332952  0.51310790  0.86406280  1  0  -0.11038  0  3.722711  0  0  -0.12365  0  3.978635  0  0  -0.129473  0  3.998709  0  0.024617  0  -0.08165  -0.119876  0  3.965108  0
C  C42  1  0.35090222  0.90090134  0.36403415  1  0  -0.109977  0  3.724742  0  0  -0.123724  0  3.980216  0  0  -0.129503  0  4.000306  0  0.011727  0  -0.080478  -0.119935  0  3.966709  0
C  C43  1  0.53667113  0.48689139  0.13593631  1  0  -0.110408  0  3.722654  0  0  -0.123697  0  3.978604  0  0  -0.12952  0  3.998678  0  0.024779  0  -0.081657  -0.119923  0  3.965078  0
C  C44  1  0.65332831  0.14435087  0.71306743  1  0  -0.036884  0  3.657437  0  0  -0.062811  0  3.905048  0  0  -0.060628  0  3.922754  0  -0.088367  0  -0.058804  -0.063981  0  3.89285  0
C  C45  1  0.43124169  0.44001509  0.78697994  1  0  -0.035784  0  3.658641  0  0  -0.061384  0  3.906403  0  0  -0.059281  0  3.924134  0  -0.059138  0  -0.058002  -0.062498  0  3.894212  0
C  C46  1  0.34667029  0.85564591  0.28693243  1  0  -0.036934  0  3.657347  0  0  -0.062855  0  3.904944  0  0  -0.060674  0  3.922651  0  -0.08838  0  -0.058801  -0.064024  0  3.892744  0
C  C47  1  0.56875940  0.55998544  0.21301931  1  0  -0.035788  0  3.658654  0  0  -0.061381  0  3.906409  0  0  -0.059277  0  3.924139  0  -0.0596  0  -0.058009  -0.062495  0  3.894218  0
C  C48  1  0.53866712  0.03796779  0.74616996  1  0  0.025016  0  3.790742  0  0  0.042916  0  4.022297  0  0  0.041012  0  4.046817  0  0.013167  0  0.000871  0.04406  0  4.005715  0
C  C49  1  0.29143755  0.29220612  0.75386118  1  0  0.026846  0  3.793145  0  0  0.043641  0  4.025056  0  0  0.041688  0  4.04967  0  -0.057136  0  -0.000577  0.044808  0  4.008424  0
C  C50  1  0.46133162  0.96203275  0.25383021  1  0  0.02497  0  3.79065  0  0  0.042857  0  4.022239  0  0  0.040953  0  4.046761  0  0.013209  0  0.000839  0.044  0  4.005658  0
C  C51  1  0.70856310  0.70779317  0.24613793  1  0  0.026891  0  3.7931  0  0  0.043705  0  4.024998  0  0  0.041752  0  4.049611  0  -0.057144  0  -0.000536  0.044872  0  4.008367  0
C  C52  1  0.42042574  0.88725280  0.69712348  1  0  0.128671  0  3.752702  0  0  0.120554  0  3.992288  0  0  0.124344  0  4.014466  0  0.473894  0  0.114814  0.118007  0  3.977289  0
C  C53  1  0.18982850  0.22307669  0.80292308  1  0  0.12831  0  3.754358  0  0  0.12273  0  3.99122  0  0  0.126559  0  4.013391  0  0.466158  0  0.115759  0.120155  0  3.976229  0
C  C54  1  0.57957181  0.11274774  0.30287660  1  0  0.128698  0  3.752731  0  0  0.120568  0  3.992355  0  0  0.124358  0  4.014534  0  0.47414  0  0.114836  0.118021  0  3.977356  0
C  C55  1  0.81017141  0.77692385  0.19707608  1  0  0.128334  0  3.754316  0  0  0.12271  0  3.991248  0  0  0.12654  0  4.01342  0  0.466145  0  0.115716  0.120135  0  3.976256  0
C  C56  1  0.53681781  0.07801293  0.82553314  1  0  -0.098906  0  3.72353  0  0  -0.123448  0  3.979425  0  0  -0.127617  0  4.002635  0  -0.020182  0  -0.087245  -0.120519  0  3.963752  0
C  C57  1  0.25173264  0.21088767  0.67448518  1  0  -0.098827  0  3.723294  0  0  -0.122833  0  3.979048  0  0  -0.126966  0  4.002299  0  -0.032461  0  -0.085725  -0.119956  0  3.963329  0
C  C58  1  0.46318210  0.92198761  0.17446656  1  0  -0.098923  0  3.723456  0  0  -0.123452  0  3.979351  0  0  -0.12762  0  4.00256  0  -0.020141  0  -0.087251  -0.120524  0  3.963678  0
C  C59  1  0.74826844  0.78911286  0.32551406  1  0  -0.098876  0  3.723348  0  0  -0.122868  0  3.979099  0  0  -0.127001  0  4.002349  0  -0.032392  0  -0.085768  -0.119993  0  3.963379  0
C  C60  1  0.42018713  0.97476205  0.85474059  1  0  -0.089441  0  3.726456  0  0  -0.113197  0  3.981947  0  0  -0.116148  0  4.004236  0  -0.025668  0  -0.087298  -0.111097  0  3.966849  0
C  C61  1  0.11923189  0.06488842  0.64531759  1  0  -0.089189  0  3.724663  0  0  -0.112682  0  3.980351  0  0  -0.115626  0  4.002702  0  -0.00988  0  -0.087772  -0.110591  0  3.965244  0
C  C62  1  0.57981129  0.02524099  0.14526031  1  0  -0.089369  0  3.726319  0  0  -0.113117  0  3.981817  0  0  -0.116068  0  4.004104  0  -0.025652  0  -0.087273  -0.111016  0  3.966721  0
C  C63  1  0.88076759  0.93511087  0.35468254  1  0  -0.089224  0  3.724713  0  0  -0.112696  0  3.980388  0  0  -0.115644  0  4.002747  0  -0.010016  0  -0.087779  -0.110603  0  3.965276  0
C  C64  1  0.29688192  0.82360629  0.80699584  1  0  0.023041  0  3.785867  0  0  0.04076  0  4.015675  0  0  0.038063  0  4.040316  0  -0.010533  0  -0.000802  0.042397  0  3.999047  0
C  C65  1  0.01594487  0.98936360  0.69307268  1  0  0.023834  0  3.784764  0  0  0.040763  0  4.016717  0  0  0.03804  0  4.041408  0  0.047487  0  0.000114  0.042415  0  4.000061  0
C  C66  1  0.70311607  0.17639550  0.19300548  1  0  0.023021  0  3.785854  0  0  0.040719  0  4.015732  0  0  0.038021  0  4.040374  0  -0.01107  0  -0.000808  0.042354  0  3.999103  0
C  C67  1  0.98405579  0.01063568  0.30692643  1  0  0.023796  0  3.784755  0  0  0.040717  0  4.016716  0  0  0.037992  0  4.041408  0  0.047569  0  9.4e-05  0.042369  0  4.000061  0
C  C68  1  0.29721171  0.77739035  0.72825718  1  0  0.1304  0  3.744588  0  0  0.124135  0  3.98072  0  0  0.128821  0  4.00272  0  0.463612  0  0.116948  0.121006  0  3.96585  0
C  C69  1  0.04864057  0.06870796  0.77179920  1  0  0.130348  0  3.745305  0  0  0.122576  0  3.98301  0  0  0.127258  0  4.005012  0  0.483185  0  0.116527  0.119451  0  3.968131  0
C  C70  1  0.70278423  0.22260894  0.27174323  1  0  0.130404  0  3.744579  0  0  0.124138  0  3.98073  0  0  0.128824  0  4.002734  0  0.463771  0  0.116918  0.12101  0  3.96586  0
C  C71  1  0.95136052  0.93129258  0.22820059  1  0  0.130289  0  3.745339  0  0  0.122533  0  3.983053  0  0  0.127213  0  4.005056  0  0.483178  0  0.116493  0.119408  0  3.968173  0
C  C72  1  0.06748292  0.53444054  0.70909459  1  0  0.144447  0  3.70848  0  0  0.111747  0  3.964666  0  0  0.120232  0  3.982318  0  0.470829  0  0.055626  0.106344  0  3.952436  0
C  C73  1  0.82489303  0.85826606  0.79100556  1  0  0.142939  0  3.708625  0  0  0.110159  0  3.964681  0  0  0.118677  0  3.982347  0  0.557602  0  0.054142  0.104754  0  3.952463  0
C  C74  1  0.93251699  0.46555999  0.29090676  1  0  0.144493  0  3.7084  0  0  0.111797  0  3.964565  0  0  0.120283  0  3.982217  0  0.47081  0  0.05567  0.106391  0  3.952337  0
C  C75  1  0.17510806  0.14173448  0.20899534  1  0  0.14299  0  3.70859  0  0  0.110212  0  3.964652  0  0  0.118728  0  3.98232  0  0.557548  0  0.054152  0.104807  0  3.952434  0
C  C76  1  0.05668313  0.57123145  0.78592005  1  0  -0.119316  0  3.723301  0  0  -0.133496  0  3.980611  0  0  -0.140839  0  4.002174  0  -0.01517  0  -0.085482  -0.128722  0  3.966067  0
C  C77  1  0.78471529  0.77034158  0.71420170  1  0  -0.117962  0  3.724873  0  0  -0.132276  0  3.982369  0  0  -0.13953  0  4.003894  0  -0.060812  0  -0.086078  -0.12757  0  3.967827  0
C  C78  1  0.94331529  0.42877159  0.21408140  1  0  -0.119409  0  3.723024  0  0  -0.13357  0  3.980352  0  0  -0.140902  0  4.00192  0  -0.015149  0  -0.085476  -0.128796  0  3.96581  0
C  C79  1  0.21528270  0.22966020  0.28579907  1  0  -0.118006  0  3.724879  0  0  -0.132327  0  3.982398  0  0  -0.139582  0  4.003922  0  -0.060801  0  -0.086118  -0.127621  0  3.967856  0
C  C80  1  0.17179259  0.71582120  0.83487767  1  0  -0.031463  0  3.662135  0  0  -0.055978  0  3.908693  0  0  -0.053432  0  3.927483  0  -0.04374  0  -0.059845  -0.057367  0  3.895843  0
C  C81  1  0.88023989  0.83631183  0.66521967  1  0  -0.031191  0  3.663806  0  0  -0.05572  0  3.910947  0  0  -0.05315  0  3.929731  0  -0.102831  0  -0.059965  -0.057125  0  3.898106  0
C  C82  1  0.82820422  0.28418058  0.16512301  1  0  -0.031345  0  3.661943  0  0  -0.055881  0  3.908539  0  0  -0.053334  0  3.927326  0  -0.043748  0  -0.059815  -0.057269  0  3.895689  0
C  C83  1  0.11975884  0.16368871  0.33478050  1  0  -0.031137  0  3.663809  0  0  -0.055668  0  3.91097  0  0  -0.053086  0  3.929745  0  -0.102501  0  -0.059925  -0.057072  0  3.898129  0
C  C84  1  0.47269899  0.52446021  0.46136199  1  0  0.518728  0  3.931  0  0  0.477783  0  4.221682  0  0  0.507282  0  4.215891  0  1.590231  0  0.19094  0.457761  0  4.224836  0
C  C85  1  0.06312233  0.51146202  0.03872318  1  0  0.52016  0  3.928586  0  0  0.479331  0  4.218778  0  0  0.50881  0  4.21305  0  1.586914  0  0.191449  0.459302  0  4.221938  0
C  C86  1  0.52729782  0.47554158  0.53863704  1  0  0.518626  0  3.930972  0  0  0.477723  0  4.221588  0  0  0.507221  0  4.215801  0  1.573985  0  0.190982  0.457701  0  4.224742  0
C  C87  1  0.93687863  0.48853477  0.96127850  1  0  0.520195  0  3.928473  0  0  0.479394  0  4.218636  0  0  0.508872  0  4.212906  0  1.571271  0  0.191485  0.459363  0  4.221799  0
N  N88  1  0.41894069  0.84454873  0.62191015  1  0  -0.343066  0  3.276173  0  0  -0.27718  0  3.540947  0  0  -0.295333  0  3.561441  0  -1.227262  0  -0.325851  -0.264776  0  3.52682  0
N  N89  1  0.22265333  0.29692739  0.87814632  1  0  -0.342349  0  3.27513  0  0  -0.27688  0  3.539055  0  0  -0.295056  0  3.559491  0  -1.248858  0  -0.324673  -0.264457  0  3.524966  0
N  N90  1  0.58105599  0.15544930  0.37809021  1  0  -0.343084  0  3.276159  0  0  -0.277177  0  3.540933  0  0  -0.295327  0  3.561425  0  -1.227244  0  -0.325832  -0.264774  0  3.526809  0
N  N91  1  0.77734850  0.70307189  0.12185288  1  0  -0.342338  0  3.275175  0  0  -0.276871  0  3.539123  0  0  -0.295047  0  3.559561  0  -1.248856  0  -0.32463  -0.264448  0  3.525034  0
N  N92  1  0.18372553  0.63423762  0.68141114  1  0  -0.3481  0  3.26637  0  0  -0.278151  0  3.531185  0  0  -0.297739  0  3.550433  0  -1.203873  0  -0.327818  -0.264792  0  3.517774  0
N  N93  1  0.95237669  0.00228497  0.81868100  1  0  -0.34925  0  3.265305  0  0  -0.278791  0  3.530196  0  0  -0.29842  0  3.549515  0  -1.238304  0  -0.32676  -0.265409  0  3.516751  0
N  N94  1  0.81627320  0.36576292  0.31859013  1  0  -0.348091  0  3.266302  0  0  -0.278135  0  3.531124  0  0  -0.297716  0  3.550356  0  -1.203885  0  -0.32783  -0.264773  0  3.517703  0
N  N95  1  0.04762676  0.99771557  0.18131952  1  0  -0.349248  0  3.265291  0  0  -0.278782  0  3.530172  0  0  -0.298408  0  3.549488  0  -1.238332  0  -0.326741  -0.265401  0  3.516728  0
Cl  Cl96  1  0.97933802  0.28732727  0.51723727  1  0  -0.560164  0  0.963906  0  0  -0.494436  0  1.241034  0  0  -0.512248  0  1.218001  0  -0.640007  0  -0.286338  -0.481597  0  1.256608  0
Cl  Cl97  1  0.76975978  0.96140242  0.98272112  1  0  -0.56099  0  0.962728  0  0  -0.495113  0  1.240102  0  0  -0.513122  0  1.217098  0  -0.639581  0  -0.285994  -0.482185  0  1.255763  0
Cl  Cl98  1  0.02066232  0.71267452  0.48276257  1  0  -0.560166  0  0.963882  0  0  -0.494438  0  1.241008  0  0  -0.51225  0  1.217974  0  -0.639989  0  -0.286343  -0.481597  0  1.256581  0
Cl  Cl99  1  0.23024001  0.03859437  0.01727828  1  0  -0.560965  0  0.962723  0  0  -0.49509  0  1.240099  0  0  -0.513099  0  1.217097  0  -0.639566  0  -0.285981  -0.482162  0  1.255763  0
O  O100  1  0.34383878  0.56729435  0.45252840  1  0  -0.591559  0  2.046425  0  0  -0.535117  0  2.295224  0  0  -0.560912  0  2.286302  0  -1.156539  0  -0.330979  -0.517028  0  2.300661  0
O  O101  1  0.11434171  0.39183060  0.04775753  1  0  -0.593674  0  2.044489  0  0  -0.537283  0  2.293346  0  0  -0.563031  0  2.284219  0  -1.158572  0  -0.331692  -0.519211  0  2.298926  0
O  O102  1  0.65617068  0.43270994  0.54747178  1  0  -0.591556  0  2.046158  0  0  -0.535134  0  2.294951  0  0  -0.560934  0  2.286032  0  -1.156418  0  -0.331032  -0.517043  0  2.300389  0
O  O103  1  0.88566086  0.60816744  0.95224327  1  0  -0.593693  0  2.044365  0  0  -0.537301  0  2.293202  0  0  -0.563048  0  2.284075  0  -1.158587  0  -0.331678  -0.519228  0  2.298783  0
O  O104  1  0.56024730  0.51753401  0.41191691  1  0  -0.586845  0  2.070101  0  0  -0.532651  0  2.31976  0  0  -0.557197  0  2.310081  0  -1.180816  0  -0.322092  -0.51541  0  2.325786  0
O  O105  1  0.10610851  0.64820883  0.08808276  1  0  -0.58634  0  2.067724  0  0  -0.532254  0  2.317349  0  0  -0.556871  0  2.307753  0  -1.177295  0  -0.320858  -0.514901  0  2.323224  0
O  O106  1  0.43975614  0.48246653  0.58807977  1  0  -0.586753  0  2.070257  0  0  -0.532594  0  2.319934  0  0  -0.557136  0  2.310254  0  -1.18103  0  -0.322091  -0.515358  0  2.325965  0
O  O107  1  0.89389363  0.35178796  0.91191956  1  0  -0.586353  0  2.067721  0  0  -0.532286  0  2.317338  0  0  -0.556905  0  2.30775  0  -1.177288  0  -0.320922  -0.514931  0  2.323217  0
