# generated using pymatgen
data_LaH17C18N2O9
_symmetry_space_group_name_H-M   'P 1'
_cell_length_a   10.17497822
_cell_length_b   10.16696794
_cell_length_c   10.71648363
_cell_angle_alpha   77.49544509
_cell_angle_beta   89.09147919
_cell_angle_gamma   65.89663373
_symmetry_Int_Tables_number   1
_chemical_formula_structural   LaH17C18N2O9
_chemical_formula_sum   'La2 H34 C36 N4 O18'
_cell_volume   984.66147874
_cell_formula_units_Z   2
loop_
 _symmetry_equiv_pos_site_id
 _symmetry_equiv_pos_as_xyz
  1  'x, y, z'
loop_
 _atom_site_type_symbol
 _atom_site_label
 _atom_site_symmetry_multiplicity
 _atom_site_fract_x
 _atom_site_fract_y
 _atom_site_fract_z
 _atom_site_occupancy
 _atom_site_hle17_bader_spin_density
 _atom_site_hle17_ddec_charge
 _atom_site_hle17_ddec_spin_density
 _atom_site_hle17_ddec_sum_bond_order
 _atom_site_hle17_magmom
 _atom_site_hse06_10hf_bader_spin_density
 _atom_site_hse06_10hf_ddec_charge
 _atom_site_hse06_10hf_ddec_spin_density
 _atom_site_hse06_10hf_ddec_sum_bond_order
 _atom_site_hse06_10hf_magmom
 _atom_site_hse06_bader_spin_density
 _atom_site_hse06_ddec_charge
 _atom_site_hse06_ddec_spin_density
 _atom_site_hse06_ddec_sum_bond_order
 _atom_site_hse06_magmom
 _atom_site_pbe_bader_spin_density
 _atom_site_pbe_cm5_charge
 _atom_site_pbe_ddec_charge
 _atom_site_pbe_ddec_spin_density
 _atom_site_pbe_ddec_sum_bond_order
 _atom_site_pbe_magmom
La  La0  1  0.97041166  0.79423506  0.99585071  1  0  2.117199  0  1.757755  0  0  1.989971  0  2.287967  0  0  2.096732  0  2.181724  0  0  1.393196  1.908702  0  2.36433  0
La  La1  1  0.02959500  0.20576201  0.00414619  1  0  2.117302  0  1.75767  0  0  1.990086  0  2.287841  0  0  2.096848  0  2.181604  0  0  1.393242  1.908811  0  2.364204  0
H  H2  1  0.47408307  0.15524852  0.03135176  1  0  0.111556  0  0.941649  0  0  0.118782  0  1.008364  0  0  0.123856  0  1.003116  0  0  0.109154  0.114751  0  1.01278  0
H  H3  1  0.52591726  0.84474957  0.96864687  1  0  0.111555  0  0.941665  0  0  0.118781  0  1.008377  0  0  0.123854  0  1.003129  0  0  0.109156  0.114735  0  1.012806  0
H  H4  1  0.33397517  0.57378351  0.13945561  1  0  0.127871  0  0.98505  0  0  0.131863  0  1.054898  0  0  0.135798  0  1.0524  0  0  0.113476  0.128933  0  1.05695  0
H  H5  1  0.66602263  0.42621122  0.86054188  1  0  0.127892  0  0.984991  0  0  0.131859  0  1.054877  0  0  0.135792  0  1.052379  0  0  0.11348  0.128935  0  1.056914  0
H  H6  1  0.77998489  0.26626316  0.21192973  1  0  0.115661  0  0.991366  0  0  0.120204  0  1.063337  0  0  0.124026  0  1.061222  0  0  0.113798  0.117416  0  1.065008  0
H  H7  1  0.22001646  0.73373716  0.78807218  1  0  0.115664  0  0.991318  0  0  0.120198  0  1.0633  0  0  0.124021  0  1.061182  0  0  0.113809  0.117422  0  1.064962  0
H  H8  1  0.55581746  0.31284847  0.42818498  1  0  0.105788  0  0.951036  0  0  0.11934  0  1.005613  0  0  0.122363  0  1.004903  0  0  0.10375  0.117447  0  1.005754  0
H  H9  1  0.44418240  0.68715072  0.57181531  1  0  0.105741  0  0.951098  0  0  0.119338  0  1.005623  0  0  0.122364  0  1.004918  0  0  0.103733  0.117448  0  1.005766  0
H  H10  1  0.68485861  0.21610450  0.64612998  1  0  0.100822  0  0.972255  0  0  0.110803  0  1.034694  0  0  0.115542  0  1.030226  0  0  0.099792  0.107362  0  1.038175  0
H  H11  1  0.31514407  0.78389028  0.35387210  1  0  0.100851  0  0.972279  0  0  0.110834  0  1.034708  0  0  0.11558  0  1.030231  0  0  0.099809  0.107391  0  1.038183  0
H  H12  1  0.89898970  0.50911926  0.54626350  1  0  0.109742  0  0.956254  0  0  0.120961  0  1.016592  0  0  0.124806  0  1.014135  0  0  0.104255  0.118369  0  1.017995  0
H  H13  1  0.10100343  0.49088429  0.45373786  1  0  0.10975  0  0.956205  0  0  0.12098  0  1.016531  0  0  0.124814  0  1.014087  0  0  0.104261  0.118386  0  1.017934  0
H  H14  1  0.71697302  0.65914893  0.21977226  1  0  0.314483  0  0.90305  0  0  0.300382  0  0.96708  0  0  0.306871  0  0.961801  0  0  0.300908  0.295934  0  0.970608  0
H  H15  1  0.28302637  0.34085135  0.78023342  1  0  0.314483  0  0.903001  0  0  0.300361  0  0.967072  0  0  0.306852  0  0.961792  0  0  0.300878  0.295911  0  0.970602  0
H  H16  1  0.85972154  0.64424811  0.30808594  1  0  0.322688  0  0.943742  0  0  0.309573  0  1.00459  0  0  0.316722  0  0.998658  0  0  0.293918  0.30438  0  1.008955  0
H  H17  1  0.14027643  0.35575329  0.69191206  1  0  0.322697  0  0.943752  0  0  0.309587  0  1.004583  0  0  0.316736  0  0.99865  0  0  0.29393  0.304395  0  1.008943  0
H  H18  1  0.67861896  0.02548892  0.87318035  1  0  0.423384  0  0.829796  0  0  0.407385  0  0.883605  0  0  0.415973  0  0.874572  0  0  0.322412  0.400923  0  0.890649  0
H  H19  1  0.32138718  0.97450703  0.12681678  1  0  0.423391  0  0.82975  0  0  0.4074  0  0.883549  0  0  0.415991  0  0.874509  0  0  0.322438  0.400936  0  0.890597  0
H  H20  1  0.78446633  0.10118552  0.82337635  1  0  0.430437  0  0.879245  0  0  0.399025  0  0.944229  0  0  0.41075  0  0.927417  0  0  0.295024  0.39056  0  0.956326  0
H  H21  1  0.21553595  0.89881260  0.17662225  1  0  0.430361  0  0.879337  0  0  0.398987  0  0.944267  0  0  0.41071  0  0.927456  0  0  0.295012  0.39052  0  0.956365  0
H  H22  1  0.04569546  0.83666747  0.58985459  1  0  0.025375  0  0.935509  0  0  0.033806  0  1.011285  0  0  0.034337  0  1.008175  0  0  0.117993  0.032824  0  1.014462  0
H  H23  1  0.95429768  0.16333610  0.41014117  1  0  0.025384  0  0.935584  0  0  0.033809  0  1.011361  0  0  0.034341  0  1.00825  0  0  0.118008  0.032826  0  1.014542  0
H  H24  1  0.76951112  0.73423349  0.73664875  1  0  0.115236  0  0.962432  0  0  0.131437  0  1.027948  0  0  0.132423  0  1.028347  0  0  0.117118  0.130593  0  1.027837  0
H  H25  1  0.23048638  0.26576900  0.26335463  1  0  0.115224  0  0.962467  0  0  0.131424  0  1.027993  0  0  0.132408  0  1.02839  0  0  0.117135  0.130578  0  1.027873  0
H  H26  1  0.69339598  0.74737823  0.58222472  1  0  0.098569  0  0.940714  0  0  0.119894  0  1.003333  0  0  0.119975  0  1.003997  0  0  0.104836  0.119699  0  1.002925  0
H  H27  1  0.30660158  0.25262651  0.41777355  1  0  0.098545  0  0.940746  0  0  0.119879  0  1.003358  0  0  0.119958  0  1.004022  0  0  0.104833  0.119679  0  1.002954  0
H  H28  1  0.63680904  0.90728735  0.64959583  1  0  0.099669  0  0.919001  0  0  0.123142  0  0.975619  0  0  0.123618  0  0.975426  0  0  0.106009  0.122617  0  0.975976  0
H  H29  1  0.36318612  0.09271847  0.35040131  1  0  0.099673  0  0.918911  0  0  0.12313  0  0.97556  0  0  0.123608  0  0.975363  0  0  0.106011  0.122598  0  0.975918  0
H  H30  1  0.73297920  0.02608352  0.43288114  1  0  0.094559  0  0.934691  0  0  0.114649  0  0.997971  0  0  0.114665  0  0.999006  0  0  0.099964  0.114509  0  0.997498  0
H  H31  1  0.26701440  0.97391893  0.56711763  1  0  0.094589  0  0.934726  0  0  0.114656  0  0.998034  0  0  0.114673  0  0.999068  0  0  0.099978  0.114517  0  0.997559  0
H  H32  1  0.78487838  0.85211303  0.38967488  1  0  0.114151  0  0.951112  0  0  0.1296  0  1.018713  0  0  0.131352  0  1.01811  0  0  0.107047  0.127976  0  1.019556  0
H  H33  1  0.21511527  0.14789165  0.61032345  1  0  0.114095  0  0.951159  0  0  0.129548  0  1.018762  0  0  0.131301  0  1.018158  0  0  0.107011  0.127922  0  1.01961  0
H  H34  1  0.91775364  0.91997056  0.41025046  1  0  0.101585  0  0.941197  0  0  0.119791  0  1.008203  0  0  0.120205  0  1.00837  0  0  0.108135  0.119241  0  1.008523  0
H  H35  1  0.08224243  0.08003303  0.58975085  1  0  0.101542  0  0.941236  0  0  0.119756  0  1.00823  0  0  0.120167  0  1.008398  0  0  0.108151  0.11921  0  1.008547  0
C  C36  1  0.76182547  0.05639035  0.10378040  1  0  0.65464  0  3.918018  0  0  0.612928  0  4.203954  0  0  0.648026  0  4.198811  0  0  0.210619  0.589014  0  4.205978  0
C  C37  1  0.23817733  0.94360888  0.89622171  1  0  0.654576  0  3.917933  0  0  0.612944  0  4.203759  0  0  0.648041  0  4.198613  0  0  0.210635  0.589012  0  4.205808  0
C  C38  1  0.64025341  0.19571429  0.11962583  1  0  -0.051202  0  3.775803  0  0  -0.023313  0  4.007433  0  0  -0.030965  0  4.029675  0  0  -0.013835  -0.01843  0  3.992686  0
C  C39  1  0.35975042  0.80428718  0.88037582  1  0  -0.051091  0  3.775667  0  0  -0.023201  0  4.007224  0  0  -0.030853  0  4.029469  0  0  -0.013835  -0.018308  0  3.992471  0
C  C40  1  0.49845910  0.23159016  0.07401810  1  0  -0.078562  0  3.679548  0  0  -0.11938  0  3.931081  0  0  -0.116397  0  3.947189  0  0  -0.079513  -0.121062  0  3.920615  0
C  C41  1  0.50154513  0.76840798  0.92598142  1  0  -0.078594  0  3.679582  0  0  -0.119402  0  3.931119  0  0  -0.116432  0  3.947217  0  0  -0.079491  -0.121061  0  3.920652  0
C  C42  1  0.38847037  0.36870622  0.07932475  1  0  -0.061083  0  3.766474  0  0  -0.035688  0  4.001376  0  0  -0.043546  0  4.022975  0  0  -0.015062  -0.031045  0  3.987564  0
C  C43  1  0.61153433  0.63129082  0.92067404  1  0  -0.061102  0  3.766701  0  0  -0.035751  0  4.001668  0  0  -0.043568  0  4.023207  0  0  -0.015085  -0.031118  0  3.987872  0
C  C44  1  0.23650674  0.41398149  0.02632336  1  0  0.711247  0  3.859927  0  0  0.665307  0  4.152664  0  0  0.703574  0  4.140899  0  0  0.242991  0.638849  0  4.159977  0
C  C45  1  0.76349606  0.58601775  0.97367408  1  0  0.711244  0  3.860114  0  0  0.665329  0  4.152822  0  0  0.703584  0  4.141057  0  0  0.242983  0.638857  0  4.160165  0
C  C46  1  0.41834772  0.46637248  0.13601658  1  0  -0.155172  0  3.68613  0  0  -0.193034  0  3.939951  0  0  -0.193911  0  3.958741  0  0  -0.084089  -0.19265  0  3.928258  0
C  C47  1  0.58165554  0.53362565  0.86398388  1  0  -0.155142  0  3.686095  0  0  -0.192995  0  3.939962  0  0  -0.193878  0  3.958735  0  0  -0.084117  -0.192605  0  3.928277  0
C  C48  1  0.55737728  0.42501844  0.18760548  1  0  0.266067  0  3.797684  0  0  0.261351  0  4.061652  0  0  0.268211  0  4.078454  0  0  0.084128  0.256169  0  4.050697  0
C  C49  1  0.44262402  0.57497966  0.81239595  1  0  0.265916  0  3.797629  0  0  0.261215  0  4.061581  0  0  0.268069  0  4.078391  0  0  0.084133  0.256045  0  4.050618  0
C  C50  1  0.67000093  0.29264765  0.17698208  1  0  -0.173924  0  3.71927  0  0  -0.210968  0  3.973536  0  0  -0.212416  0  3.992407  0  0  -0.083009  -0.209807  0  3.961413  0
C  C51  1  0.33000238  0.70735270  0.82302073  1  0  -0.173953  0  3.719186  0  0  -0.211  0  3.973442  0  0  -0.212448  0  3.992314  0  0  -0.083047  -0.209849  0  3.961316  0
C  C52  1  0.65528076  0.46331927  0.36660029  1  0  0.174702  0  3.750275  0  0  0.16618  0  4.006867  0  0  0.17305  0  4.023589  0  0  0.079348  0.161441  0  3.995628  0
C  C53  1  0.34471674  0.53668322  0.63340216  1  0  0.174784  0  3.750272  0  0  0.166227  0  4.006954  0  0  0.173092  0  4.023683  0  0  0.079388  0.161475  0  3.995742  0
C  C54  1  0.63248082  0.35378592  0.45491629  1  0  -0.183721  0  3.831783  0  0  -0.205193  0  4.092543  0  0  -0.209139  0  4.113557  0  0  -0.109218  -0.202746  0  4.078407  0
C  C55  1  0.36751518  0.64621544  0.54508641  1  0  -0.183748  0  3.832112  0  0  -0.205235  0  4.092858  0  0  -0.209187  0  4.113885  0  0  -0.10923  -0.20279  0  4.078725  0
C  C56  1  0.70493487  0.29978349  0.57671301  1  0  -0.091526  0  3.782516  0  0  -0.12219  0  4.047001  0  0  -0.121854  0  4.065092  0  0  -0.109067  -0.122039  0  4.035034  0
C  C57  1  0.29506453  0.70021681  0.42328987  1  0  -0.091564  0  3.782646  0  0  -0.12223  0  4.047141  0  0  -0.121895  0  4.065228  0  0  -0.109097  -0.122067  0  4.035155  0
C  C58  1  0.80243340  0.35527357  0.60859377  1  0  -0.08339  0  3.843695  0  0  -0.067664  0  4.09481  0  0  -0.073814  0  4.116847  0  0  -0.037486  -0.063432  0  4.079133  0
C  C59  1  0.19757268  0.64472015  0.39140568  1  0  -0.083303  0  3.843633  0  0  -0.067591  0  4.09474  0  0  -0.073742  0  4.116777  0  0  -0.037415  -0.063361  0  4.079056  0
C  C60  1  0.87972409  0.30164826  0.73808821  1  0  0.64669  0  3.897782  0  0  0.599639  0  4.19042  0  0  0.633928  0  4.184431  0  0  0.206401  0.576477  0  4.192926  0
C  C61  1  0.12027859  0.69834653  0.26191200  1  0  0.64644  0  3.897895  0  0  0.599429  0  4.190502  0  0  0.633718  0  4.184515  0  0  0.206279  0.576274  0  4.192995  0
C  C62  1  0.82428136  0.46607267  0.51903764  1  0  -0.191263  0  3.714911  0  0  -0.220253  0  3.971041  0  0  -0.222477  0  3.989352  0  0  -0.103715  -0.217534  0  3.957368  0
C  C63  1  0.17571753  0.53392652  0.48096079  1  0  -0.191295  0  3.714874  0  0  -0.220265  0  3.971018  0  0  -0.222478  0  3.989336  0  0  -0.103725  -0.217543  0  3.957345  0
C  C64  1  0.74941399  0.52490243  0.39688892  1  0  0.217414  0  3.87873  0  0  0.209047  0  4.134908  0  0  0.216034  0  4.155278  0  0  0.088636  0.203934  0  4.120964  0
C  C65  1  0.25058495  0.47509898  0.60311187  1  0  0.217407  0  3.878658  0  0  0.208982  0  4.134936  0  0  0.21597  0  4.155304  0  0  0.088589  0.203872  0  4.120998  0
C  C66  1  0.96640285  0.80875414  0.64891084  1  0  0.420602  0  3.808481  0  0  0.347394  0  4.096948  0  0  0.377136  0  4.09818  0  0  0.188741  0.327227  0  4.09571  0
C  C67  1  0.03359558  0.19124614  0.35109111  1  0  0.420632  0  3.808442  0  0  0.347426  0  4.096882  0  0  0.377167  0  4.098109  0  0  0.188744  0.327255  0  4.095646  0
C  C68  1  0.72877161  0.80501334  0.64090956  1  0  -0.167427  0  3.646889  0  0  -0.267698  0  3.891855  0  0  -0.263709  0  3.901987  0  0  -0.129638  -0.269914  0  3.884869  0
C  C69  1  0.27122492  0.19498914  0.35909197  1  0  -0.167437  0  3.646968  0  0  -0.267732  0  3.891965  0  0  -0.263738  0  3.90209  0  0  -0.129677  -0.269942  0  3.88497  0
C  C70  1  0.81853980  0.91319449  0.44585416  1  0  -0.177055  0  3.65195  0  0  -0.277192  0  3.901779  0  0  -0.274096  0  3.913032  0  0  -0.132102  -0.279094  0  3.89477  0
C  C71  1  0.18145725  0.08680911  0.55414714  1  0  -0.176975  0  3.652126  0  0  -0.277116  0  3.901912  0  0  -0.27402  0  3.913165  0  0  -0.132093  -0.279021  0  3.894909  0
N  N72  1  0.76067944  0.64022164  0.31002413  1  0  -0.651058  0  3.104948  0  0  -0.62439  0  3.337877  0  0  -0.642535  0  3.336663  0  0  -0.599793  -0.611381  0  3.338783  0
N  N73  1  0.23931617  0.35978305  0.68997883  1  0  -0.651034  0  3.104879  0  0  -0.624335  0  3.337854  0  0  -0.642483  0  3.336639  0  0  -0.59974  -0.611324  0  3.338756  0
N  N74  1  0.84445559  0.83815513  0.58109113  1  0  -0.082526  0  3.493905  0  0  0.02174  0  3.726597  0  0  0.001034  0  3.751617  0  0  -0.275223  0.035462  0  3.709353  0
N  N75  1  0.15554341  0.16184850  0.41891014  1  0  -0.082541  0  3.493968  0  0  0.021781  0  3.726595  0  0  0.00108  0  3.75161  0  0  -0.275253  0.035499  0  3.709353  0
O  O76  1  0.89022691  0.05203773  0.09672814  1  0  -0.749212  0  2.016633  0  0  -0.698215  0  2.271828  0  0  -0.736661  0  2.266636  0  0  -0.390019  -0.669753  0  2.274279  0
O  O77  1  0.10977875  0.94795931  0.90327438  1  0  -0.749182  0  2.016751  0  0  -0.698184  0  2.271847  0  0  -0.736627  0  2.266653  0  0  -0.390065  -0.669729  0  2.274335  0
O  O78  1  0.73598477  0.94715155  0.09359126  1  0  -0.656331  0  1.959965  0  0  -0.615006  0  2.195928  0  0  -0.643785  0  2.18671  0  0  -0.356982  -0.593991  0  2.20144  0
O  O79  1  0.26401372  0.05285096  0.90641024  1  0  -0.65631  0  1.959825  0  0  -0.615033  0  2.195767  0  0  -0.643811  0  2.186549  0  0  -0.356945  -0.594012  0  2.201289  0
O  O80  1  0.15061962  0.54953507  0.00860159  1  0  -0.692425  0  2.050187  0  0  -0.647843  0  2.31983  0  0  -0.68267  0  2.307651  0  0  -0.39494  -0.622272  0  2.327745  0
O  O81  1  0.84938220  0.45046416  0.99139680  1  0  -0.69243  0  2.050248  0  0  -0.647848  0  2.319873  0  0  -0.682669  0  2.307698  0  0  -0.394917  -0.622263  0  2.327789  0
O  O82  1  0.20334550  0.31344932  0.00278090  1  0  -0.69114  0  2.008267  0  0  -0.645961  0  2.271991  0  0  -0.679834  0  2.259096  0  0  -0.388978  -0.621309  0  2.280349  0
O  O83  1  0.79665730  0.68654994  0.99721374  1  0  -0.691103  0  2.008253  0  0  -0.645954  0  2.272016  0  0  -0.679834  0  2.259134  0  0  -0.388952  -0.621298  0  2.28038  0
O  O84  1  0.58407813  0.52265786  0.24520376  1  0  -0.285453  0  2.341644  0  0  -0.216072  0  2.561629  0  0  -0.233343  0  2.56528  0  0  -0.152384  -0.203695  0  2.55882  0
O  O85  1  0.41591874  0.47733906  0.75479888  1  0  -0.285364  0  2.341514  0  0  -0.215966  0  2.561492  0  0  -0.233233  0  2.565146  0  0  -0.152359  -0.20359  0  2.558689  0
O  O86  1  0.83934869  0.22473761  0.82995187  1  0  -0.700046  0  2.072419  0  0  -0.642424  0  2.31073  0  0  -0.673951  0  2.302911  0  0  -0.353023  -0.619681  0  2.315227  0
O  O87  1  0.16065014  0.77525936  0.17004421  1  0  -0.699854  0  2.072401  0  0  -0.642286  0  2.310708  0  0  -0.673797  0  2.302864  0  0  -0.352959  -0.61954  0  2.315206  0
O  O88  1  0.98355885  0.33462204  0.76129454  1  0  -0.654826  0  1.992661  0  0  -0.604592  0  2.228224  0  0  -0.634144  0  2.221028  0  0  -0.349301  -0.583483  0  2.231944  0
O  O89  1  0.01644147  0.66537604  0.23870970  1  0  -0.654767  0  1.992696  0  0  -0.604535  0  2.228211  0  0  -0.634086  0  2.221013  0  0  -0.349278  -0.583428  0  2.231928  0
O  O90  1  0.76640032  0.00922998  0.82900373  1  0  -0.861578  0  1.818736  0  0  -0.815913  0  2.000466  0  0  -0.840622  0  1.974246  0  0  -0.609461  -0.79785  0  2.019175  0
O  O91  1  0.23360008  0.99077037  0.17098699  1  0  -0.861534  0  1.818782  0  0  -0.815868  0  2.000389  0  0  -0.840612  0  1.974225  0  0  -0.609468  -0.797807  0  2.019104  0
O  O92  1  0.99461018  0.75301207  0.76671678  1  0  -0.581314  0  2.086081  0  0  -0.531302  0  2.345807  0  0  -0.561234  0  2.338892  0  0  -0.344847  -0.509737  0  2.349873  0
O  O93  1  0.00539693  0.24698389  0.23328220  1  0  -0.581318  0  2.086006  0  0  -0.531323  0  2.34574  0  0  -0.561251  0  2.338822  0  0  -0.34484  -0.509757  0  2.3498  0
