# generated using pymatgen
data_Zn4H8C24S4N2O13F2
_symmetry_space_group_name_H-M   'P 1'
_cell_length_a   19.69839041
_cell_length_b   19.68696305
_cell_length_c   33.40317015
_cell_angle_alpha   79.11724872
_cell_angle_beta   79.08311947
_cell_angle_gamma   63.81714636
_symmetry_Int_Tables_number   1
_chemical_formula_structural   Zn4H8C24S4N2O13F2
_chemical_formula_sum   'Zn16 H32 C96 S16 N8 O52 F8'
_cell_volume   11332.54769736
_cell_formula_units_Z   4
loop_
 _symmetry_equiv_pos_site_id
 _symmetry_equiv_pos_as_xyz
  1  'x, y, z'
loop_
 _atom_site_type_symbol
 _atom_site_label
 _atom_site_symmetry_multiplicity
 _atom_site_fract_x
 _atom_site_fract_y
 _atom_site_fract_z
 _atom_site_occupancy
 _atom_site_pbe_bader_charge
 _atom_site_pbe_bader_spin_density
 _atom_site_pbe_cm5_charge
 _atom_site_pbe_ddec_charge
 _atom_site_pbe_ddec_spin_density
 _atom_site_pbe_ddec_sum_bond_order
 _atom_site_pbe_magmom
Zn  Zn0  1  0.05593809  0.40061183  0.47831412  1  1.324575  0  0.674573  0.976107  0  2.353886  0
Zn  Zn1  1  0.98393724  0.48372135  0.56015157  1  1.302934  0  0.662403  0.945589  0  2.389637  0
Zn  Zn2  1  0.05888117  0.56080064  0.48238649  1  1.317316  0  0.669678  0.958068  0  2.393126  0
Zn  Zn3  1  0.90089908  0.55592633  0.47952403  1  1.319496  0  0.669955  0.958494  0  2.394449  0
Zn  Zn4  1  0.69479043  0.34951759  0.27165216  1  1.320919  0  0.672744  0.972298  0  2.355129  0
Zn  Zn5  1  0.68848981  0.19015707  0.26666264  1  1.312274  0  0.67246  0.968226  0  2.359845  0
Zn  Zn6  1  0.76846103  0.26642954  0.19049275  1  1.314488  0  0.668459  0.955912  0  2.394953  0
Zn  Zn7  1  0.84825285  0.19311314  0.27154605  1  1.317851  0  0.669117  0.955204  0  2.388823  0
Zn  Zn8  1  0.26683572  0.76676697  0.68946298  1  1.309593  0  0.673006  0.967419  0  2.357232  0
Zn  Zn9  1  0.34825733  0.69565495  0.77204671  1  1.31489  0  0.666394  0.956663  0  2.377435  0
Zn  Zn10  1  0.19253984  0.84900125  0.77160595  1  1.320308  0  0.675172  0.972236  0  2.374647  0
Zn  Zn11  1  0.19144311  0.68929026  0.76787908  1  1.317487  0  0.668944  0.956473  0  2.394374  0
Zn  Zn12  1  0.56068608  0.05991995  0.98350642  1  1.313492  0  0.671101  0.965806  0  2.363972  0
Zn  Zn13  1  0.40105916  0.05543420  0.97818855  1  1.313845  0  0.671733  0.96503  0  2.359674  0
Zn  Zn14  1  0.55634592  0.90108392  0.97873051  1  1.31765  0  0.673176  0.967774  0  2.379114  0
Zn  Zn15  1  0.48286671  0.98188889  0.06020873  1  1.317963  0  0.674306  0.966927  0  2.376859  0
H  H16  1  0.74924711  0.45119692  0.35005070  1  0.096772  0  0.122004  0.152861  0  0.973233  0
H  H17  1  0.00129487  0.29866267  0.40006790  1  0.173647  0  0.122534  0.153537  0  0.972575  0
H  H18  1  0.20087169  0.70038659  0.59947505  1  0.154148  0  0.121816  0.152124  0  0.974107  0
H  H19  1  0.04968522  0.54981877  0.65072341  1  0.131653  0  0.118179  0.146624  0  0.98032  0
H  H20  1  0.46288953  0.24115330  0.34076264  1  0.151263  0  0.120722  0.145987  0  0.968818  0
H  H21  1  0.48012729  0.70094984  0.60188643  1  0.137226  0  0.121398  0.146972  0  0.966218  0
H  H22  1  0.20392124  0.98000804  0.60147491  1  0.133289  0  0.120991  0.146245  0  0.968589  0
H  H23  1  0.94742472  0.96943637  0.34737807  1  0.133752  0  0.120923  0.146351  0  0.967327  0
H  H24  1  0.65024562  0.15105950  0.04944637  1  0.11847  0  0.121246  0.15159  0  0.974092  0
H  H25  1  0.59964687  0.09906821  0.20048609  1  0.121847  0  0.121872  0.152503  0  0.973912  0
H  H26  1  0.54829860  0.76980549  0.14825464  1  0.133046  0  0.122114  0.148356  0  0.965706  0
H  H27  1  0.16249640  0.14288780  0.04076964  1  0.138163  0  0.120571  0.14593  0  0.968309  0
H  H28  1  0.29834292  0.00161712  0.90009369  1  0.168899  0  0.121354  0.151865  0  0.9745  0
H  H29  1  0.45091788  0.74955922  0.84990225  1  0.099569  0  0.120115  0.15001  0  0.977029  0
H  H30  1  0.30220237  0.27993113  0.90165767  1  0.113462  0  0.121262  0.146918  0  0.968285  0
H  H31  1  0.78654160  0.01024284  0.90811920  1  0.141785  0  0.120733  0.146251  0  0.967921  0
H  H32  1  0.31328069  0.55730874  0.39602442  1  0.433387  0  0.316282  0.312004  0  0.930019  0
H  H33  1  0.23326042  0.55298210  0.42732300  1  0.481704  0  0.309461  0.323589  0  0.952895  0
H  H34  1  0.76757904  0.52215021  0.68566387  1  0.448252  0  0.312299  0.306723  0  0.936181  0
H  H35  1  0.83615836  0.51822128  0.64365113  1  0.487698  0  0.303979  0.315494  0  0.964399  0
H  H36  1  0.04583609  0.26817306  0.68573756  1  0.460862  0  0.312514  0.306914  0  0.935781  0
H  H37  1  0.02055372  0.33613412  0.64316150  1  0.483514  0  0.302417  0.313353  0  0.967403  0
H  H38  1  0.74241696  0.80223801  0.38537584  1  0.457301  0  0.315981  0.311159  0  0.930264  0
H  H39  1  0.79425363  0.72504924  0.41908376  1  0.495912  0  0.30943  0.322864  0  0.952464  0
H  H40  1  0.72609639  0.48185134  0.06459617  1  0.44635  0  0.315979  0.311345  0  0.932204  0
H  H41  1  0.73265433  0.41277632  0.10681937  1  0.477398  0  0.309534  0.324064  0  0.951428  0
H  H42  1  0.14507123  0.08525408  0.22702008  1  0.440275  0  0.316363  0.311994  0  0.929969  0
H  H43  1  0.04700695  0.11580661  0.23988064  1  0.499224  0  0.308745  0.322969  0  0.95352  0
H  H44  1  0.51729382  0.43600124  0.85473883  1  0.453483  0  0.314786  0.309742  0  0.934578  0
H  H45  1  0.45697756  0.52308558  0.83063159  1  0.500505  0  0.306791  0.319927  0  0.958327  0
H  H46  1  0.92614957  0.70160148  0.84412324  1  0.466597  0  0.315454  0.310441  0  0.931959  0
H  H47  1  0.01536349  0.69748623  0.82231939  1  0.490605  0  0.308662  0.322286  0  0.95302  0
C  C48  1  0.05868309  0.31622555  0.56272644  1  1.493505  0  0.205773  0.615985  0  4.217506  0
C  C49  1  0.06968478  0.56977748  0.56868834  1  1.5682  0  0.229394  0.623883  0  4.160319  0
C  C50  1  0.18554087  0.43921472  0.43933966  1  1.503502  0  0.205082  0.612714  0  4.222447  0
C  C51  1  0.93554093  0.68567423  0.43896629  1  1.491617  0  0.205197  0.612634  0  4.227351  0
C  C52  1  0.92997140  0.43221330  0.43104536  1  1.603481  0  0.230754  0.624303  0  4.157256  0
C  C53  1  0.81628308  0.56296246  0.56337342  1  1.531588  0  0.204974  0.614423  0  4.220165  0
C  C54  1  0.56496297  0.31249814  0.31090921  1  1.568904  0  0.217597  0.610104  0  4.214371  0
C  C55  1  0.68215297  0.18066810  0.18043125  1  1.596199  0  0.230387  0.622164  0  4.161164  0
C  C56  1  0.68816680  0.43377960  0.18762088  1  1.49349  0  0.204037  0.611783  0  4.224514  0
C  C57  1  0.93628085  0.18608591  0.18934797  1  1.516466  0  0.204329  0.611371  0  4.226178  0
C  C58  1  0.82066941  0.31771869  0.31898483  1  1.597895  0  0.230813  0.624031  0  4.157682  0
C  C59  1  0.81042855  0.06496605  0.31094170  1  1.579235  0  0.216811  0.608429  0  4.222587  0
C  C60  1  0.43405795  0.68697710  0.68870480  1  1.560971  0  0.217237  0.610727  0  4.219946  0
C  C61  1  0.31787186  0.82100241  0.81883098  1  1.591819  0  0.230916  0.623758  0  4.158661  0
C  C62  1  0.18934206  0.93401716  0.68830496  1  1.599446  0  0.217721  0.61052  0  4.217999  0
C  C63  1  0.06557410  0.80874775  0.81250065  1  1.506169  0  0.203521  0.610089  0  4.225949  0
C  C64  1  0.18038523  0.68073904  0.68161135  1  1.559052  0  0.229022  0.621052  0  4.160062  0
C  C65  1  0.31393488  0.56566646  0.81278382  1  1.521998  0  0.203952  0.613041  0  4.221449  0
C  C66  1  0.43929232  0.18343512  0.93815833  1  1.557777  0  0.218105  0.61027  0  4.215982  0
C  C67  1  0.43155411  0.93007750  0.93113528  1  1.597289  0  0.231159  0.623479  0  4.159456  0
C  C68  1  0.68402108  0.93934266  0.93822264  1  1.577521  0  0.2172  0.609932  0  4.221586  0
C  C69  1  0.56294145  0.81514509  0.06153125  1  1.602929  0  0.217211  0.60795  0  4.222942  0
C  C70  1  0.56873189  0.06837605  0.06959354  1  1.586362  0  0.230622  0.622919  0  4.161589  0
C  C71  1  0.31565014  0.06226308  0.06123303  1  1.561464  0  0.217355  0.609461  0  4.221294  0
C  C72  1  0.90046273  0.40437765  0.40229577  1  -0.039047  0  -0.013846  -0.110077  0  3.948322  0
C  C73  1  0.85024036  0.34559961  0.34766315  1  0.05042  0  -0.014933  -0.111493  0  3.952415  0
C  C74  1  0.82928323  0.44590925  0.38740723  1  0.470404  0  0.105571  0.269462  0  4.039429  0
C  C75  1  0.92143468  0.30408622  0.36253522  1  0.462892  0  0.105535  0.269319  0  4.038637  0
C  C76  1  0.80473571  0.41744419  0.36088684  1  0.069777  0  -0.086133  -0.200274  0  3.97028  0
C  C77  1  0.94592112  0.33247961  0.38913471  1  0.063016  0  -0.086324  -0.200352  0  3.96652  0
C  C78  1  0.09905806  0.59884464  0.59682487  1  0.08049  0  -0.014111  -0.10984  0  3.952798  0
C  C79  1  0.15121968  0.65159366  0.65340802  1  0.054856  0  -0.014674  -0.108877  0  3.951572  0
C  C80  1  0.14215580  0.64172330  0.58341553  1  0.47315  0  0.107641  0.271238  0  4.038641  0
C  C81  1  0.10814607  0.60868128  0.66679653  1  0.463125  0  0.104936  0.268469  0  4.041554  0
C  C82  1  0.16757981  0.66739772  0.61089729  1  -0.020279  0  -0.086315  -0.200381  0  3.969366  0
C  C83  1  0.08283254  0.58293875  0.63933110  1  -0.002207  0  -0.088393  -0.200836  0  3.978866  0
C  C84  1  0.30393495  0.45584482  0.40219405  1  0.520984  0  0.105087  0.280015  0  4.134674  0
C  C85  1  0.44558120  0.29805523  0.34868209  1  -0.023794  0  -0.087095  -0.12993  0  3.95904  0
C  C86  1  0.25936535  0.41429198  0.41509774  1  -0.097969  0  -0.050684  -0.265246  0  3.959798  0
C  C87  1  0.49010456  0.33811735  0.33583916  1  -0.135237  0  -0.025569  -0.11902  0  3.982917  0
C  C88  1  0.37761860  0.34058395  0.37267072  1  -0.130336  0  -0.021447  0.007568  0  4.104374  0
C  C89  1  0.37179560  0.41240385  0.37765344  1  -0.194287  0  -0.030614  -0.125758  0  4.042967  0
C  C90  1  0.72755385  0.57684356  0.63070173  1  0.578654  0  0.102086  0.277431  0  4.131853  0
C  C91  1  0.52483327  0.67199017  0.62188132  1  0.048348  0  -0.086136  -0.129542  0  3.956952  0
C  C92  1  0.74248525  0.58793183  0.58769449  1  -0.177504  0  -0.048255  -0.262897  0  3.962069  0
C  C93  1  0.50924199  0.66169024  0.66417898  1  -0.210325  0  -0.025817  -0.117432  0  3.985879  0
C  C94  1  0.60410098  0.64085278  0.60944873  1  -0.128301  0  -0.021237  0.007521  0  4.103119  0
C  C95  1  0.64742602  0.60755456  0.64267016  1  -0.179225  0  -0.030463  -0.124664  0  4.046567  0
C  C96  1  0.07297850  0.22743554  0.63005830  1  0.435567  0  0.102278  0.277198  0  4.127531  0
C  C97  1  0.17449554  0.02475276  0.62145606  1  0.066932  0  -0.087243  -0.13091  0  3.960766  0
C  C98  1  0.08297629  0.24231514  0.58700108  1  -0.073493  0  -0.049111  -0.263819  0  3.961811  0
C  C99  1  0.16450915  0.00923582  0.66377568  1  -0.19268  0  -0.024776  -0.117464  0  3.98333  0
C  C100  1  0.14159699  0.10399388  0.60896181  1  -0.165504  0  -0.021266  0.007776  0  4.103212  0
C  C101  1  0.10714854  0.14736312  0.64215747  1  -0.140183  0  -0.03148  -0.127456  0  4.045039  0
C  C102  1  0.84100770  0.80042465  0.39838807  1  0.505607  0  0.104869  0.279922  0  4.132329  0
C  C103  1  0.90319663  0.94893053  0.35197959  1  0.050049  0  -0.086628  -0.129281  0  3.958021  0
C  C104  1  0.91082603  0.75940114  0.41474583  1  -0.081189  0  -0.050049  -0.264175  0  3.964332  0
C  C105  1  0.83474658  0.99009212  0.33575333  1  -0.194097  0  -0.025561  -0.118101  0  3.986021  0
C  C106  1  0.90613571  0.87965942  0.37456104  1  -0.126989  0  -0.022175  0.00626  0  4.107919  0
C  C107  1  0.83954670  0.86955756  0.37517571  1  -0.178673  0  -0.030326  -0.125287  0  4.043158  0
C  C108  1  0.65355105  0.15295444  0.15122299  1  0.04582  0  -0.014262  -0.110752  0  3.952482  0
C  C109  1  0.59671759  0.09677479  0.09872319  1  0.047991  0  -0.015256  -0.113268  0  3.957335  0
C  C110  1  0.66657277  0.16672807  0.10819083  1  0.468189  0  0.106753  0.271958  0  4.036322  0
C  C111  1  0.58337458  0.08329694  0.14175910  1  0.478777  0  0.107002  0.272281  0  4.036974  0
C  C112  1  0.63901338  0.13941125  0.08260946  1  0.024054  0  -0.086456  -0.200131  0  3.969698  0
C  C113  1  0.61099442  0.11058490  0.16733043  1  0.02269  0  -0.086437  -0.200736  0  3.968086  0
C  C114  1  0.67378193  0.52179045  0.12002957  1  0.499329  0  0.105156  0.281282  0  4.132589  0
C  C115  1  0.57746471  0.72485502  0.12838550  1  0.061864  0  -0.086409  -0.13106  0  3.958793  0
C  C116  1  0.66259831  0.50732095  0.16311895  1  -0.075256  0  -0.049402  -0.263963  0  3.961048  0
C  C117  1  0.58815519  0.74005065  0.08607384  1  -0.21002  0  -0.025478  -0.117526  0  3.986048  0
C  C118  1  0.60877856  0.64564690  0.14097297  1  -0.116758  0  -0.021627  0.00798  0  4.106892  0
C  C119  1  0.64256995  0.60197737  0.10787879  1  -0.196806  0  -0.030253  -0.126385  0  4.042864  0
C  C120  1  0.08153714  0.12211855  0.17875863  1  0.546868  0  0.104816  0.279865  0  4.130879  0
C  C121  1  0.17009553  0.12608803  0.07312056  1  0.057997  0  -0.087738  -0.131353  0  3.961136  0
C  C122  1  0.00957107  0.16125082  0.16460268  1  -0.155982  0  -0.049561  -0.262749  0  3.962079  0
C  C123  1  0.24127839  0.08727031  0.08654653  1  -0.190865  0  -0.024973  -0.118948  0  3.987048  0
C  C124  1  0.11171233  0.13937268  0.10647038  1  -0.205293  0  -0.022041  0.007427  0  4.106702  0
C  C125  1  0.13974556  0.11019654  0.14474327  1  -0.191528  0  -0.030463  -0.125744  0  4.04385  0
C  C126  1  0.34543409  0.85054650  0.84762630  1  0.048785  0  -0.014651  -0.110913  0  3.953601  0
C  C127  1  0.40386742  0.90064435  0.90235253  1  -0.031297  0  -0.014454  -0.110504  0  3.952698  0
C  C128  1  0.30373085  0.92174301  0.86254139  1  0.467888  0  0.106721  0.270712  0  4.039976  0
C  C129  1  0.44553821  0.82940281  0.88746653  1  0.476741  0  0.106527  0.270361  0  4.039991  0
C  C130  1  0.33210342  0.94618762  0.88916006  1  0.054265  0  -0.086907  -0.201447  0  3.970373  0
C  C131  1  0.41717862  0.80498894  0.86084789  1  0.071944  0  -0.087241  -0.201037  0  3.974153  0
C  C132  1  0.40788276  0.45035585  0.85351540  1  0.521775  0  0.104259  0.280661  0  4.130895  0
C  C133  1  0.34667741  0.30008163  0.89715140  1  0.024067  0  -0.087578  -0.131959  0  3.959747  0
C  C134  1  0.33789613  0.49229102  0.83745051  1  -0.128589  0  -0.049425  -0.264627  0  3.96204  0
C  C135  1  0.41519286  0.25823699  0.91322084  1  -0.110519  0  -0.024889  -0.116173  0  3.982733  0
C  C136  1  0.34373943  0.36984294  0.87521141  1  -0.190442  0  -0.021383  0.0084  0  4.104223  0
C  C137  1  0.41025420  0.37979371  0.87509965  1  -0.144754  0  -0.031228  -0.127282  0  4.044265  0
C  C138  1  0.94700608  0.79258882  0.84965707  1  0.506514  0  0.105171  0.281289  0  4.131096  0
C  C139  1  0.80357747  0.95326852  0.90037976  1  -0.030176  0  -0.0872  -0.130165  0  3.961223  0
C  C140  1  0.99229956  0.83338944  0.83721286  1  -0.092758  0  -0.049157  -0.264302  0  3.96285  0
C  C141  1  0.75850983  0.91379166  0.91306597  1  -0.143057  0  -0.024926  -0.119186  0  3.989649  0
C  C142  1  0.87202540  0.90974222  0.87712210  1  -0.132278  0  -0.022188  0.005913  0  4.107991  0
C  C143  1  0.87773538  0.83770714  0.87260378  1  -0.16554  0  -0.030238  -0.126539  0  4.043731  0
S  S144  1  0.30033695  0.32439331  0.39786102  1  0.245346  0  0.053884  0.095123  0  2.74656  0
S  S145  1  0.44986034  0.42753958  0.35290237  1  0.24935  0  0.07208  0.120303  0  2.758352  0
S  S146  1  0.66038175  0.63520460  0.56285103  1  0.261633  0  0.058818  0.101985  0  2.747489  0
S  S147  1  0.59066195  0.61449974  0.68913882  1  0.237261  0  0.065404  0.111319  0  2.765675  0
S  S148  1  0.13263656  0.16014805  0.56225488  1  0.253842  0  0.058686  0.101724  0  2.747148  0
S  S149  1  0.11497624  0.09068331  0.68866735  1  0.242777  0  0.073544  0.122617  0  2.757512  0
S  S150  1  0.97220959  0.80486424  0.40223384  1  0.242579  0  0.052818  0.094032  0  2.751949  0
S  S151  1  0.77342774  0.94517787  0.34796840  1  0.239303  0  0.071471  0.119193  0  2.759475  0
S  S152  1  0.61440524  0.58982260  0.18770646  1  0.244683  0  0.054023  0.095318  0  2.750198  0
S  S153  1  0.63598249  0.65835840  0.06130437  1  0.243679  0  0.072675  0.120751  0  2.75767  0
S  S154  1  0.01358258  0.18208715  0.11114864  1  0.287227  0  0.052897  0.0935  0  2.749476  0
S  S155  1  0.23780644  0.06638660  0.13969520  1  0.282435  0  0.074633  0.124026  0  2.759318  0
S  S156  1  0.27680296  0.44646832  0.84892423  1  0.246842  0  0.054814  0.096546  0  2.74916  0
S  S157  1  0.47632870  0.30338493  0.90194962  1  0.254265  0  0.070572  0.118372  0  2.761394  0
S  S158  1  0.95110029  0.92403531  0.85349444  1  0.255599  0  0.056304  0.099169  0  2.749467  0
S  S159  1  0.79898235  0.82354469  0.89699171  1  0.266758  0  0.07261  0.121688  0  2.759972  0
N  N160  1  0.28636395  0.52578536  0.41259128  1  -1.227997  0  -0.579604  -0.591377  0  3.332523  0
N  N161  1  0.78163735  0.54403871  0.65708511  1  -1.281237  0  -0.583857  -0.593324  0  3.328552  0
N  N162  1  0.03399286  0.28145927  0.65632083  1  -1.249191  0  -0.585962  -0.595113  0  3.324709  0
N  N163  1  0.78275235  0.77868004  0.40477009  1  -1.254677  0  -0.579457  -0.589817  0  3.327406  0
N  N164  1  0.70715168  0.46763090  0.09382894  1  -1.236752  0  -0.579713  -0.592192  0  3.332106  0
N  N165  1  0.09379355  0.09721836  0.21876155  1  -1.254722  0  -0.580794  -0.592938  0  3.324894  0
N  N166  1  0.46384626  0.47469542  0.85009079  1  -1.272164  0  -0.581628  -0.592848  0  3.332199  0
N  N167  1  0.96721852  0.72013832  0.84206545  1  -1.277476  0  -0.580386  -0.591671  0  3.327594  0
O  O168  1  0.00014758  0.49951906  0.50031795  1  -1.228621  0  -0.571499  -1.022051  0  2.537862  0
O  O169  1  0.07474246  0.31761493  0.52363312  1  -1.151998  0  -0.326148  -0.554241  0  2.337495  0
O  O170  1  0.03496145  0.52825122  0.58601363  1  -1.155653  0  -0.317943  -0.549485  0  2.321279  0
O  O171  1  0.15754023  0.50634621  0.45110831  1  -1.172341  0  -0.321714  -0.555475  0  2.328519  0
O  O172  1  0.02274816  0.37539218  0.58247588  1  -1.181075  0  -0.325065  -0.561376  0  2.329147  0
O  O173  1  0.15315031  0.39327775  0.44723657  1  -1.178221  0  -0.329291  -0.557978  0  2.33846  0
O  O174  1  0.08130467  0.58876666  0.53042422  1  -1.142233  0  -0.307599  -0.534327  0  2.36287  0
O  O175  1  0.00308801  0.65626270  0.44946881  1  -1.17308  0  -0.330316  -0.55666  0  2.3475  0
O  O176  1  0.88758990  0.49787574  0.44213099  1  -1.159676  0  -0.311407  -0.539992  0  2.365472  0
O  O177  1  0.88783775  0.65473467  0.44809453  1  -1.179105  0  -0.32156  -0.555464  0  2.33103  0
O  O178  1  0.99553710  0.38710347  0.44186076  1  -1.1769  0  -0.311202  -0.542054  0  2.314819  0
O  O179  1  0.87567665  0.52863303  0.58291609  1  -1.18684  0  -0.32285  -0.55961  0  2.325103  0
O  O180  1  0.81720261  0.57651513  0.52422828  1  -1.147764  0  -0.327261  -0.552078  0  2.343791  0
O  O181  1  0.74924989  0.24976807  0.25061379  1  -1.223175  0  -0.570771  -1.026265  0  2.530243  0
O  O182  1  0.59639404  0.35904306  0.30302885  1  -1.156383  0  -0.320923  -0.549562  0  2.33072  0
O  O183  1  0.66295810  0.16526015  0.21858579  1  -1.165484  0  -0.312905  -0.542476  0  2.320438  0
O  O184  1  0.72393659  0.37433003  0.16815817  1  -1.175036  0  -0.320855  -0.554401  0  2.327792  0
O  O185  1  0.59187744  0.24608838  0.29952378  1  -1.172248  0  -0.318193  -0.541028  0  2.312661  0
O  O186  1  0.67384931  0.43294115  0.22680446  1  -1.162345  0  -0.329368  -0.557717  0  2.342184  0
O  O187  1  0.72277374  0.21665721  0.16502472  1  -1.156366  0  -0.309503  -0.535838  0  2.363986  0
O  O188  1  0.87708759  0.22415064  0.17048106  1  -1.180059  0  -0.329474  -0.555566  0  2.34823  0
O  O189  1  0.86358278  0.25261808  0.30728985  1  -1.16013  0  -0.312369  -0.541412  0  2.363282  0
O  O190  1  0.93587156  0.16834159  0.22869490  1  -1.165222  0  -0.321309  -0.555616  0  2.327351  0
O  O191  1  0.75448551  0.36220452  0.30879703  1  -1.176433  0  -0.31138  -0.54096  0  2.316877  0
O  O192  1  0.74409732  0.09281881  0.29922993  1  -1.173047  0  -0.321812  -0.551104  0  2.335135  0
O  O193  1  0.85755449  0.09547492  0.30342779  1  -1.169271  0  -0.317423  -0.537912  0  2.318488  0
O  O194  1  0.25054629  0.75028377  0.74967164  1  -1.226051  0  -0.571055  -1.026712  0  2.531231  0
O  O195  1  0.37611268  0.72291763  0.66902274  1  -1.173552  0  -0.317192  -0.539832  0  2.310923  0
O  O196  1  0.36366954  0.75574499  0.80766887  1  -1.176419  0  -0.315306  -0.545364  0  2.323657  0
O  O197  1  0.17225884  0.93388164  0.72723817  1  -1.178825  0  -0.31886  -0.545529  0  2.33851  0
O  O198  1  0.43380307  0.67069636  0.72771539  1  -1.15612  0  -0.324295  -0.554515  0  2.341148  0
O  O199  1  0.22527845  0.87584705  0.66866471  1  -1.173838  0  -0.318527  -0.543707  0  2.310148  0
O  O200  1  0.25202142  0.86269178  0.80802313  1  -1.154564  0  -0.30795  -0.535084  0  2.36037  0
O  O201  1  0.09644300  0.85596794  0.80334953  1  -1.164446  0  -0.3275  -0.553233  0  2.344227  0
O  O202  1  0.16458578  0.66564389  0.71997262  1  -1.136962  0  -0.309761  -0.537382  0  2.365753  0
O  O203  1  0.09441513  0.74113205  0.80132421  1  -1.181536  0  -0.320412  -0.553796  0  2.328364  0
O  O204  1  0.21894067  0.71848961  0.66429650  1  -1.151243  0  -0.312703  -0.543205  0  2.32018  0
O  O205  1  0.36063481  0.59785326  0.80503905  1  -1.176199  0  -0.322611  -0.559005  0  2.322894  0
O  O206  1  0.24816273  0.59332123  0.80027138  1  -1.181415  0  -0.328175  -0.553511  0  2.3463  0
O  O207  1  0.49976908  0.00037978  0.99996283  1  -1.228933  0  -0.570539  -1.03062  0  2.525512  0
O  O208  1  0.50559441  0.15585070  0.94982854  1  -1.172385  0  -0.321479  -0.550405  0  2.338469  0
O  O209  1  0.38676129  0.99610344  0.94160330  1  -1.174063  0  -0.313785  -0.544832  0  2.319967  0
O  O210  1  0.65324495  0.89224464  0.94646752  1  -1.181227  0  -0.320347  -0.546794  0  2.341975  0
O  O211  1  0.39208644  0.15297812  0.94596749  1  -1.155691  0  -0.317723  -0.540508  0  2.309223  0
O  O212  1  0.65685180  0.00568801  0.94969493  1  -1.171131  0  -0.317805  -0.540971  0  2.312821  0
O  O213  1  0.49666798  0.88731692  0.94265318  1  -1.160916  0  -0.308815  -0.535007  0  2.364404  0
O  O214  1  0.58025615  0.81548777  0.02257007  1  -1.184613  0  -0.320246  -0.547193  0  2.34009  0
O  O215  1  0.53075542  0.02973779  0.08513299  1  -1.151289  0  -0.308834  -0.535673  0  2.366483  0
O  O216  1  0.52589548  0.87322788  0.08111529  1  -1.169033  0  -0.316262  -0.53726  0  2.314915  0
O  O217  1  0.58582232  0.08565874  0.03137040  1  -1.158857  0  -0.313457  -0.543624  0  2.321705  0
O  O218  1  0.31537856  0.07905843  0.02235017  1  -1.144778  0  -0.318222  -0.542208  0  2.311718  0
O  O219  1  0.37410051  0.02552711  0.08063248  1  -1.171889  0  -0.320123  -0.54661  0  2.341926  0
F  F220  1  0.78128769  0.51591062  0.39843201  1  -0.624641  0  -0.102694  -0.138233  0  1.346576  0
F  F221  1  0.96948328  0.23411412  0.35146855  1  -0.622348  0  -0.103436  -0.139109  0  1.346669  0
F  F222  1  0.16107959  0.65950985  0.54293877  1  -0.625978  0  -0.100246  -0.135196  0  1.346453  0
F  F223  1  0.08940090  0.59051527  0.70730407  1  -0.624822  0  -0.104308  -0.140104  0  1.344815  0
F  F224  1  0.70659279  0.20760956  0.08980564  1  -0.620575  0  -0.101751  -0.137629  0  1.346777  0
F  F225  1  0.54286976  0.04292797  0.16015724  1  -0.621493  0  -0.100678  -0.136232  0  1.347258  0
F  F226  1  0.23393355  0.96970167  0.85145980  1  -0.621284  0  -0.098793  -0.133664  0  1.347388  0
F  F227  1  0.51540413  0.78141989  0.89850346  1  -0.62216  0  -0.100631  -0.13568  0  1.347033  0
