# generated using pymatgen
data_CoH14C13(NCl)2
_symmetry_space_group_name_H-M   'P 1'
_cell_length_a   4.34224822
_cell_length_b   8.84629808
_cell_length_c   8.84629910
_cell_angle_alpha   81.20591229
_cell_angle_beta   75.71398843
_cell_angle_gamma   75.71440812
_symmetry_Int_Tables_number   1
_chemical_formula_structural   CoH14C13(NCl)2
_chemical_formula_sum   'Co1 H14 C13 N2 Cl2'
_cell_volume   317.58541005
_cell_formula_units_Z   1
loop_
 _symmetry_equiv_pos_site_id
 _symmetry_equiv_pos_as_xyz
  1  'x, y, z'
loop_
 _atom_site_type_symbol
 _atom_site_label
 _atom_site_symmetry_multiplicity
 _atom_site_fract_x
 _atom_site_fract_y
 _atom_site_fract_z
 _atom_site_occupancy
 _atom_site_pbe_cm5_charge
 _atom_site_pbe_ddec_charge
 _atom_site_pbe_ddec_spin_density
 _atom_site_pbe_ddec_sum_bond_order
 _atom_site_pbe_magmom
Co  Co0  1  0.21205262  0.00004182  0.00004244  1  0.503502  0.678623  2.731468  2.687471  2.4
H  H1  1  0.94442099  0.79883821  0.94204529  1  0.283619  0.284423  0.00106  0.974852  0.001
H  H2  1  0.94442621  0.94204371  0.79883885  1  0.283618  0.284442  0.00106  0.974843  0.001
H  H3  1  0.68512881  0.05869213  0.20190163  1  0.287161  0.289122  0.001036  0.971686  0.001
H  H4  1  0.68512854  0.20190073  0.05869517  1  0.287136  0.289156  0.001036  0.971686  0.001
H  H5  1  0.40617822  0.95109205  0.57695364  1  0.098498  0.108513  -0.00013  1.029161  0.0
H  H6  1  0.40618424  0.57695691  0.95109319  1  0.098504  0.10852  -0.00013  1.029153  0.0
H  H7  1  0.93504981  0.42297663  0.04895629  1  0.09907  0.10962  -0.000128  1.029565  0.0
H  H8  1  0.93504212  0.04895872  0.42297903  1  0.099088  0.109659  -0.000128  1.029601  0.0
H  H9  1  0.90628006  0.79346570  0.42077758  1  0.090356  0.095172  4.7e-05  1.042379  0.0
H  H10  1  0.90628725  0.42077837  0.79346709  1  0.090359  0.095167  4.7e-05  1.042354  0.0
H  H11  1  0.12233358  0.57871094  0.20619770  1  0.089521  0.093594  4.2e-05  1.043082  0.0
H  H12  1  0.12233153  0.20619979  0.57871024  1  0.089527  0.093603  4.2e-05  1.043165  0.0
H  H13  1  0.38912335  0.42250016  0.57651750  1  0.091123  0.108188  0.000575  1.012878  0.001
H  H14  1  0.38912152  0.57652110  0.42249639  1  0.09115  0.108235  0.000575  1.012886  0.001
C  C15  1  0.94371255  0.59755587  0.59756235  1  -0.005501  0.130463  0.013554  3.941213  0.016
C  C16  1  0.13906308  0.40215399  0.40214859  1  -0.007697  0.129672  0.013495  3.943135  0.016
C  C17  1  0.37365251  0.77378734  0.77378352  1  0.070625  0.249862  -0.005052  4.035005  -0.006
C  C18  1  0.92159843  0.22641733  0.22641843  1  0.068629  0.248713  -0.005061  4.032753  -0.006
C  C19  1  0.51632055  0.83494310  0.62488385  1  -0.102156  -0.180675  0.010609  3.984536  0.012
C  C20  1  0.51632770  0.62488045  0.83494515  1  -0.102126  -0.180646  0.010613  3.984257  0.012
C  C21  1  0.97663889  0.37514839  0.16508656  1  -0.101691  -0.181221  0.010561  3.98358  0.012
C  C22  1  0.97664038  0.16508363  0.37514904  1  -0.101752  -0.181243  0.010559  3.983643  0.012
C  C23  1  0.79794119  0.74684522  0.53804084  1  -0.096418  -0.12616  -0.004472  3.978188  -0.004
C  C24  1  0.79794299  0.53804393  0.74684203  1  -0.096413  -0.126105  -0.00447  3.978492  -0.004
C  C25  1  0.08332584  0.46181163  0.25294694  1  -0.093905  -0.123398  -0.004453  3.976653  -0.004
C  C26  1  0.08332409  0.25294493  0.46181420  1  -0.093931  -0.12349  -0.004454  3.976527  -0.004
C  C27  1  0.23995575  0.49972624  0.49972360  1  -0.160571  -0.250938  0.000763  3.943091  0.0
N  N28  1  0.09032862  0.86569291  0.86569333  1  -0.609537  -0.588022  0.041326  3.536667  0.051
N  N29  1  0.82170749  0.13472984  0.13473131  1  -0.616931  -0.598578  0.041459  3.538054  0.052
Cl  Cl30  1  0.47957029  0.16645154  0.83410374  1  -0.266427  -0.477131  0.069274  1.29198  0.083
Cl  Cl31  1  0.47956475  0.83410675  0.16645198  1  -0.266433  -0.477142  0.069275  1.291993  0.083
