# generated using pymatgen
data_ZnH27C27N5O8
_symmetry_space_group_name_H-M   'P 1'
_cell_length_a   10.12196266
_cell_length_b   10.70744445
_cell_length_c   15.88045627
_cell_angle_alpha   95.14840001
_cell_angle_beta   89.42052893
_cell_angle_gamma   91.10171034
_symmetry_Int_Tables_number   1
_chemical_formula_structural   ZnH27C27N5O8
_chemical_formula_sum   'Zn2 H54 C54 N10 O16'
_cell_volume   1713.80806674
_cell_formula_units_Z   2
loop_
 _symmetry_equiv_pos_site_id
 _symmetry_equiv_pos_as_xyz
  1  'x, y, z'
loop_
 _atom_site_type_symbol
 _atom_site_label
 _atom_site_symmetry_multiplicity
 _atom_site_fract_x
 _atom_site_fract_y
 _atom_site_fract_z
 _atom_site_occupancy
 _atom_site_pbe_bader_charge
 _atom_site_pbe_bader_spin_density
 _atom_site_pbe_cm5_charge
 _atom_site_pbe_ddec_charge
 _atom_site_pbe_ddec_spin_density
 _atom_site_pbe_ddec_sum_bond_order
 _atom_site_pbe_magmom
Zn  Zn0  1  0.64297314  0.49356724  0.49663924  1  1.314853  0  0.692379  0.886732  0  2.243833  0
Zn  Zn1  1  0.34024196  0.48918241  0.50590972  1  1.322685  0  0.695897  0.893703  0  2.265069  0
H  H2  1  0.60538042  0.85639236  0.40646924  1  0.064737  0  0.098542  0.108415  0  1.01546  0
H  H3  1  0.69105780  0.11760808  0.53469826  1  0.125602  0  0.103984  0.118801  0  1.055169  0
H  H4  1  0.26829129  0.09839419  0.51000570  1  0.11514  0  0.122284  0.112939  0  0.968948  0
H  H5  1  0.27944608  0.88132840  0.51243354  1  0.064501  0  0.103196  0.116412  0  0.999314  0
H  H6  1  0.33552310  0.90680129  0.61747003  1  0.058603  0  0.101583  0.106408  0  1.008199  0
H  H7  1  0.58605002  0.14320793  0.62436059  1  0.085525  0  0.108918  0.130242  0  0.972934  0
H  H8  1  0.09672781  0.30651291  0.46621872  1  0.130577  0  0.134302  0.074594  0  0.988814  0
H  H9  1  0.88001736  0.37777388  0.59256846  1  0.169586  0  0.143009  0.128597  0  0.970715  0
H  H10  1  0.11284932  0.69128812  0.52758389  1  0.126374  0  0.128952  0.06802  0  0.986714  0
H  H11  1  0.88725190  0.69049737  0.52573801  1  0.230834  0  0.137403  0.130538  0  1.029057  0
H  H12  1  0.64673393  0.71335117  0.06895276  1  0.12062  0  0.118781  0.119589  0  0.963541  0
H  H13  1  0.74325042  0.51829739  0.95253281  1  0.1027  0  0.116457  0.11669  0  0.975707  0
H  H14  1  0.61218872  0.06975405  0.40003047  1  0.09322  0  0.114945  0.07057  0  0.9782  0
H  H15  1  0.43235265  0.84880209  0.39216466  1  0.081054  0  0.108739  0.128166  0  0.985233  0
H  H16  1  0.26909108  0.29962597  0.02569209  1  0.022201  0  0.094113  0.048486  0  1.009088  0
H  H17  1  0.38209447  0.18709603  0.97758037  1  0.093106  0  0.107037  0.077206  0  0.969099  0
H  H18  1  0.23476847  0.16123431  0.84862028  1  0.114227  0  0.098556  0.147041  0  1.009608  0
H  H19  1  0.15487099  0.11424632  0.94167495  1  0.057409  0  0.096281  0.133055  0  0.988078  0
H  H20  1  0.11704300  0.26120060  0.90352715  1  0.014336  0  0.084668  0.109006  0  1.01556  0
H  H21  1  0.01394065  0.42258301  0.68527419  1  0.061874  0  0.095825  0.053593  0  1.051418  0
H  H22  1  0.16168812  0.35416565  0.71495809  1  0.112037  0  0.113543  0.09683  0  0.966988  0
H  H23  1  0.96648703  0.22834515  0.75922755  1  0.039833  0  0.095739  0.133233  0  0.989118  0
H  H24  1  0.91310925  0.20059248  0.65293821  1  0.012223  0  0.08366  0.116808  0  1.018621  0
H  H25  1  0.06501381  0.13856541  0.68396861  1  0.041946  0  0.091757  0.131747  0  1.00761  0
H  H26  1  0.09833971  0.77845761  0.67607117  1  0.039954  0  0.09985  0.062595  0  0.966334  0
H  H27  1  0.26671226  0.73415517  0.65537449  1  0.064806  0  0.097519  0.064564  0  1.013881  0
H  H28  1  0.25455045  0.59723913  0.77529249  1  0.046208  0  0.090272  0.128984  0  1.021488  0
H  H29  1  0.22469376  0.75687464  0.81018587  1  0.063317  0  0.093331  0.134245  0  1.007928  0
H  H30  1  0.08881829  0.64744509  0.79805588  1  0.048545  0  0.085874  0.119475  0  1.01507  0
H  H31  1  0.23655883  0.51066561  0.27072737  1  0.09864  0  0.099411  0.06693  0  1.044885  0
H  H32  1  0.07696470  0.46049408  0.23297648  1  0.051503  0  0.088893  0.034711  0  1.043815  0
H  H33  1  0.25552729  0.33009848  0.16307437  1  0.051367  0  0.0907  0.120865  0  1.029261  0
H  H34  1  0.30827114  0.28822356  0.26319893  1  0.07393  0  0.101043  0.148603  0  0.986371  0
H  H35  1  0.15017924  0.23627569  0.22321010  1  0.026505  0  0.091818  0.122862  0  1.007984  0
H  H36  1  0.95002965  0.27673291  0.28761872  1  0.064299  0  0.101688  0.065263  0  1.003054  0
H  H37  1  0.88653970  0.40464455  0.23572792  1  0.038892  0  0.096896  0.048817  0  1.018885  0
H  H38  1  0.65604029  0.32731653  0.25868854  1  0.058215  0  0.085199  0.122902  0  1.026551  0
H  H39  1  0.75019957  0.20619235  0.20539366  1  0.079807  0  0.092183  0.139281  0  1.014092  0
H  H40  1  0.71656423  0.20538012  0.31604772  1  0.068912  0  0.093163  0.1395  0  1.016706  0
H  H41  1  0.77355319  0.58423629  0.27377181  1  0.099536  0  0.098766  0.062191  0  1.022121  0
H  H42  1  0.94785667  0.61721094  0.26544754  1  0.027227  0  0.090791  0.037157  0  1.029512  0
H  H43  1  0.90497811  0.84211991  0.32343455  1  0.068125  0  0.097029  0.139262  0  0.994169  0
H  H44  1  0.82776006  0.79837468  0.22428160  1  0.039009  0  0.093262  0.122158  0  0.997216  0
H  H45  1  0.73217123  0.80664090  0.31878826  1  0.054194  0  0.092436  0.131398  0  1.017974  0
H  H46  1  0.15768514  0.50077770  0.95362284  1  0.062216  0  0.104004  0.066228  0  0.983176  0
H  H47  1  0.18526850  0.66642089  0.96943286  1  0.062387  0  0.10477  0.069586  0  0.990346  0
H  H48  1  0.03588404  0.67503874  0.09821226  1  0.038931  0  0.096546  0.132559  0  0.989298  0
H  H49  1  0.95214410  0.61798907  0.00405739  1  0.053164  0  0.097254  0.127767  0  1.004449  0
H  H50  1  0.00068321  0.51087774  0.07727369  1  0.040724  0  0.090278  0.120955  0  1.003815  0
H  H51  1  0.23962494  0.12129591  0.36557628  1  0.040277  0  0.091904  0.055619  0  0.984921  0
H  H52  1  0.27214658  0.96469925  0.38801865  1  0.028908  0  0.094083  0.050231  0  1.037664  0
H  H53  1  0.31016631  0.89722841  0.23825132  1  0.050202  0  0.086508  0.120701  0  1.007581  0
H  H54  1  0.15495459  0.97236202  0.24972638  1  0.00428  0  0.088729  0.121157  0  1.003939  0
H  H55  1  0.29495936  0.05361733  0.21020301  1  0.039511  0  0.090136  0.126292  0  1.007081  0
C  C56  1  0.48025857  0.25422855  0.48783449  1  1.611276  0  0.227387  0.599154  0  4.116624  0
C  C57  1  0.52117554  0.54118110  0.91524640  1  0.130534  0  0.022401  0.077073  0  3.810744  0
C  C58  1  0.58847232  0.63563148  0.03825431  1  -0.024883  0  -0.05173  -0.074647  0  3.608905  0
C  C59  1  0.50787269  0.53784673  0.08786772  1  0.071826  0  0.016257  0.066868  0  3.822055  0
C  C60  1  0.46718719  0.65292768  0.97944747  1  0.102458  0  0.018666  -0.01595  0  3.736386  0
C  C61  1  0.38544679  0.55111499  0.02906680  1  0.611672  0  0.09746  0.118837  0  3.768015  0
C  C62  1  0.52536425  0.53149568  0.82618319  1  0.189736  0  -0.025996  -0.032823  0  4.054741  0
C  C63  1  0.50171789  0.53498896  0.17656811  1  -0.361264  0  -0.02704  -0.034838  0  4.063617  0
C  C64  1  0.51198139  0.03924768  0.41733673  1  0.491826  0  0.009272  0.147212  0  3.81825  0
C  C65  1  0.51185805  0.89777442  0.42917655  1  -0.078264  0  -0.161058  -0.267224  0  3.84757  0
C  C66  1  0.59758312  0.08918639  0.56276470  1  -0.06589  0  -0.14586  -0.245016  0  3.767067  0
C  C67  1  0.52012430  0.48538547  0.65929938  1  1.681167  0  0.227156  0.668879  0  4.228219  0
C  C68  1  0.35348839  0.07238485  0.54633081  1  0.044272  0  -0.058082  -0.042677  0  3.873632  0
C  C69  1  0.48341034  0.11509019  0.50382066  1  0.01992  0  -0.010292  -0.045886  0  3.755198  0
C  C70  1  0.48969746  0.87404500  0.52248021  1  0.017229  0  -0.002235  0.003222  0  3.771912  0
C  C71  1  0.60269726  0.94431054  0.57622175  1  0.185171  0  0.050105  0.078509  0  3.843417  0
C  C72  1  0.35622294  0.92847145  0.55241645  1  -0.010961  0  -0.155182  -0.230954  0  3.852518  0
C  C73  1  0.06892860  0.37075018  0.52085102  1  0.743961  0  0.09704  0.198473  0  3.831626  0
C  C74  1  0.91462049  0.37721560  0.52667255  1  0.336596  0  0.030029  -0.026371  0  3.849858  0
C  C75  1  0.07604751  0.60486082  0.55312126  1  0.747404  0  0.099472  0.195912  0  3.838569  0
C  C76  1  0.07405016  0.50939405  0.40590892  1  0.838663  0  0.185665  0.192549  0  3.855542  0
C  C77  1  0.91935450  0.60503181  0.55289041  1  0.293007  0  0.021254  -0.041126  0  3.823924  0
C  C78  1  0.48913271  0.73156224  0.52666565  1  1.604361  0  0.223423  0.586269  0  4.124514  0
C  C79  1  0.91118936  0.50911085  0.40698039  1  1.36402  0  0.250856  0.375589  0  3.886903  0
C  C80  1  0.49429464  0.52177320  0.34342494  1  1.722759  0  0.229107  0.657008  0  4.249022  0
C  C81  1  0.56424296  0.42732422  0.02345588  1  0.065318  0  0.01639  -0.015953  0  3.742639  0
C  C82  1  0.43896129  0.44233609  0.96336357  1  0.65927  0  0.103933  0.12752  0  3.774598  0
C  C83  1  0.52720042  0.50873646  0.74984858  1  -0.418556  0  -0.022292  -0.139981  0  3.934051  0
C  C84  1  0.49628999  0.53143817  0.25295129  1  0.081268  0  -0.031061  -0.16947  0  3.956468  0
C  C85  1  0.64159762  0.52828573  0.97525370  1  -0.014025  0  -0.05381  -0.079637  0  3.61673  0
C  C86  1  0.30654440  0.25541571  0.96494392  1  0.352256  0  -0.062537  0.084248  0  3.876808  0
C  C87  1  0.19641007  0.19463426  0.91133517  1  -0.082811  0  -0.243056  -0.395671  0  3.961323  0
C  C88  1  0.73592663  0.90170299  0.55120757  1  0.900594  0  0.20135  0.265607  0  3.894284  0
C  C89  1  0.34097780  0.13707669  0.63091260  1  0.881325  0  0.184815  0.269249  0  3.945101  0
C  C90  1  0.58366558  0.92171090  0.66560972  1  0.853384  0  0.180651  0.223648  0  3.920975  0
C  C91  1  0.07461175  0.33888899  0.67452125  1  0.355014  0  -0.074587  0.065092  0  3.888161  0
C  C92  1  0.00036947  0.21974833  0.69300277  1  -0.054381  0  -0.248096  -0.399149  0  3.96252  0
C  C93  1  0.61872489  0.31363272  0.04529020  1  0.843634  0  0.174421  0.23475  0  4.026328  0
C  C94  1  0.86935239  0.26043506  0.48056918  1  0.892007  0  0.193661  0.263668  0  3.947504  0
C  C95  1  0.17140725  0.70460157  0.68148723  1  0.395703  0  -0.066191  0.094558  0  3.868328  0
C  C96  1  0.18516330  0.67417598  0.77200066  1  -0.083308  0  -0.248628  -0.40103  0  3.954218  0
C  C97  1  0.86948232  0.61152835  0.63953161  1  0.891037  0  0.182243  0.254531  0  3.950329  0
C  C98  1  0.12370712  0.63291933  0.38246886  1  0.895638  0  0.188888  0.191185  0  3.952217  0
C  C99  1  0.16385390  0.43342389  0.26776877  1  0.341403  0  -0.075575  0.075207  0  3.902784  0
C  C100  1  0.22252428  0.31424251  0.22736219  1  -0.070512  0  -0.243678  -0.39103  0  3.949973  0
C  C101  1  0.86601355  0.33898776  0.28368952  1  0.396165  0  -0.0638  0.108523  0  3.865145  0
C  C102  1  0.73934790  0.26514447  0.26515424  1  -0.108856  0  -0.252446  -0.3994  0  3.922318  0
C  C103  1  0.85554173  0.64439350  0.29920986  1  0.353417  0  -0.072426  0.094915  0  3.888741  0
C  C104  1  0.82890166  0.78127874  0.29152764  1  -0.07269  0  -0.240804  -0.385851  0  3.936997  0
C  C105  1  0.15970148  0.58202722  0.00138141  1  0.375548  0  -0.063707  0.084101  0  3.87103  0
C  C106  1  0.02953578  0.59700071  0.04844535  1  -0.067453  0  -0.239848  -0.389895  0  3.966612  0
C  C107  1  0.41863363  0.77039953  0.95957433  1  0.811083  0  0.177461  0.237289  0  4.020771  0
C  C108  1  0.29672106  0.03696549  0.34502970  1  0.412655  0  -0.076042  0.078525  0  3.926886  0
C  C109  1  0.26238300  0.98728202  0.25534263  1  -0.039623  0  -0.248655  -0.40191  0  3.991798  0
N  N110  1  0.12274027  0.49661134  0.49527431  1  -0.896947  0  -0.298639  -0.285299  0  3.305043  0
N  N111  1  0.86445256  0.49667425  0.49697657  1  -0.892634  0  -0.287586  -0.220166  0  3.337818  0
N  N112  1  0.84600281  0.88147995  0.53366094  1  -1.134563  0  -0.304192  -0.354071  0  2.78554  0
N  N113  1  0.33631097  0.18215018  0.70045467  1  -1.162569  0  -0.302968  -0.370364  0  2.771491  0
N  N114  1  0.56501495  0.90205787  0.73577697  1  -1.088163  0  -0.292256  -0.322412  0  2.689708  0
N  N115  1  0.66538377  0.21940927  0.06094719  1  -1.105393  0  -0.305182  -0.360409  0  2.72588  0
N  N116  1  0.85743320  0.15822093  0.44915446  1  -1.141537  0  -0.296337  -0.344044  0  2.769491  0
N  N117  1  0.84144524  0.62492896  0.71105548  1  -1.106323  0  -0.289402  -0.332594  0  2.714294  0
N  N118  1  0.16537339  0.72824822  0.36273996  1  -1.098753  0  -0.265363  -0.279779  0  2.734349  0
N  N119  1  0.37447688  0.86672480  0.94612050  1  -1.110006  0  -0.29864  -0.352071  0  2.709152  0
O  O120  1  0.58868638  0.30723579  0.46983658  1  -1.174849  0  -0.309162  -0.544478  0  2.365875  0
O  O121  1  0.36704137  0.30343687  0.49278083  1  -1.161305  0  -0.303301  -0.53446  0  2.413625  0
O  O122  1  0.62634910  0.45358398  0.61943264  1  -1.144903  0  -0.316682  -0.555241  0  2.297755  0
O  O123  1  0.40695530  0.49968050  0.62816802  1  -1.141426  0  -0.294069  -0.527747  0  2.322552  0
O  O124  1  0.59821310  0.68017231  0.53863811  1  -1.165471  0  -0.301177  -0.538943  0  2.349211  0
O  O125  1  0.37740033  0.67784031  0.51262232  1  -1.175452  0  -0.308072  -0.540746  0  2.393499  0
O  O126  1  0.60479483  0.54305453  0.37997306  1  -1.140303  0  -0.298559  -0.525661  0  2.380891  0
O  O127  1  0.38564666  0.49248115  0.37684269  1  -1.152586  0  -0.291841  -0.530113  0  2.378843  0
O  O128  1  0.36905565  0.35185077  0.91753919  1  -1.058652  0  -0.184016  -0.201775  0  2.530813  0
O  O129  1  0.13052718  0.32758606  0.58938574  1  -1.027012  0  -0.203004  -0.225109  0  2.526284  0
O  O130  1  0.12833570  0.59073605  0.63205240  1  -1.052778  0  -0.20303  -0.240697  0  2.554429  0
O  O131  1  0.12444679  0.40990870  0.35361944  1  -1.016005  0  -0.19161  -0.233672  0  2.517832  0
O  O132  1  0.84657308  0.40738428  0.36614191  1  -1.068482  0  -0.186925  -0.275984  0  2.632909  0
O  O133  1  0.86857544  0.62664795  0.38819846  1  -1.044957  0  -0.200793  -0.282395  0  2.529717  0
O  O134  1  0.26178182  0.56399384  0.06321855  1  -1.065901  0  -0.193971  -0.217231  0  2.499227  0
O  O135  1  0.43528268  0.07061183  0.34792095  1  -1.043526  0  -0.232757  -0.256492  0  2.418357  0
