# generated using pymatgen
data_NiH8C5N2O7
_symmetry_space_group_name_H-M   'P 1'
_cell_length_a   7.74951269
_cell_length_b   7.55259788
_cell_length_c   14.61838942
_cell_angle_alpha   89.99993414
_cell_angle_beta   89.99992519
_cell_angle_gamma   89.99999262
_symmetry_Int_Tables_number   1
_chemical_formula_structural   NiH8C5N2O7
_chemical_formula_sum   'Ni4 H32 C20 N8 O28'
_cell_volume   855.59902867
_cell_formula_units_Z   4
loop_
 _symmetry_equiv_pos_site_id
 _symmetry_equiv_pos_as_xyz
  1  'x, y, z'
loop_
 _atom_site_type_symbol
 _atom_site_label
 _atom_site_symmetry_multiplicity
 _atom_site_fract_x
 _atom_site_fract_y
 _atom_site_fract_z
 _atom_site_occupancy
 _atom_site_hle17_ddec_charge
 _atom_site_hle17_ddec_spin_density
 _atom_site_hle17_ddec_sum_bond_order
 _atom_site_hle17_magmom
 _atom_site_hse06_10hf_ddec_charge
 _atom_site_hse06_10hf_ddec_spin_density
 _atom_site_hse06_10hf_ddec_sum_bond_order
 _atom_site_hse06_10hf_magmom
 _atom_site_hse06_ddec_charge
 _atom_site_hse06_ddec_spin_density
 _atom_site_hse06_ddec_sum_bond_order
 _atom_site_hse06_magmom
 _atom_site_pbe_cm5_charge
 _atom_site_pbe_ddec_charge
 _atom_site_pbe_ddec_spin_density
 _atom_site_pbe_ddec_sum_bond_order
 _atom_site_pbe_magmom
Ni  Ni0  1  0.81675872  0.12352741  0.82203415  1  0.98062  1.834314  1.918256  1.548  0.98381  1.866624  2.306273  1.657  1.060877  1.915732  2.241532  1.731  0.638442  0.920642  1.821677  2.362245  1.592
Ni  Ni1  1  0.68324121  0.87647286  0.32203429  1  0.980631  1.834309  1.918245  1.548  0.983924  1.866642  2.306228  1.657  1.060908  1.915728  2.24149  1.731  0.638456  0.920665  1.821674  2.362258  1.592
Ni  Ni2  1  0.31675903  0.37647157  0.17796535  1  0.980623  -1.834312  1.918325  -1.548  0.983872  -1.866636  2.306331  -1.657  1.060884  -1.915727  2.241601  -1.731  0.638467  0.92068  -1.821675  2.362275  -1.592
Ni  Ni3  1  0.18324290  0.62352774  0.67796568  1  0.980606  -1.834312  1.918345  -1.548  0.983827  -1.866628  2.306348  -1.657  1.060877  -1.915728  2.241602  -1.731  0.63846  0.920633  -1.821676  2.362334  -1.592
H  H4  1  0.48780650  0.14391386  0.75998980  1  0.42303  0.000833  0.877  0.001  0.394459  0.000925  0.937624  0.002  0.40615  0.000689  0.920447  0.001  0.291964  0.385858  0.001133  0.950233  0.002
H  H5  1  0.01219522  0.85608528  0.25999008  1  0.42296  0.000833  0.8771  0.001  0.394381  0.000925  0.937736  0.002  0.406071  0.000689  0.920564  0.001  0.291952  0.385778  0.001133  0.950344  0.002
H  H6  1  0.98780502  0.35608643  0.24001026  1  0.42305  -0.000833  0.877001  -0.001  0.394482  -0.000925  0.937613  -0.002  0.406173  -0.000689  0.92044  -0.001  0.291983  0.38588  -0.001133  0.950219  -0.002
H  H7  1  0.51219512  0.64391402  0.74001070  1  0.423027  -0.000834  0.876993  -0.001  0.394459  -0.000925  0.937612  -0.002  0.406149  -0.000689  0.920438  -0.001  0.291958  0.385855  -0.001133  0.950228  -0.002
H  H8  1  0.48576623  0.19410574  0.86826369  1  0.425742  0.000421  0.877902  0.001  0.396545  0.000541  0.938819  0.001  0.408503  0.000372  0.921459  0.0  0.29101  0.387881  0.000691  0.951363  0.001
H  H9  1  0.01423522  0.80589316  0.36826399  1  0.425719  0.000421  0.877937  0.001  0.396532  0.000541  0.938838  0.001  0.408487  0.000372  0.921482  0.0  0.291013  0.387866  0.000691  0.951384  0.001
H  H10  1  0.98576502  0.30589322  0.13173638  1  0.425737  -0.000421  0.877913  -0.001  0.396554  -0.000541  0.938807  -0.001  0.408506  -0.000372  0.921455  0.0  0.291014  0.387889  -0.000691  0.951354  -0.001
H  H11  1  0.51423537  0.69410746  0.63173747  1  0.425737  -0.000421  0.877917  -0.001  0.396536  -0.000541  0.938841  -0.001  0.40849  -0.000372  0.921487  0.0  0.290999  0.387872  -0.000691  0.951387  -0.001
H  H12  1  0.13735992  0.15406003  0.78104970  1  0.420983  -0.000241  0.855403  -0.001  0.393208  0.000185  0.931491  0.0  0.403767  9.6e-05  0.91615  0.0  0.303216  0.385358  0.000261  0.940602  0.0
H  H13  1  0.36264046  0.84593906  0.28104905  1  0.420972  -0.000241  0.855399  -0.001  0.393208  0.000185  0.93148  0.0  0.403765  9.6e-05  0.916142  0.0  0.303208  0.385355  0.000261  0.940571  0.0
H  H14  1  0.63736107  0.34593897  0.21894992  1  0.420966  0.00024  0.85545  0.001  0.393196  -0.000185  0.931506  0.0  0.403753  -9.6e-05  0.916167  0.0  0.303222  0.385342  -0.000261  0.94063  0.0
H  H15  1  0.86263911  0.65406152  0.71895012  1  0.420966  0.000241  0.855439  0.001  0.393191  -0.000185  0.931518  0.0  0.40375  -9.6e-05  0.916175  0.0  0.303216  0.385338  -0.000261  0.940628  0.0
H  H16  1  0.10956840  0.95152335  0.81095563  1  0.426818  -0.0  0.868686  -0.001  0.398675  0.000355  0.93133  0.0  0.410022  0.000234  0.914972  0.0  0.297332  0.390505  0.000461  0.943009  0.0
H  H17  1  0.39043319  0.04847435  0.31095682  1  0.426894  -1e-06  0.868558  -0.001  0.398683  0.000355  0.931351  0.0  0.410031  0.000234  0.914991  0.0  0.297299  0.390514  0.000461  0.943025  0.0
H  H18  1  0.60956451  0.54847461  0.18904371  1  0.426905  0.0  0.868554  0.001  0.398705  -0.000355  0.931323  0.0  0.410042  -0.000234  0.914978  0.0  0.297307  0.390536  -0.000461  0.942997  0.0
H  H19  1  0.89043317  0.45152595  0.68904332  1  0.426826  1e-06  0.868653  0.001  0.398601  -0.000355  0.931465  0.0  0.40995  -0.000234  0.915104  0.0  0.297252  0.390431  -0.000461  0.94314  0.0
H  H20  1  0.76635290  0.45054729  0.86174706  1  0.416819  -0.000318  0.884485  -0.001  0.39022  0.000148  0.944279  0.0  0.400482  3.3e-05  0.929614  0.0  0.294554  0.382785  0.000252  0.954835  0.0
H  H21  1  0.73364951  0.54945156  0.36174805  1  0.416774  -0.000318  0.884525  -0.001  0.390177  0.000148  0.944332  0.0  0.400439  3.3e-05  0.929665  0.0  0.294546  0.382743  0.000252  0.954884  0.0
H  H22  1  0.26635077  0.04945037  0.13825247  1  0.41676  0.000317  0.884562  0.001  0.390164  -0.000148  0.944355  0.0  0.400426  -3.3e-05  0.929689  0.0  0.294537  0.382729  -0.000252  0.954909  0.0
H  H23  1  0.23364996  0.95054771  0.63825394  1  0.416775  0.000317  0.884524  0.001  0.390175  -0.000148  0.944338  0.0  0.400437  -3.3e-05  0.929672  0.0  0.294536  0.382742  -0.000252  0.95489  0.0
H  H24  1  0.88005545  0.34758528  0.93595838  1  0.413622  -0.000397  0.895201  -0.002  0.381797  6.4e-05  0.961227  0.0  0.393385  -7e-05  0.944836  -0.001  0.29029  0.373671  0.000205  0.972616  0.0
H  H25  1  0.61994678  0.65241341  0.43596007  1  0.413612  -0.000397  0.895203  -0.002  0.381781  6.4e-05  0.96124  0.0  0.393369  -7e-05  0.944848  -0.001  0.290291  0.373654  0.000205  0.972629  0.0
H  H26  1  0.38005219  0.15241237  0.06404108  1  0.413649  0.000397  0.895156  0.002  0.381815  -6.4e-05  0.961195  0.0  0.393406  7e-05  0.944797  0.001  0.290309  0.373688  -0.000205  0.972584  0.0
H  H27  1  0.11994743  0.84758720  0.56404132  1  0.413655  0.000397  0.895151  0.002  0.381823  -6.4e-05  0.961188  0.0  0.393412  7e-05  0.944794  0.001  0.290298  0.373695  -0.000205  0.972578  0.0
H  H28  1  0.72264454  0.92187142  0.67043037  1  0.33469  2.7e-05  0.895794  0.001  0.310806  -2.2e-05  0.964078  0.001  0.320383  -5.9e-05  0.955591  0.0  0.323549  0.303913  1.9e-05  0.970339  0.001
H  H29  1  0.77735318  0.07812653  0.17043093  1  0.334668  2.7e-05  0.895758  0.001  0.310811  -2.2e-05  0.96404  0.001  0.320386  -5.9e-05  0.955556  0.0  0.323527  0.303916  1.9e-05  0.9703  0.001
H  H30  1  0.22264452  0.57812785  0.32956957  1  0.334688  -2.6e-05  0.895793  -0.001  0.310812  2.2e-05  0.964074  -0.001  0.320388  5.9e-05  0.955588  0.0  0.32355  0.303918  -1.9e-05  0.970336  -0.001
H  H31  1  0.27735703  0.42186848  0.82956928  1  0.334682  -2.6e-05  0.895698  -0.001  0.310819  2.1e-05  0.963977  -0.001  0.320396  5.9e-05  0.955491  0.0  0.323548  0.303927  -1.9e-05  0.970237  -0.001
H  H32  1  0.87742998  0.37453540  0.52250721  1  0.160698  0.000374  0.93989  0.001  0.166634  0.000316  1.001283  0.0  0.171504  0.000228  0.999609  0.0  0.117147  0.163132  0.000409  1.002798  0.001
H  H33  1  0.62255778  0.62547082  0.02250823  1  0.160711  0.000374  0.939917  0.001  0.166639  0.000316  1.00132  0.0  0.171509  0.000228  0.999648  0.0  0.117145  0.163137  0.000409  1.002839  0.001
H  H34  1  0.37743217  0.12546489  0.47749429  1  0.160674  -0.000375  0.939928  -0.001  0.166606  -0.000316  1.001319  0.0  0.171477  -0.000228  0.999645  0.0  0.117139  0.163106  -0.000409  1.002833  -0.001
H  H35  1  0.12257160  0.87453244  0.97749110  1  0.160693  -0.000373  0.939867  -0.001  0.166609  -0.000316  1.001293  0.0  0.171478  -0.000228  0.99962  0.0  0.117143  0.163108  -0.000409  1.002803  -0.001
C  C36  1  0.68879485  0.89978249  0.53049774  1  0.738503  -0.001215  3.80898  -0.002  0.678287  0.000439  4.104423  0.0  0.714372  6.8e-05  4.100052  -0.001  0.344297  0.653717  0.000789  4.106611  0.0
C  C37  1  0.81120064  0.10022107  0.03049416  1  0.73835  -0.001217  3.809109  -0.002  0.678218  0.000439  4.104518  0.0  0.714287  6.9e-05  4.100169  -0.001  0.344218  0.653649  0.000788  4.106703  0.0
C  C38  1  0.18879834  0.60021679  0.46950565  1  0.738308  0.001218  3.809251  0.002  0.678185  -0.000439  4.104579  0.0  0.714249  -7e-05  4.10024  0.001  0.344251  0.653618  -0.000788  4.10676  0.0
C  C39  1  0.31120673  0.39977792  0.96950329  1  0.738338  0.001215  3.809229  0.002  0.678231  -0.00044  4.104559  0.0  0.71431  -7e-05  4.100204  0.001  0.344293  0.653664  -0.000788  4.106748  0.0
C  C40  1  0.80428464  0.15590325  0.61220118  1  0.621361  -0.003733  3.800146  -0.005  0.578389  -0.000796  4.083314  -0.001  0.612508  -0.000614  4.08079  -0.001  0.237169  0.554568  -0.001251  4.084833  -0.002
C  C41  1  0.69571193  0.84410012  0.11219928  1  0.621418  -0.003732  3.799975  -0.005  0.578425  -0.000796  4.083263  -0.001  0.612512  -0.000613  4.080752  -0.001  0.237205  0.554605  -0.001251  4.084777  -0.002
C  C42  1  0.30428573  0.34409705  0.38779969  1  0.621343  0.00373  3.800149  0.005  0.578386  0.000796  4.083307  0.001  0.612503  0.000612  4.080783  0.001  0.23718  0.554571  0.001251  4.084818  0.002
C  C43  1  0.19571697  0.65589915  0.88780000  1  0.621355  0.003732  3.800062  0.005  0.578411  0.000796  4.083279  0.001  0.612526  0.000613  4.080758  0.001  0.237167  0.554603  0.001251  4.084782  0.002
C  C44  1  0.82729651  0.24044512  0.52602750  1  -0.320892  0.004094  3.642497  0.006  -0.354527  0.002363  3.906001  0.003  -0.371078  0.001731  3.921687  0.002  -0.10944  -0.344105  0.00296  3.896734  0.004
C  C45  1  0.67269511  0.75955977  0.02602498  1  -0.320893  0.004094  3.642553  0.006  -0.354481  0.002362  3.905993  0.003  -0.371027  0.00173  3.921699  0.002  -0.109433  -0.344065  0.00296  3.89673  0.004
C  C46  1  0.32729998  0.25955254  0.47397405  1  -0.320886  -0.004094  3.642537  -0.006  -0.354463  -0.002363  3.906014  -0.003  -0.371006  -0.001729  3.921701  -0.002  -0.109438  -0.344048  -0.00296  3.896748  -0.004
C  C47  1  0.17270121  0.74044216  0.97397295  1  -0.320866  -0.004095  3.642504  -0.006  -0.35452  -0.002363  3.905962  -0.003  -0.371066  -0.001731  3.921653  -0.002  -0.109427  -0.344101  -0.00296  3.89669  -0.004
C  C48  1  0.78385130  0.14675559  0.44873106  1  0.178029  -0.002958  3.800282  -0.004  0.174224  -0.000648  4.058491  -0.002  0.186628  -0.000639  4.074737  -0.002  0.113547  0.165422  -0.000988  4.047567  -0.002
C  C49  1  0.71614315  0.85324705  0.94873260  1  0.177873  -0.002955  3.800275  -0.004  0.174135  -0.000647  4.058404  -0.002  0.186515  -0.000638  4.074686  -0.002  0.113544  0.165336  -0.000988  4.047481  -0.002
C  C50  1  0.28385456  0.35324472  0.55126778  1  0.178016  0.002959  3.800167  0.004  0.174132  0.000648  4.058481  0.002  0.186521  0.000638  4.074749  0.002  0.11352  0.165331  0.000988  4.047559  0.002
C  C51  1  0.21614896  0.64675090  0.05126735  1  0.177845  0.002955  3.800421  0.004  0.174207  0.000648  4.058448  0.002  0.186598  0.000639  4.074713  0.002  0.113531  0.165406  0.000988  4.047525  0.002
C  C52  1  0.80291455  0.22640908  0.35461943  1  0.627823  -0.001957  3.852695  -0.003  0.579147  0.000518  4.146116  0.0  0.613566  0.000433  4.134547  0.0  0.227184  0.554865  0.000331  4.153669  0.0
C  C53  1  0.69708530  0.77358847  0.85461967  1  0.62802  -0.001958  3.85233  -0.003  0.579288  0.000518  4.14579  0.0  0.613714  0.000432  4.134223  0.0  0.227244  0.555007  0.00033  4.153341  0.0
C  C54  1  0.30291629  0.27358990  0.64538076  1  0.627901  0.001957  3.852445  0.003  0.579224  -0.000517  4.145903  0.0  0.613648  -0.000432  4.134335  0.0  0.227206  0.554945  -0.000331  4.153454  0.0
C  C55  1  0.19708313  0.72640816  0.14538030  1  0.627954  0.001957  3.852491  0.003  0.579203  -0.000518  4.145932  0.0  0.613629  -0.000432  4.134363  0.0  0.227223  0.554919  -0.000331  4.15349  0.0
N  N56  1  0.71680057  0.98094141  0.44919669  1  -0.526362  0.058417  3.236916  0.088  -0.498453  0.037827  3.53471  0.057  -0.535784  0.030107  3.547922  0.046  -0.362279  -0.471281  0.044035  3.524731  0.065
N  N57  1  0.78319646  0.01906388  0.94919663  1  -0.526226  0.058412  3.237125  0.088  -0.498298  0.037824  3.534808  0.057  -0.53563  0.030104  3.548045  0.046  -0.36226  -0.471144  0.044031  3.524834  0.065
N  N58  1  0.21680517  0.51906184  0.55080327  1  -0.526255  -0.058411  3.237146  -0.088  -0.49832  -0.037824  3.53489  -0.057  -0.535647  -0.030102  3.548124  -0.046  -0.362247  -0.471163  -0.044031  3.524914  -0.065
N  N59  1  0.28319965  0.48093908  0.05080494  1  -0.526171  -0.058413  3.237056  -0.088  -0.498311  -0.037825  3.53473  -0.057  -0.535634  -0.030103  3.547954  -0.046  -0.36222  -0.471154  -0.044033  3.524752  -0.065
N  N60  1  0.73675518  0.98790837  0.60909459  1  -0.486892  0.002833  3.252545  0.005  -0.425109  0.001494  3.486896  0.003  -0.448811  0.00118  3.487067  0.002  -0.375607  -0.409359  0.001713  3.487062  0.003
N  N61  1  0.76324011  0.01209634  0.10909315  1  -0.486785  0.002831  3.252302  0.005  -0.425135  0.001493  3.486796  0.003  -0.448834  0.001177  3.486986  0.002  -0.37556  -0.409387  0.001713  3.486959  0.003
N  N62  1  0.23675888  0.51209223  0.39090534  1  -0.486802  -0.002835  3.252449  -0.005  -0.425076  -0.001494  3.486791  -0.003  -0.448769  -0.001178  3.48697  -0.002  -0.375579  -0.40933  -0.001713  3.486953  -0.003
N  N63  1  0.26324509  0.48790662  0.89090639  1  -0.486777  -0.002833  3.252452  -0.005  -0.425126  -0.001493  3.486884  -0.003  -0.448823  -0.001178  3.48706  -0.002  -0.375599  -0.409375  -0.001712  3.487028  -0.003
O  O64  1  0.55914511  0.18391460  0.81235737  1  -0.839359  0.036363  1.97177  0.057  -0.810746  0.027188  2.178993  0.042  -0.838024  0.021743  2.143034  0.034  -0.590055  -0.788966  0.032092  2.2047  0.049
O  O65  1  0.94085613  0.81608701  0.31235874  1  -0.839289  0.036364  1.971855  0.057  -0.810675  0.027187  2.179063  0.042  -0.837946  0.021743  2.143109  0.034  -0.590063  -0.788876  0.032092  2.204779  0.049
O  O66  1  0.05914411  0.31608838  0.18764162  1  -0.839403  -0.036363  1.971804  -0.057  -0.810789  -0.027188  2.179017  -0.042  -0.83806  -0.021743  2.143057  -0.034  -0.590097  -0.788999  -0.032092  2.204727  -0.049
O  O67  1  0.44085650  0.68391753  0.68764311  1  -0.839361  -0.036364  1.97178  -0.057  -0.810749  -0.027189  2.179  -0.042  -0.838023  -0.021744  2.143049  -0.034  -0.590053  -0.788965  -0.032093  2.204706  -0.049
O  O68  1  0.07959882  0.07684417  0.82548966  1  -0.787656  0.04145  1.941714  0.064  -0.764491  0.029601  2.163135  0.046  -0.791161  0.023442  2.12851  0.037  -0.571722  -0.74304  0.035129  2.185825  0.053
O  O69  1  0.42040016  0.92315482  0.32549029  1  -0.78771  0.041451  1.941604  0.064  -0.764529  0.029601  2.16304  0.046  -0.791189  0.023442  2.128419  0.037  -0.571685  -0.743053  0.03513  2.185712  0.053
O  O70  1  0.57959878  0.42315351  0.17451001  1  -0.787706  -0.041447  1.941679  -0.064  -0.764515  -0.029602  2.163059  -0.046  -0.791178  -0.023443  2.128451  -0.037  -0.571692  -0.743047  -0.035129  2.185754  -0.053
O  O71  1  0.92040280  0.57684708  0.67451020  1  -0.78763  -0.04145  1.941744  -0.064  -0.764429  -0.029602  2.163158  -0.046  -0.791099  -0.023443  2.128534  -0.037  -0.571649  -0.742967  -0.035129  2.185852  -0.053
O  O72  1  0.87004070  0.37507259  0.86880597  1  -0.787187  0.050458  1.934129  0.078  -0.761004  0.03431  2.136532  0.053  -0.791657  0.026737  2.10586  0.042  -0.576761  -0.736878  0.040926  2.157812  0.062
O  O73  1  0.62996298  0.62492625  0.36880630  1  -0.787118  0.050456  1.934169  0.078  -0.760958  0.034308  2.136624  0.053  -0.791594  0.026736  2.105944  0.042  -0.576739  -0.736816  0.040925  2.157906  0.062
O  O74  1  0.37003729  0.12492506  0.13119418  1  -0.787151  -0.050454  1.934157  -0.078  -0.76099  -0.034308  2.136615  -0.053  -0.791627  -0.026737  2.105932  -0.042  -0.576764  -0.736859  -0.040925  2.157892  -0.062
O  O75  1  0.12996217  0.87507568  0.63119440  1  -0.787166  -0.050455  1.934094  -0.078  -0.760992  -0.034309  2.13655  -0.053  -0.791638  -0.026736  2.105871  -0.042  -0.576747  -0.736861  -0.040926  2.157829  -0.062
O  O76  1  0.62113898  0.74746404  0.53660997  1  -0.614811  -0.002125  1.96294  -0.003  -0.552538  -0.000965  2.168112  -0.001  -0.577139  -0.000786  2.155635  -0.001  -0.29639  -0.53563  -0.001151  2.176597  -0.001
O  O77  1  0.87886423  0.25254348  0.03660762  1  -0.614804  -0.002125  1.962773  -0.003  -0.552571  -0.000965  2.167927  -0.001  -0.577164  -0.000786  2.155462  -0.001  -0.296364  -0.535664  -0.001151  2.176411  -0.001
O  O78  1  0.12113731  0.75254054  0.46339141  1  -0.614774  0.002126  1.9629  0.003  -0.55254  0.000965  2.168027  0.001  -0.577142  0.000786  2.155572  0.001  -0.296382  -0.535635  0.001151  2.17651  0.001
O  O79  1  0.37886132  0.24746079  0.96339183  1  -0.61482  0.002125  1.963053  0.003  -0.552563  0.000965  2.168167  0.001  -0.577178  0.000786  2.155701  0.001  -0.29642  -0.535656  0.001151  2.176651  0.001
O  O80  1  0.84244436  0.22601282  0.68889906  1  -0.588099  0.030969  2.081749  0.05  -0.539359  0.022719  2.327627  0.036  -0.57164  0.018243  2.316064  0.03  -0.290097  -0.515151  0.026755  2.335255  0.042
O  O81  1  0.65755331  0.77398774  0.18889791  1  -0.588082  0.030968  2.081698  0.05  -0.539415  0.022718  2.327676  0.036  -0.571601  0.018245  2.316053  0.03  -0.2901  -0.515196  0.026755  2.335301  0.042
O  O82  1  0.34244435  0.27398351  0.31110110  1  -0.588065  -0.030969  2.081712  -0.05  -0.539373  -0.022719  2.327631  -0.036  -0.571642  -0.018244  2.316061  -0.03  -0.290096  -0.515164  -0.026756  2.335248  -0.042
O  O83  1  0.15756111  0.72601154  0.81110002  1  -0.587985  -0.030972  2.081628  -0.05  -0.539333  -0.02272  2.327554  -0.036  -0.571601  -0.018245  2.31598  -0.03  -0.290071  -0.515126  -0.026757  2.335175  -0.042
O  O84  1  0.73738794  0.13780256  0.28804922  1  -0.619053  0.044241  2.127362  0.071  -0.578654  0.029782  2.386735  0.048  -0.612429  0.023366  2.374826  0.038  -0.298429  -0.552717  0.035688  2.394124  0.057
O  O85  1  0.76261337  0.86219514  0.78804662  1  -0.619171  0.044245  2.127252  0.071  -0.578745  0.029783  2.386646  0.048  -0.612535  0.023367  2.374741  0.038  -0.298472  -0.552821  0.03569  2.394035  0.057
O  O86  1  0.23738821  0.36219908  0.71195170  1  -0.619132  -0.044246  2.127368  -0.071  -0.578697  -0.029783  2.386706  -0.048  -0.612484  -0.023368  2.3748  -0.038  -0.298454  -0.55277  -0.035689  2.394096  -0.057
O  O87  1  0.26261233  0.63780016  0.21195125  1  -0.619109  -0.044245  2.127275  -0.071  -0.578703  -0.029784  2.386688  -0.048  -0.612485  -0.023368  2.374782  -0.038  -0.298465  -0.552776  -0.03569  2.394074  -0.057
O  O88  1  0.87675532  0.37396361  0.34491036  1  -0.598467  0.004682  2.00334  0.007  -0.541344  0.002706  2.213428  0.004  -0.56443  0.001581  2.202317  0.003  -0.298942  -0.525188  0.003991  2.221242  0.006
O  O89  1  0.62324197  0.62603528  0.84491073  1  -0.598527  0.004681  2.00327  0.007  -0.541391  0.002706  2.21339  0.004  -0.564465  0.00158  2.202265  0.003  -0.298958  -0.525234  0.00399  2.221202  0.006
O  O90  1  0.37675706  0.12603536  0.65509183  1  -0.598487  -0.00468  2.003271  -0.007  -0.54136  -0.002706  2.213371  -0.004  -0.564442  -0.001581  2.202257  -0.003  -0.298939  -0.525202  -0.00399  2.221182  -0.006
O  O91  1  0.12324362  0.87396400  0.15508928  1  -0.598493  -0.00468  2.003352  -0.007  -0.541358  -0.002707  2.213465  -0.004  -0.56444  -0.001581  2.202347  -0.003  -0.298962  -0.525202  -0.003991  2.221282  -0.006
