# generated using pymatgen
data_CoH28C26(N2O)4
_symmetry_space_group_name_H-M   'P 1'
_cell_length_a   10.49403849
_cell_length_b   13.41484913
_cell_length_c   20.92866328
_cell_angle_alpha   90.01675832
_cell_angle_beta   94.36345037
_cell_angle_gamma   90.02943597
_symmetry_Int_Tables_number   1
_chemical_formula_structural   CoH28C26(N2O)4
_chemical_formula_sum   'Co4 H112 C104 N32 O16'
_cell_volume   2937.71201601
_cell_formula_units_Z   4
loop_
 _symmetry_equiv_pos_site_id
 _symmetry_equiv_pos_as_xyz
  1  'x, y, z'
loop_
 _atom_site_type_symbol
 _atom_site_label
 _atom_site_symmetry_multiplicity
 _atom_site_fract_x
 _atom_site_fract_y
 _atom_site_fract_z
 _atom_site_occupancy
 _atom_site_pbe_bader_charge
 _atom_site_pbe_bader_spin_density
 _atom_site_pbe_cm5_charge
 _atom_site_pbe_ddec_charge
 _atom_site_pbe_ddec_spin_density
 _atom_site_pbe_ddec_sum_bond_order
 _atom_site_pbe_magmom
Co  Co0  1  0.49999771  0.50000311  0.99999824  1  1.257693  2.594275  0.678857  0.707286  2.797911  2.664337  2.577
Co  Co1  1  0.49999860  0.99999389  0.50000282  1  1.257742  2.594046  0.67953  0.708049  2.797995  2.668851  2.577
Co  Co2  1  0.00000447  0.49999815  0.49999934  1  1.268149  2.611013  0.677679  0.727885  2.818104  2.680627  2.595
Co  Co3  1  0.00000284  0.00000447  0.00000156  1  1.262723  2.602986  0.671064  0.713415  2.806596  2.674021  2.586
H  H4  1  0.56209215  0.35854259  0.17658670  1  0.053946  0.000142  0.097295  0.089114  3.2e-05  1.059544  0.0
H  H5  1  0.43798146  0.85858294  0.32365460  1  0.049861  0.000148  0.097494  0.089129  4.9e-05  1.060093  0.0
H  H6  1  0.43790452  0.64145700  0.82341284  1  0.054085  0.000142  0.097268  0.08903  3.2e-05  1.059618  0.0
H  H7  1  0.56202186  0.14141442  0.67634714  1  0.049967  0.000149  0.097471  0.088997  4.9e-05  1.060131  0.0
H  H8  1  0.81118264  0.59992713  0.23735883  1  0.070274  5e-05  0.104259  0.110142  -6e-06  1.02564  0.0
H  H9  1  0.18903307  0.09987467  0.26292123  1  0.070914  5.6e-05  0.104363  0.110138  4e-06  1.024849  0.0
H  H10  1  0.18881982  0.40007023  0.76263762  1  0.070016  5e-05  0.104282  0.110218  -7e-06  1.02555  0.0
H  H11  1  0.81097308  0.90012269  0.73708255  1  0.070883  5.6e-05  0.104317  0.110078  4e-06  1.024883  0.0
H  H12  1  0.71646849  0.37754220  0.37306492  1  0.068958  0.000231  0.099704  0.099989  0.000113  1.052904  0.0
H  H13  1  0.28371575  0.87765534  0.12718321  1  0.074345  0.000112  0.099772  0.100325  2.2e-05  1.053331  0.0
H  H14  1  0.28352721  0.62246410  0.62693506  1  0.068887  0.000231  0.09972  0.100053  0.000113  1.05288  0.0
H  H15  1  0.71629715  0.12234798  0.87281798  1  0.074376  0.000112  0.09979  0.100412  2.2e-05  1.053267  0.0
H  H16  1  0.29271516  0.59729488  0.51706249  1  0.125793  0.000298  0.122903  0.117127  -7.8e-05  1.009054  0.0
H  H17  1  0.70821422  0.09799328  0.98301552  1  0.123724  0.000359  0.124063  0.118826  -2.9e-05  1.007915  0.0
H  H18  1  0.70730166  0.40269801  0.48293362  1  0.125601  0.000298  0.122873  0.117051  -7.8e-05  1.009122  0.0
H  H19  1  0.29179768  0.90202048  0.01698802  1  0.123986  0.000359  0.124011  0.118768  -2.9e-05  1.007956  0.0
H  H20  1  0.19628375  0.59958792  0.98804402  1  0.119441  0.000373  0.122828  0.115243  -5e-06  0.998738  0.0
H  H21  1  0.80369422  0.09958228  0.51194367  1  0.119219  0.000384  0.122937  0.115487  0.0  0.998672  0.0
H  H22  1  0.80370161  0.40041614  0.01194691  1  0.119689  0.000372  0.122809  0.115283  -5e-06  0.998769  0.0
H  H23  1  0.19630909  0.90040687  0.48805855  1  0.119444  0.000384  0.12292  0.115523  0.0  0.998635  0.0
H  H24  1  0.41527549  0.44995117  0.12356129  1  0.530432  0.000215  0.331442  0.266082  -0.000155  0.97032  0.0
H  H25  1  0.58451257  0.94985912  0.37642841  1  0.52896  0.000216  0.331549  0.266092  -0.000154  0.970533  0.0
H  H26  1  0.58471269  0.55005587  0.87643215  1  0.53021  0.000215  0.331436  0.266075  -0.000155  0.970231  0.0
H  H27  1  0.41547923  0.05013227  0.62357523  1  0.529134  0.000216  0.331604  0.266249  -0.000154  0.970439  0.0
H  H28  1  0.20403807  0.47612390  0.17989444  1  0.117788  0.000756  0.127409  0.122737  0.000287  0.987581  0.0
H  H29  1  0.79577160  0.97597845  0.32006517  1  0.115559  0.000763  0.12718  0.122361  0.000288  0.988632  0.0
H  H30  1  0.79595013  0.52388389  0.82009805  1  0.117702  0.000756  0.127473  0.122771  0.000287  0.987545  0.0
H  H31  1  0.20421360  0.02401891  0.67993388  1  0.115504  0.000763  0.12717  0.12237  0.000288  0.988635  0.0
H  H32  1  0.93938079  0.53943186  0.08036495  1  0.064084  0.000405  0.097256  0.103985  0.000166  0.999361  0.0
H  H33  1  0.06049171  0.03942321  0.41957476  1  0.066366  0.000413  0.097374  0.104294  0.00017  0.999337  0.0
H  H34  1  0.06060352  0.46057295  0.91963119  1  0.064202  0.000405  0.097287  0.104079  0.000166  0.999336  0.0
H  H35  1  0.93949826  0.96057191  0.58042497  1  0.06433  0.000414  0.097353  0.104235  0.00017  0.999384  0.0
H  H36  1  0.00035189  0.61634370  0.14265033  1  0.037406  0.000363  0.102439  0.113531  0.000135  0.963191  0.0
H  H37  1  0.99959485  0.11625744  0.35729670  1  0.036543  0.000327  0.102434  0.113451  0.000124  0.963213  0.0
H  H38  1  0.99963908  0.38365291  0.85734753  1  0.037359  0.000363  0.102417  0.113535  0.000135  0.963116  0.0
H  H39  1  0.00039705  0.88373767  0.64270216  1  0.036586  0.000327  0.102432  0.11345  0.000124  0.963179  0.0
H  H40  1  0.09557723  0.46747409  0.36501157  1  0.503513  0.000335  0.349039  0.277088  -0.000138  0.914794  0.0
H  H41  1  0.90478410  0.96824658  0.13520348  1  0.501457  0.00037  0.349694  0.278426  -7.7e-05  0.913665  0.0
H  H42  1  0.90442712  0.53252476  0.63498639  1  0.503585  0.000336  0.349059  0.277147  -0.000138  0.914722  0.0
H  H43  1  0.09521341  0.03175972  0.86480184  1  0.501762  0.00037  0.349642  0.278441  -7.7e-05  0.913713  0.0
H  H44  1  0.31705365  0.49538227  0.32167304  1  0.09727  0.00073  0.124868  0.119896  0.000227  1.014844  0.0
H  H45  1  0.68295662  0.99534296  0.17815493  1  0.100938  0.000794  0.125544  0.120142  0.000311  1.013659  0.0
H  H46  1  0.68294978  0.50460987  0.67832297  1  0.097433  0.00073  0.124867  0.119921  0.000227  1.014903  0.0
H  H47  1  0.31703906  0.00466260  0.82184648  1  0.100695  0.000794  0.125545  0.120158  0.00031  1.013724  0.0
H  H48  1  0.67030014  0.21655922  0.37701808  1  0.023764  -4e-06  0.081869  0.112424  -2.9e-05  1.028732  0.0
H  H49  1  0.32965002  0.71665770  0.12303455  1  0.025784  -3e-06  0.082015  0.112658  -2.7e-05  1.028617  0.0
H  H50  1  0.32970322  0.78344485  0.62298223  1  0.023597  -4e-06  0.081879  0.112412  -2.9e-05  1.028794  0.0
H  H51  1  0.67035999  0.28334711  0.87696748  1  0.025787  -3e-06  0.082022  0.112633  -2.7e-05  1.028525  0.0
H  H52  1  0.51517322  0.16411356  0.36959931  1  0.050323  -0.000124  0.088075  0.126345  -0.000128  1.028336  0.0
H  H53  1  0.48474402  0.66422628  0.13042312  1  0.050058  -0.000124  0.087835  0.126045  -0.000127  1.028599  0.0
H  H54  1  0.48483006  0.83588902  0.63040434  1  0.04992  -0.000124  0.088064  0.126349  -0.000128  1.028327  0.0
H  H55  1  0.51526312  0.33577630  0.86957926  1  0.049817  -0.000124  0.087793  0.126024  -0.000127  1.028548  0.0
H  H56  1  0.53477490  0.29012497  0.39286268  1  0.035792  6e-06  0.083095  0.114053  -4e-06  1.023433  0.0
H  H57  1  0.46522545  0.79025204  0.10723337  1  0.035298  1.6e-05  0.082803  0.113555  9e-06  1.023853  0.0
H  H58  1  0.46522841  0.70987910  0.60713954  1  0.035871  6e-06  0.083117  0.114074  -4e-06  1.023425  0.0
H  H59  1  0.53478549  0.20975203  0.89277013  1  0.035588  1.6e-05  0.082816  0.113539  9e-06  1.023883  0.0
H  H60  1  0.70147895  0.15977631  0.26320517  1  -0.018342  1.3e-05  0.080707  0.108508  5e-06  1.020965  0.0
H  H61  1  0.29849659  0.65974346  0.23680988  1  -0.018603  -8e-06  0.080807  0.1086  -1.6e-05  1.020777  0.0
H  H62  1  0.29851957  0.84022477  0.73679732  1  -0.018362  1.3e-05  0.08071  0.10847  5e-06  1.020965  0.0
H  H63  1  0.70150680  0.34025762  0.76318852  1  -0.018657  -8e-06  0.080809  0.108587  -1.6e-05  1.020773  0.0
H  H64  1  0.58997442  0.19333110  0.19872884  1  0.02782  -1.5e-05  0.083134  0.112814  -2.2e-05  1.036912  0.0
H  H65  1  0.40999601  0.69329045  0.30131894  1  0.026842  -5.1e-05  0.083169  0.113081  -6.7e-05  1.03636  0.0
H  H66  1  0.41002314  0.80666626  0.80127409  1  0.027849  -1.5e-05  0.083119  0.112788  -2.2e-05  1.036813  0.0
H  H67  1  0.59000445  0.30670542  0.69868220  1  0.026857  -5.1e-05  0.083167  0.113097  -6.7e-05  1.036342  0.0
H  H68  1  0.54429196  0.10757442  0.25767113  1  0.03213  1.7e-05  0.082733  0.115507  -1e-06  1.020143  0.0
H  H69  1  0.45565053  0.60756772  0.24232906  1  0.01447  1.4e-05  0.082672  0.115503  2e-06  1.019661  0.0
H  H70  1  0.45570748  0.89242592  0.74233331  1  0.032161  1.7e-05  0.082689  0.11542  -1e-06  1.020258  0.0
H  H71  1  0.54435189  0.39243188  0.75766977  1  0.014149  1.4e-05  0.082675  0.115515  2e-06  1.019682  0.0
H  H72  1  0.38984158  0.29508398  0.22120096  1  0.025606  -1.2e-05  0.080706  0.111405  -1.7e-05  1.018205  0.0
H  H73  1  0.61029011  0.79516121  0.27885914  1  0.024608  -7e-06  0.080831  0.111778  -1.2e-05  1.01812  0.0
H  H74  1  0.61015214  0.70491486  0.77880228  1  0.0255  -1.2e-05  0.080675  0.111395  -1.7e-05  1.018204  0.0
H  H75  1  0.38971600  0.20483391  0.72114655  1  0.024779  -7e-06  0.080813  0.111785  -1.2e-05  1.018099  0.0
H  H76  1  0.37335390  0.34118269  0.30017985  1  -0.000596  -9e-06  0.076632  0.099937  -3.2e-05  1.045715  0.0
H  H77  1  0.62674208  0.84121337  0.19986856  1  -0.001249  3.2e-05  0.07655  0.099593  1.3e-05  1.045782  0.0
H  H78  1  0.62664366  0.65881541  0.69982308  1  -0.000559  -9e-06  0.076658  0.100014  -3.2e-05  1.045642  0.0
H  H79  1  0.37326975  0.15878474  0.80013785  1  -0.001121  3.2e-05  0.07658  0.099581  1.3e-05  1.04585  0.0
H  H80  1  0.35378566  0.21241762  0.28345161  1  0.064865  -1.3e-05  0.088157  0.131524  -1.6e-05  1.029016  0.0
H  H81  1  0.64623877  0.71244662  0.21656808  1  0.064998  -1.7e-05  0.088227  0.131543  -2.1e-05  1.028496  0.0
H  H82  1  0.64621378  0.78758048  0.71655283  1  0.064683  -1.3e-05  0.088193  0.131574  -1.6e-05  1.029022  0.0
H  H83  1  0.35376640  0.28754999  0.78343708  1  0.065003  -1.7e-05  0.088198  0.131502  -2.1e-05  1.028564  0.0
H  H84  1  0.92307253  0.81294078  0.91879775  1  0.569337  0.000287  0.303486  0.260671  -0.00011  1.041082  0.0
H  H85  1  0.07806146  0.31252149  0.58128474  1  0.567286  0.000353  0.304119  0.261293  -2.5e-05  1.040002  0.0
H  H86  1  0.07692792  0.18707000  0.08120435  1  0.569335  0.000287  0.303531  0.260733  -0.00011  1.040917  0.0
H  H87  1  0.92193526  0.68747811  0.41871194  1  0.567184  0.000354  0.304127  0.261289  -2.5e-05  1.039957  0.0
H  H88  1  0.04622498  0.81965393  0.11072772  1  0.106389  0.000306  0.114276  0.109397  -2e-05  1.02267  0.0
H  H89  1  0.95479310  0.31975712  0.38933686  1  0.098654  0.000358  0.11436  0.109362  1.2e-05  1.021677  0.0
H  H90  1  0.95377929  0.18034791  0.88927454  1  0.106509  0.000306  0.114267  0.109398  -1.9e-05  1.02256  0.0
H  H91  1  0.04520169  0.68024024  0.61066117  1  0.098718  0.000358  0.11433  0.109278  1.2e-05  1.021703  0.0
H  H92  1  0.91708867  0.62648825  0.95270482  1  0.107719  0.000664  0.115603  0.108558  0.000252  1.04114  0.0
H  H93  1  0.08288739  0.12625839  0.54720649  1  0.109424  0.000658  0.11588  0.108727  0.000259  1.040359  0.0
H  H94  1  0.08289172  0.37352326  0.04729594  1  0.107883  0.000664  0.11555  0.108571  0.000252  1.041219  0.0
H  H95  1  0.91710931  0.87374046  0.45279162  1  0.109413  0.000658  0.115865  0.108725  0.000259  1.040333  0.0
H  H96  1  0.68594231  0.83769072  0.55772555  1  0.561869  0.000258  0.309678  0.258192  -0.000158  1.034416  0.0
H  H97  1  0.31407340  0.33759447  0.94232099  1  0.563137  0.00026  0.309706  0.258448  -0.000158  1.033301  0.0
H  H98  1  0.31405813  0.16229546  0.44227654  1  0.561794  0.000258  0.309694  0.258277  -0.000158  1.034324  0.0
H  H99  1  0.68592710  0.66240886  0.05767824  1  0.563156  0.00026  0.309727  0.258478  -0.000158  1.033272  0.0
H  H100  1  0.37934691  0.79345724  0.42717769  1  0.118642  0.000386  0.117826  0.115057  -1e-05  1.006034  0.0
H  H101  1  0.62065167  0.29352586  0.07283336  1  0.118882  0.000386  0.117836  0.115011  -6e-06  1.005816  0.0
H  H102  1  0.62065840  0.20653788  0.57282031  1  0.118575  0.000386  0.117809  0.114959  -1e-05  1.00603  0.0
H  H103  1  0.37934401  0.70648193  0.92716805  1  0.118906  0.000386  0.117833  0.114965  -6e-06  1.005898  0.0
H  H104  1  0.53360231  0.59271962  0.37474960  1  0.059475  0.000476  0.099239  0.106876  0.000187  0.98373  0.0
H  H105  1  0.46673563  0.09258250  0.12514113  1  0.05937  0.000455  0.099171  0.106844  0.000178  0.98393  0.0
H  H106  1  0.46640687  0.40727475  0.62524619  1  0.059401  0.000476  0.099146  0.106738  0.000187  0.983888  0.0
H  H107  1  0.53326485  0.90742380  0.87485953  1  0.059748  0.000455  0.099172  0.106902  0.000178  0.983879  0.0
H  H108  1  0.56016183  0.52745702  0.44684528  1  0.067162  0.000182  0.09757  0.101997  8e-06  1.003919  0.0
H  H109  1  0.43996473  0.02728601  0.05307640  1  0.066243  0.000223  0.097804  0.102382  6.1e-05  1.002827  0.0
H  H110  1  0.43984833  0.47253661  0.55314911  1  0.067489  0.000181  0.097565  0.102017  8e-06  1.00384  0.0
H  H111  1  0.56004243  0.97271955  0.94692455  1  0.066059  0.000223  0.097776  0.102352  6.1e-05  1.002849  0.0
H  H112  1  0.71617682  0.65371097  0.52115849  1  0.094996  0.000697  0.120966  0.118264  0.000153  1.028573  0.0
H  H113  1  0.28374300  0.15364232  0.97878218  1  0.091362  0.000676  0.120639  0.117321  0.000207  1.029429  0.0
H  H114  1  0.28382853  0.34627744  0.47883713  1  0.095151  0.000697  0.121057  0.118294  0.000153  1.028408  0.0
H  H115  1  0.71626132  0.84636100  0.02121769  1  0.091232  0.000676  0.120594  0.11724  0.000207  1.029445  0.0
C  C116  1  0.68480261  0.48279316  0.20013002  1  -0.037408  0.005997  -0.027523  -0.044137  0.003143  4.016938  0.005
C  C117  1  0.31538531  0.98275859  0.30009130  1  -0.065979  0.005868  -0.027928  -0.044642  0.003082  4.018865  0.005
C  C118  1  0.31519791  0.51720568  0.79986826  1  -0.037287  0.005997  -0.027558  -0.044303  0.003143  4.01697  0.005
C  C119  1  0.68461990  0.01723951  0.69991148  1  -0.066013  0.005869  -0.02795  -0.044848  0.003083  4.018889  0.005
C  C120  1  0.61941075  0.39599901  0.21509346  1  -0.031098  -0.001786  -0.091082  -0.150517  -0.002143  3.953175  -0.001
C  C121  1  0.38078569  0.89599656  0.28513470  1  -0.014453  -0.001043  -0.091504  -0.151237  -0.001289  3.953487  -0.001
C  C122  1  0.38058688  0.60399984  0.78490565  1  -0.031223  -0.001787  -0.091066  -0.150296  -0.002145  3.953107  -0.001
C  C123  1  0.61921952  0.10400155  0.71486808  1  -0.013913  -0.001043  -0.091458  -0.15097  -0.001289  3.953398  -0.001
C  C124  1  0.76089511  0.53173461  0.24820070  1  -0.012683  -0.000362  -0.085042  -0.123284  -0.000952  3.969647  0.0
C  C125  1  0.23941461  0.03175258  0.25204409  1  -0.011748  0.000338  -0.084961  -0.123282  -0.000254  3.969352  0.0
C  C126  1  0.23910542  0.46826350  0.75179710  1  -0.012436  -0.000363  -0.085028  -0.123269  -0.000953  3.969516  0.0
C  C127  1  0.76058963  0.96824627  0.74795960  1  -0.013715  0.000339  -0.084942  -0.123208  -0.000254  3.969437  0.0
C  C128  1  0.77161437  0.49316011  0.31032911  1  0.007574  0.006246  -0.027286  -0.04118  0.003232  4.014954  0.005
C  C129  1  0.22890977  0.99312845  0.18994062  1  -0.045078  0.005888  -0.027426  -0.040593  0.003101  4.013823  0.005
C  C130  1  0.22838521  0.50684098  0.68966865  1  0.007611  0.006247  -0.027361  -0.041291  0.003232  4.015074  0.005
C  C131  1  0.77110212  0.00687338  0.81006340  1  -0.042946  0.005888  -0.027475  -0.040586  0.003101  4.014148  0.005
C  C132  1  0.66993675  0.52493568  0.13329100  1  1.573353  0.000152  0.20678  0.566003  -0.000543  4.209469  0.001
C  C133  1  0.33005089  0.02486584  0.36689470  1  1.571962  0.000163  0.206499  0.565633  -0.000541  4.213471  0.001
C  C134  1  0.33005996  0.47506317  0.86670664  1  1.57333  0.000153  0.206813  0.566106  -0.000542  4.209575  0.001
C  C135  1  0.66994571  0.97512481  0.63310819  1  1.572045  0.000163  0.206528  0.565664  -0.000542  4.212992  0.001
C  C136  1  0.70558873  0.40568797  0.32419817  1  -0.063689  -0.001513  -0.088669  -0.149893  -0.001838  3.941618  -0.001
C  C137  1  0.29489019  0.90569290  0.17606354  1  -0.007052  -0.001069  -0.089033  -0.15025  -0.001312  3.943648  -0.001
C  C138  1  0.29440794  0.59431610  0.67580137  1  -0.06373  -0.001513  -0.088585  -0.149775  -0.001839  3.941672  -0.001
C  C139  1  0.70511981  0.09430893  0.82393897  1  -0.007326  -0.00107  -0.089039  -0.150401  -0.001312  3.943728  -0.001
C  C140  1  0.27817979  0.56597769  0.46928230  1  0.408009  -0.004118  0.020403  -0.055226  -0.005231  3.944918  -0.002
C  C141  1  0.72250633  0.06670748  0.03079585  1  0.406109  0.000796  0.022554  -0.052686  9.1e-05  3.940825  0.001
C  C142  1  0.72183320  0.43401371  0.53071364  1  0.40827  -0.004119  0.020297  -0.055319  -0.005232  3.944794  -0.002
C  C143  1  0.27750170  0.93330404  0.96920943  1  0.406492  0.000795  0.022598  -0.052503  9.2e-05  3.940761  0.001
C  C144  1  0.62751567  0.35611199  0.27716740  1  -0.056887  0.000442  -0.007751  0.065496  0.000164  3.882162  0.0
C  C145  1  0.37275745  0.85610781  0.22305576  1  -0.055987  0.000267  -0.007445  0.066608  9.1e-05  3.883263  0.0
C  C146  1  0.37248196  0.64388909  0.72283171  1  -0.056873  0.000442  -0.007828  0.065264  0.000164  3.882431  0.0
C  C147  1  0.62725256  0.14389477  0.77694627  1  -0.056898  0.000267  -0.007459  0.066586  9.1e-05  3.883212  0.0
C  C148  1  0.14402672  0.55458794  0.08667131  1  -0.000174  0.004192  -0.027935  0.01165  0.002133  4.03656  0.003
C  C149  1  0.85588359  0.05456715  0.41329050  1  -0.001841  0.004038  -0.028023  0.01161  0.00205  4.037188  0.003
C  C150  1  0.85595956  0.44541463  0.91332158  1  0.000223  0.004191  -0.028002  0.011825  0.002133  4.036232  0.003
C  C151  1  0.14410927  0.94542573  0.58670792  1  -0.002225  0.004039  -0.027965  0.011805  0.00205  4.03714  0.003
C  C152  1  0.36380558  0.55913984  0.42044282  1  0.020731  0.002872  -0.026914  0.020876  0.001218  4.021444  0.002
C  C153  1  0.63651027  0.05927221  0.07939158  1  0.036067  0.002515  -0.026396  0.020738  0.001298  4.016475  0.002
C  C154  1  0.63620169  0.44085155  0.57955288  1  0.020028  0.002872  -0.02683  0.0211  0.001218  4.021029  0.002
C  C155  1  0.36349398  0.94073931  0.92061211  1  0.035568  0.002516  -0.026357  0.020729  0.001298  4.01638  0.002
C  C156  1  0.85280170  0.54636959  0.36211603  1  1.54569  -0.001157  0.200471  0.562129  -0.002207  4.219619  0.0
C  C157  1  0.14790620  0.04566209  0.13779256  1  1.552756  0.000496  0.199197  0.560689  -0.000326  4.223538  0.001
C  C158  1  0.14719884  0.45363373  0.63788129  1  1.545603  -0.001159  0.200444  0.561959  -0.002208  4.220382  0.0
C  C159  1  0.85210474  0.95434198  0.86221095  1  1.552572  0.000497  0.199383  0.560945  -0.000327  4.223266  0.001
C  C160  1  0.21847563  0.56221216  0.03347251  1  0.429717  0.001328  0.02124  -0.053891  0.000487  3.958538  0.002
C  C161  1  0.78147986  0.06218948  0.46650365  1  0.430944  0.001234  0.021199  -0.05455  0.0004  3.958942  0.002
C  C162  1  0.78150970  0.43779264  0.96651986  1  0.428952  0.001331  0.021258  -0.054049  0.000488  3.958242  0.002
C  C163  1  0.21851486  0.93779968  0.53349772  1  0.430466  0.001236  0.021139  -0.054697  0.000401  3.95922  0.002
C  C164  1  0.22017745  0.50005305  0.13167347  1  0.338331  0.004452  0.018618  -0.07898  0.002525  3.936462  0.003
C  C165  1  0.77966707  0.99997455  0.36828345  1  0.340394  0.004267  0.018454  -0.079087  0.002431  3.937685  0.003
C  C166  1  0.77980980  0.49995175  0.86831850  1  0.337861  0.004456  0.018681  -0.079012  0.002526  3.936116  0.003
C  C167  1  0.22032099  0.00001982  0.63171620  1  0.34136  0.004268  0.018385  -0.079258  0.002432  3.93741  0.003
C  C168  1  0.01262395  0.59641279  0.09256381  1  0.076017  0.001582  -0.149382  -0.198145  0.000893  4.019003  0.001
C  C169  1  0.98732323  0.09639588  0.40738770  1  0.076514  0.001673  -0.149482  -0.198609  0.000925  4.01924  0.001
C  C170  1  0.98736511  0.40358830  0.90743349  1  0.076154  0.001582  -0.149416  -0.198396  0.000893  4.019189  0.001
C  C171  1  0.01267058  0.90360147  0.59261124  1  0.078428  0.001672  -0.149433  -0.19852  0.000924  4.019302  0.001
C  C172  1  0.55253402  0.26159060  0.29085063  1  0.062546  2e-06  -0.013747  0.239828  -1e-06  3.797102  0.0
C  C173  1  0.44750482  0.76163706  0.20924660  1  0.059441  -1e-05  -0.013743  0.240195  -9e-06  3.79538  0.0
C  C174  1  0.44746549  0.73841197  0.70915047  1  0.062587  2e-06  -0.013741  0.239748  -1e-06  3.797158  0.0
C  C175  1  0.55249945  0.23836403  0.79075518  1  0.059793  -1e-05  -0.013708  0.24023  -9e-06  3.79543  0.0
C  C176  1  0.29226589  0.51447675  0.36949142  1  0.365175  -0.003903  0.015254  -0.081608  -0.004524  3.936839  -0.002
C  C177  1  0.70800062  0.01463575  0.13040048  1  0.354926  0.003232  0.018349  -0.077225  0.001966  3.933475  0.002
C  C178  1  0.70774137  0.48551614  0.63050428  1  0.365982  -0.003904  0.015271  -0.081695  -0.004524  3.936591  -0.002
C  C179  1  0.29200267  0.98537130  0.86960317  1  0.355306  0.003232  0.01835  -0.077211  0.001966  3.933441  0.002
C  C180  1  0.56982383  0.23195054  0.36162128  1  -0.095274  -6.5e-05  -0.2505  -0.413428  -0.000107  3.883949  0.0
C  C181  1  0.43014150  0.73204870  0.13844582  1  -0.095717  -6.1e-05  -0.250257  -0.413279  -9.7e-05  3.8834  0.0
C  C182  1  0.43017855  0.76805353  0.63837995  1  -0.094729  -6.5e-05  -0.250534  -0.413434  -0.000107  3.88409  0.0
C  C183  1  0.56986660  0.26795463  0.86155612  1  -0.095856  -6.1e-05  -0.250267  -0.413234  -9.7e-05  3.883194  0.0
C  C184  1  0.60004488  0.17547209  0.25005788  1  -0.053295  2.9e-05  -0.244823  -0.414329  1.2e-05  3.905258  0.0
C  C185  1  0.39994695  0.67545990  0.24997510  1  -0.033875  -1.7e-05  -0.244718  -0.414433  -5.9e-05  3.90387  0.0
C  C186  1  0.39995268  0.82452825  0.74994504  1  -0.053417  2.9e-05  -0.244747  -0.414086  1.2e-05  3.905096  0.0
C  C187  1  0.60005641  0.32454044  0.75002473  1  -0.03353  -1.7e-05  -0.244748  -0.414496  -5.9e-05  3.903844  0.0
C  C188  1  0.40904996  0.27887647  0.27251532  1  -0.078896  -8e-06  -0.244757  -0.404993  -2.1e-05  3.879806  0.0
C  C189  1  0.59103227  0.77890320  0.22754204  1  -0.077679  2.2e-05  -0.244959  -0.405482  6e-06  3.879515  0.0
C  C190  1  0.59094665  0.72112237  0.72748756  1  -0.078633  -8e-06  -0.244788  -0.405105  -2.1e-05  3.879805  0.0
C  C191  1  0.40897386  0.22109416  0.77246269  1  -0.077842  2.2e-05  -0.244926  -0.405431  6e-06  3.879663  0.0
C  C192  1  0.00983378  0.78638290  0.06570891  1  0.358986  0.000443  0.003911  -0.07731  -0.000355  3.977274  0.001
C  C193  1  0.99135428  0.28644821  0.43431338  1  0.360918  0.002284  0.003941  -0.077885  0.001109  3.977055  0.003
C  C194  1  0.99016282  0.21362191  0.93429398  1  0.358637  0.000443  0.003874  -0.077347  -0.000356  3.977341  0.001
C  C195  1  0.00864242  0.71354840  0.56568425  1  0.360876  0.002283  0.003965  -0.077788  0.001108  3.976978  0.003
C  C196  1  0.98748973  0.68550715  0.05035923  1  0.058271  0.005123  -0.031153  0.027903  0.002583  4.023428  0.003
C  C197  1  0.01286905  0.18548476  0.44960636  1  -0.003368  0.003546  -0.030836  0.028839  0.001795  4.022101  0.002
C  C198  1  0.01249641  0.31449841  0.94964082  1  0.058422  0.005124  -0.031044  0.028203  0.002583  4.023421  0.003
C  C199  1  0.98712286  0.81451259  0.55039202  1  -0.003282  0.003545  -0.030833  0.028805  0.001795  4.021841  0.002
C  C200  1  0.94701455  0.68660895  0.98520775  1  0.355233  0.004545  0.012436  -0.072481  0.002608  3.921634  0.003
C  C201  1  0.05347412  0.18651561  0.51473864  1  0.419201  0.005745  0.013357  -0.072005  0.003256  3.920332  0.004
C  C202  1  0.05297156  0.31340182  0.01479421  1  0.355186  0.004546  0.012577  -0.072608  0.002609  3.921826  0.003
C  C203  1  0.94652163  0.81348175  0.48525895  1  0.418652  0.005746  0.013367  -0.072008  0.003256  3.920222  0.004
C  C204  1  0.53332444  0.68283982  0.45959542  1  0.057859  0.005078  -0.037355  0.004619  0.002589  4.043015  0.003
C  C205  1  0.46673193  0.18276023  0.04033275  1  0.037991  0.00507  -0.037686  0.003813  0.002568  4.041955  0.003
C  C206  1  0.46668475  0.31715009  0.54039940  1  0.057578  0.005078  -0.037366  0.004437  0.002589  4.043056  0.003
C  C207  1  0.53327140  0.81724682  0.95966852  1  0.037796  0.005069  -0.037686  0.003943  0.002567  4.042049  0.003
C  C208  1  0.46668032  0.77407662  0.45548380  1  0.343383  0.001103  0.005789  -0.074188  0.00013  3.980743  0.002
C  C209  1  0.53333960  0.27407563  0.04450834  1  0.343647  0.001102  0.006325  -0.072928  0.000136  3.978863  0.001
C  C210  1  0.53332401  0.22591477  0.54451511  1  0.343654  0.001103  0.005908  -0.073905  0.000131  3.980634  0.002
C  C211  1  0.46666085  0.72593291  0.95549375  1  0.343773  0.001104  0.006219  -0.073092  0.000137  3.97928  0.001
C  C212  1  0.50251211  0.58785607  0.42376118  1  -0.020154  0.001545  -0.148876  -0.194537  0.000826  4.010249  0.001
C  C213  1  0.49769778  0.08776422  0.07609829  1  0.003548  0.001564  -0.148223  -0.193935  0.000835  4.007697  0.001
C  C214  1  0.49749517  0.41213384  0.57623356  1  -0.020249  0.001545  -0.148763  -0.194467  0.000826  4.010128  0.001
C  C215  1  0.50230555  0.91224507  0.92390298  1  0.003184  0.001564  -0.148163  -0.193976  0.000835  4.007631  0.001
C  C216  1  0.63834929  0.70165001  0.50305163  1  0.403683  0.004998  0.01452  -0.068494  0.002828  3.917233  0.003
C  C217  1  0.36165200  0.20155679  0.99691763  1  0.405967  0.00494  0.014608  -0.068562  0.002808  3.91797  0.003
C  C218  1  0.36165411  0.29833840  0.49694629  1  0.403705  0.004998  0.014537  -0.068191  0.002829  3.917025  0.003
C  C219  1  0.63834944  0.79844802  0.00308260  1  0.406105  0.004941  0.014725  -0.068402  0.002809  3.918105  0.003
N  N220  1  0.33105833  0.51608038  0.04515923  1  -0.720481  0.052798  -0.248585  -0.167269  0.02882  3.549218  0.045
N  N221  1  0.66885945  0.01603546  0.45481492  1  -0.719384  0.052796  -0.248793  -0.166965  0.028823  3.549838  0.045
N  N222  1  0.66892605  0.48392518  0.95483309  1  -0.719709  0.052793  -0.24858  -0.167409  0.02882  3.549052  0.045
N  N223  1  0.33113909  0.98395146  0.54518662  1  -0.719228  0.052799  -0.248653  -0.166762  0.028823  3.550097  0.045
N  N224  1  0.16392888  0.52703600  0.44996365  1  -0.702719  0.052143  -0.244054  -0.172998  0.028239  3.542237  0.047
N  N225  1  0.83698853  0.02828796  0.05026595  1  -0.697663  0.051368  -0.24386  -0.169504  0.028055  3.532609  0.045
N  N226  1  0.83607930  0.47296136  0.55003400  1  -0.702978  0.052148  -0.244027  -0.172941  0.028239  3.542075  0.047
N  N227  1  0.16301758  0.97172207  0.94974021  1  -0.697986  0.051371  -0.243903  -0.16967  0.028056  3.532783  0.045
N  N228  1  0.32982810  0.47801573  0.10460871  1  -0.837701  0.000795  -0.281935  -0.076374  -0.00097  3.746554  -0.001
N  N229  1  0.67001509  0.97793162  0.39536751  1  -0.83737  0.000762  -0.28196  -0.076324  -0.001001  3.748042  -0.001
N  N230  1  0.67016009  0.52198982  0.89538426  1  -0.837698  0.000797  -0.281973  -0.076203  -0.00097  3.746366  -0.001
N  N231  1  0.32997963  0.02205903  0.60463338  1  -0.837863  0.000761  -0.281998  -0.07649  -0.001002  3.747696  -0.001
N  N232  1  0.17440544  0.49620843  0.38938957  1  -0.818166  -0.000246  -0.280239  -0.080975  -0.002096  3.762541  -0.001
N  N233  1  0.82605770  0.99695306  0.11074772  1  -0.818187  0.000422  -0.27958  -0.081911  -0.001645  3.760907  -0.001
N  N234  1  0.82560179  0.50378743  0.61060804  1  -0.818423  -0.000246  -0.280273  -0.081062  -0.002096  3.7625  -0.001
N  N235  1  0.17394365  0.00305399  0.88925681  1  -0.818458  0.000421  -0.27953  -0.081911  -0.001646  3.760834  -0.001
N  N236  1  0.98437415  0.84452569  0.01377733  1  -0.727365  0.056386  -0.255097  -0.190556  0.030863  3.544466  0.047
N  N237  1  0.01764633  0.34452457  0.48623753  1  -0.720138  0.057609  -0.254474  -0.192847  0.031692  3.543185  0.048
N  N238  1  0.01562821  0.15548210  0.98622485  1  -0.726908  0.056371  -0.25505  -0.190625  0.030865  3.544619  0.047
N  N239  1  0.98235422  0.65547428  0.51375883  1  -0.720066  0.057607  -0.254422  -0.192761  0.031692  3.543276  0.048
N  N240  1  0.94712793  0.78222162  0.96532383  1  -0.840085  0.002548  -0.273992  -0.081934  0.000117  3.712023  0.001
N  N241  1  0.05434079  0.28212036  0.53465563  1  -0.840396  0.001289  -0.273772  -0.079687  -0.001054  3.71065  0.0
N  N242  1  0.05286677  0.21778915  0.03467849  1  -0.840406  0.002548  -0.274155  -0.081935  0.000116  3.712074  0.001
N  N243  1  0.94566071  0.71787849  0.46534173  1  -0.839985  0.001289  -0.273873  -0.079815  -0.001053  3.710741  0.0
N  N244  1  0.52729881  0.84322901  0.49323494  1  -0.727126  0.055644  -0.251039  -0.180858  0.030282  3.514323  0.047
N  N245  1  0.47270471  0.34321628  0.00682036  1  -0.727279  0.055523  -0.250813  -0.180698  0.030207  3.513655  0.047
N  N246  1  0.47270548  0.15676090  0.50676588  1  -0.727183  0.055645  -0.251177  -0.180897  0.030282  3.514829  0.047
N  N247  1  0.52729482  0.65678928  0.99317978  1  -0.726974  0.055513  -0.250782  -0.180683  0.030207  3.513837  0.047
N  N248  1  0.63179381  0.79788203  0.52123831  1  -0.824569  0.00245  -0.27644  -0.081609  -1.2e-05  3.723124  0.001
N  N249  1  0.36820229  0.29781373  0.97879049  1  -0.824956  0.002426  -0.275759  -0.080818  -2.1e-05  3.722085  0.001
N  N250  1  0.36821141  0.20210713  0.47876351  1  -0.824575  0.002451  -0.276534  -0.081964  -1.2e-05  3.723553  0.001
N  N251  1  0.63179820  0.70219034  0.02120921  1  -0.824988  0.002427  -0.27579  -0.080848  -2.1e-05  3.722314  0.001
O  O252  1  0.58700113  0.48097677  0.09448506  1  -1.194771  0.058135  -0.322954  -0.586704  0.030069  2.426246  0.051
O  O253  1  0.41295369  0.98103110  0.40570869  1  -1.191308  0.058369  -0.322662  -0.586198  0.030197  2.430275  0.051
O  O254  1  0.41298979  0.51902506  0.90551520  1  -1.194686  0.05814  -0.323003  -0.586733  0.030073  2.426339  0.051
O  O255  1  0.58704096  0.01896328  0.59429602  1  -1.191233  0.058375  -0.322725  -0.586277  0.030201  2.430041  0.051
O  O256  1  0.88719920  0.49492034  0.41229974  1  -1.180578  0.070448  -0.325086  -0.578646  0.036384  2.385162  0.062
O  O257  1  0.11514357  0.99308755  0.08788270  1  -1.187214  0.058829  -0.326488  -0.581568  0.030373  2.381645  0.052
O  O258  1  0.11281574  0.50508223  0.58769486  1  -1.180657  0.070456  -0.325039  -0.578508  0.036387  2.385552  0.062
O  O259  1  0.88486164  0.00692024  0.91212008  1  -1.187126  0.058837  -0.326555  -0.581694  0.030374  2.381576  0.052
O  O260  1  0.73633717  0.59962899  0.12036630  1  -1.182627  0.001656  -0.307841  -0.529205  0.000456  2.224239  0.002
O  O261  1  0.26360675  0.09949736  0.37981311  1  -1.183788  0.001665  -0.308024  -0.52938  0.000453  2.227274  0.002
O  O262  1  0.26366335  0.40036912  0.87963198  1  -1.182672  0.001656  -0.307824  -0.529206  0.000456  2.224276  0.002
O  O263  1  0.73638888  0.90049403  0.62019069  1  -1.183905  0.001664  -0.307985  -0.52927  0.000453  2.227157  0.002
O  O264  1  0.88210783  0.63642803  0.35274845  1  -1.182207  -0.000762  -0.334594  -0.540961  -0.001992  2.137784  -0.001
O  O265  1  0.11803857  0.13570834  0.14674303  1  -1.180103  0.001538  -0.334072  -0.540625  0.000316  2.141896  0.001
O  O266  1  0.11787834  0.36357827  0.64725016  1  -1.182112  -0.000762  -0.334581  -0.540898  -0.001993  2.137984  -0.001
O  O267  1  0.88197911  0.86429722  0.85325838  1  -1.180147  0.001537  -0.334113  -0.540665  0.000316  2.141828  0.001
