# generated using pymatgen
data_HgH9C8NO2
_symmetry_space_group_name_H-M   'P 1'
_cell_length_a   4.89488366
_cell_length_b   12.92850733
_cell_length_c   13.48007607
_cell_angle_alpha   89.99995121
_cell_angle_beta   93.16060271
_cell_angle_gamma   89.99994390
_symmetry_Int_Tables_number   1
_chemical_formula_structural   HgH9C8NO2
_chemical_formula_sum   'Hg4 H36 C32 N4 O8'
_cell_volume   851.76933369
_cell_formula_units_Z   4
loop_
 _symmetry_equiv_pos_site_id
 _symmetry_equiv_pos_as_xyz
  1  'x, y, z'
loop_
 _atom_site_type_symbol
 _atom_site_label
 _atom_site_symmetry_multiplicity
 _atom_site_fract_x
 _atom_site_fract_y
 _atom_site_fract_z
 _atom_site_occupancy
 _atom_site_hle17_bader_spin_density
 _atom_site_hle17_ddec_charge
 _atom_site_hle17_ddec_spin_density
 _atom_site_hle17_ddec_sum_bond_order
 _atom_site_hle17_magmom
 _atom_site_hse06_10hf_bader_spin_density
 _atom_site_hse06_10hf_ddec_charge
 _atom_site_hse06_10hf_ddec_spin_density
 _atom_site_hse06_10hf_ddec_sum_bond_order
 _atom_site_hse06_10hf_magmom
 _atom_site_hse06_bader_spin_density
 _atom_site_hse06_ddec_charge
 _atom_site_hse06_ddec_spin_density
 _atom_site_hse06_ddec_sum_bond_order
 _atom_site_hse06_magmom
 _atom_site_pbe_bader_spin_density
 _atom_site_pbe_cm5_charge
 _atom_site_pbe_ddec_charge
 _atom_site_pbe_ddec_spin_density
 _atom_site_pbe_ddec_sum_bond_order
 _atom_site_pbe_magmom
Hg  Hg0  1  0.05488620  0.15047957  0.64586281  1  0  0.699522  0  1.751701  0  0  0.570142  0  2.146366  0  0  0.610796  0  2.124762  0  0  0.53691  0.542348  0  2.161035  0
Hg  Hg1  1  0.44511364  0.65047834  0.85413684  1  0  0.699533  0  1.751682  0  0  0.570137  0  2.14634  0  0  0.610793  0  2.124733  0  0  0.53689  0.542347  0  2.161009  0
Hg  Hg2  1  0.94511940  0.84952079  0.35413847  1  0  0.699564  0  1.751653  0  0  0.570151  0  2.146317  0  0  0.610801  0  2.12471  0  0  0.536904  0.542364  0  2.16099  0
Hg  Hg3  1  0.55488380  0.34952201  0.14586204  1  0  0.699531  0  1.751676  0  0  0.570132  0  2.146315  0  0  0.610783  0  2.12471  0  0  0.536897  0.542342  0  2.160988  0
H  H4  1  0.88345443  0.15601541  0.25934678  1  0  0.317715  0  0.932568  0  0  0.305263  0  0.991984  0  0  0.311697  0  0.987377  0  0  0.287339  0.300694  0  0.995205  0
H  H5  1  0.61654521  0.65601519  0.24065307  1  0  0.317693  0  0.932578  0  0  0.305242  0  0.991996  0  0  0.311676  0  0.987389  0  0  0.287332  0.300673  0  0.995218  0
H  H6  1  0.11654505  0.84398494  0.74065214  1  0  0.317706  0  0.932592  0  0  0.305253  0  0.99201  0  0  0.311686  0  0.987402  0  0  0.28732  0.300684  0  0.99523  0
H  H7  1  0.38345630  0.34398517  0.75934813  1  0  0.31771  0  0.932583  0  0  0.305255  0  0.992003  0  0  0.311688  0  0.987395  0  0  0.287326  0.300686  0  0.995224  0
H  H8  1  0.97903222  0.27389983  0.30429122  1  0  0.31412  0  0.917779  0  0  0.302113  0  0.974371  0  0  0.308774  0  0.969775  0  0  0.28817  0.297382  0  0.977623  0
H  H9  1  0.52096915  0.77389968  0.19570857  1  0  0.314124  0  0.917757  0  0  0.302123  0  0.974334  0  0  0.308783  0  0.96974  0  0  0.288191  0.297394  0  0.977585  0
H  H10  1  0.02096727  0.72610053  0.69570771  1  0  0.314106  0  0.917818  0  0  0.302122  0  0.974366  0  0  0.308781  0  0.969775  0  0  0.288195  0.297391  0  0.977618  0
H  H11  1  0.47903440  0.22610068  0.80429267  1  0  0.314101  0  0.917823  0  0  0.302116  0  0.974376  0  0  0.308776  0  0.969783  0  0  0.288192  0.297385  0  0.977629  0
H  H12  1  0.69540229  0.06116815  0.95043636  1  0  0.141407  0  0.945947  0  0  0.163262  0  1.0035  0  0  0.165042  0  1.003881  0  0  0.100391  0.161996  0  1.003265  0
H  H13  1  0.80459913  0.56116725  0.54956354  1  0  0.141406  0  0.945958  0  0  0.163265  0  1.003503  0  0  0.165045  0  1.003884  0  0  0.100401  0.162  0  1.003266  0
H  H14  1  0.30459717  0.93883220  0.04956405  1  0  0.141449  0  0.945886  0  0  0.163315  0  1.003425  0  0  0.165094  0  1.003808  0  0  0.100407  0.16205  0  1.00319  0
H  H15  1  0.19540239  0.43883233  0.45043617  1  0  0.14145  0  0.945925  0  0  0.163316  0  1.00346  0  0  0.165096  0  1.003843  0  0  0.100407  0.162051  0  1.003223  0
H  H16  1  0.70414355  0.92828915  0.91498696  1  0  0.13056  0  0.972429  0  0  0.151775  0  1.030389  0  0  0.153184  0  1.030649  0  0  0.094434  0.150759  0  1.030222  0
H  H17  1  0.79585892  0.42828956  0.58501341  1  0  0.130533  0  0.97245  0  0  0.151744  0  1.030419  0  0  0.153153  0  1.030679  0  0  0.094414  0.150728  0  1.03025  0
H  H18  1  0.29586002  0.07171198  0.08501279  1  0  0.1306  0  0.972477  0  0  0.151819  0  1.030414  0  0  0.153226  0  1.030678  0  0  0.094445  0.150804  0  1.030244  0
H  H19  1  0.20414260  0.57171156  0.41498705  1  0  0.130611  0  0.972468  0  0  0.151831  0  1.0304  0  0  0.153239  0  1.030661  0  0  0.094455  0.150814  0  1.030235  0
H  H20  1  0.44090248  0.01124755  0.86336132  1  0  0.151651  0  0.978221  0  0  0.166754  0  1.042394  0  0  0.170168  0  1.040391  0  0  0.096727  0.164279  0  1.043889  0
H  H21  1  0.05910183  0.51124821  0.63663854  1  0  0.151629  0  0.978205  0  0  0.166729  0  1.042382  0  0  0.170141  0  1.04038  0  0  0.096715  0.164252  0  1.043877  0
H  H22  1  0.55910314  0.98875280  0.13663848  1  0  0.151634  0  0.978241  0  0  0.166724  0  1.042423  0  0  0.170149  0  1.040409  0  0  0.096707  0.16425  0  1.043915  0
H  H23  1  0.94089559  0.48875292  0.36336182  1  0  0.151657  0  0.978211  0  0  0.166747  0  1.042394  0  0  0.170173  0  1.04038  0  0  0.096718  0.164273  0  1.043885  0
H  H24  1  0.45112381  0.32385220  0.58278610  1  0  0.084296  0  0.979432  0  0  0.095338  0  1.043594  0  0  0.09789  0  1.04152  0  0  0.091504  0.09338  0  1.045199  0
H  H25  1  0.04887555  0.82385262  0.91721340  1  0  0.084287  0  0.979466  0  0  0.095321  0  1.043644  0  0  0.097873  0  1.041571  0  0  0.091483  0.093363  0  1.045247  0
H  H26  1  0.54887771  0.67614660  0.41721361  1  0  0.08424  0  0.979454  0  0  0.095291  0  1.043618  0  0  0.097832  0  1.041556  0  0  0.091485  0.093334  0  1.045223  0
H  H27  1  0.95112188  0.17614773  0.08278622  1  0  0.084281  0  0.979434  0  0  0.095323  0  1.043596  0  0  0.097873  0  1.041523  0  0  0.0915  0.093365  0  1.045201  0
H  H28  1  0.75669769  0.35072693  0.44507878  1  0  0.088653  0  0.983617  0  0  0.102924  0  1.043679  0  0  0.104806  0  1.044397  0  0  0.096356  0.101541  0  1.04333  0
H  H29  1  0.74330550  0.85072604  0.05492173  1  0  0.088634  0  0.983646  0  0  0.102888  0  1.043727  0  0  0.10477  0  1.044445  0  0  0.096361  0.101506  0  1.043379  0
H  H30  1  0.24330178  0.64927343  0.55492163  1  0  0.088652  0  0.983628  0  0  0.10292  0  1.043692  0  0  0.104803  0  1.044409  0  0  0.096361  0.101538  0  1.043344  0
H  H31  1  0.25669396  0.14927353  0.94507868  1  0  0.088655  0  0.983652  0  0  0.10291  0  1.043734  0  0  0.104793  0  1.04445  0  0  0.096362  0.101527  0  1.043386  0
H  H32  1  0.52065165  0.05510434  0.32178096  1  0  0.098607  0  0.975487  0  0  0.110358  0  1.037155  0  0  0.112683  0  1.036878  0  0  0.096317  0.108619  0  1.037578  0
H  H33  1  0.97935031  0.55510404  0.17821902  1  0  0.098561  0  0.975541  0  0  0.110295  0  1.037245  0  0  0.11262  0  1.036967  0  0  0.096297  0.108557  0  1.037668  0
H  H34  1  0.47934988  0.94489369  0.67821801  1  0  0.098602  0  0.975537  0  0  0.110338  0  1.037232  0  0  0.112662  0  1.036957  0  0  0.096315  0.108599  0  1.037655  0
H  H35  1  0.02064917  0.44489554  0.82177991  1  0  0.098568  0  0.975522  0  0  0.11031  0  1.037214  0  0  0.112635  0  1.036938  0  0  0.096314  0.108571  0  1.037637  0
H  H36  1  0.20728903  0.02871615  0.45570397  1  0  0.065591  0  0.984737  0  0  0.077786  0  1.055751  0  0  0.079519  0  1.053814  0  0  0.083761  0.076453  0  1.057233  0
H  H37  1  0.29271165  0.52871525  0.04429586  1  0  0.065536  0  0.984794  0  0  0.077735  0  1.055804  0  0  0.079467  0  1.053868  0  0  0.08375  0.076402  0  1.057287  0
H  H38  1  0.79271248  0.97128266  0.54429649  1  0  0.065555  0  0.984783  0  0  0.077762  0  1.055779  0  0  0.079494  0  1.053843  0  0  0.083766  0.076429  0  1.057261  0
H  H39  1  0.70728782  0.47128432  0.95570380  1  0  0.065544  0  0.984785  0  0  0.077753  0  1.055784  0  0  0.079485  0  1.053849  0  0  0.083754  0.07642  0  1.057266  0
C  C40  1  0.65725017  0.00654548  0.88876019  1  0  -0.464836  0  3.641823  0  0  -0.540388  0  3.868094  0  0  -0.547883  0  3.87108  0  0  -0.251004  -0.535025  0  3.86592  0
C  C41  1  0.84275345  0.50654452  0.61123981  1  0  -0.46479  0  3.641796  0  0  -0.540344  0  3.868121  0  0  -0.547838  0  3.871107  0  0  -0.251005  -0.53498  0  3.865943  0
C  C42  1  0.34275748  0.99345641  0.11124039  1  0  -0.464961  0  3.641862  0  0  -0.540543  0  3.868171  0  0  -0.548053  0  3.871144  0  0  -0.251051  -0.535179  0  3.865995  0
C  C43  1  0.15724602  0.49345584  0.38875986  1  0  -0.465004  0  3.641887  0  0  -0.540572  0  3.868187  0  0  -0.54808  0  3.871159  0  0  -0.251072  -0.535209  0  3.866009  0
C  C44  1  0.83817015  0.03547690  0.80643809  1  0  0.726734  0  3.845835  0  0  0.683827  0  4.142243  0  0  0.717486  0  4.135724  0  0  0.204709  0.660987  0  4.145848  0
C  C45  1  0.66183135  0.53547593  0.69356184  1  0  0.726743  0  3.845819  0  0  0.683776  0  4.142299  0  0  0.717436  0  4.135781  0  0  0.204714  0.660938  0  4.145902  0
C  C46  1  0.16183340  0.96452500  0.19356315  1  0  0.726819  0  3.845812  0  0  0.683908  0  4.142191  0  0  0.717571  0  4.135671  0  0  0.204741  0.661073  0  4.145797  0
C  C47  1  0.33816608  0.46452520  0.30643704  1  0  0.726827  0  3.845832  0  0  0.683901  0  4.142231  0  0  0.717564  0  4.135711  0  0  0.204731  0.661064  0  4.145836  0
C  C48  1  0.30456927  0.17428897  0.52957593  1  0  -0.237317  0  3.819358  0  0  -0.190214  0  4.10044  0  0  -0.209352  0  4.137938  0  0  -0.140019  -0.177824  0  4.07517  0
C  C49  1  0.19542641  0.67428697  0.97042362  1  0  -0.237362  0  3.819578  0  0  -0.190262  0  4.10066  0  0  -0.209401  0  4.138157  0  0  -0.140053  -0.177873  0  4.075393  0
C  C50  1  0.69543224  0.82571061  0.47042453  1  0  -0.237348  0  3.819512  0  0  -0.190243  0  4.100599  0  0  -0.209381  0  4.138095  0  0  -0.140022  -0.177853  0  4.075332  0
C  C51  1  0.80456897  0.32571184  0.02957596  1  0  -0.237293  0  3.819361  0  0  -0.190183  0  4.100439  0  0  -0.209322  0  4.137938  0  0  -0.139997  -0.177794  0  4.075173  0
C  C52  1  0.46247739  0.26456387  0.52540272  1  0  -0.094105  0  3.899812  0  0  -0.112656  0  4.14713  0  0  -0.110226  0  4.171811  0  0  -0.119752  -0.11394  0  4.130394  0
C  C53  1  0.03752215  0.76456346  0.97459610  1  0  -0.094174  0  3.89988  0  0  -0.112723  0  4.147192  0  0  -0.110293  0  4.171875  0  0  -0.11975  -0.114003  0  4.130457  0
C  C54  1  0.53752412  0.73543571  0.47459774  1  0  -0.094034  0  3.899802  0  0  -0.112594  0  4.147108  0  0  -0.110155  0  4.171795  0  0  -0.11972  -0.113879  0  4.130376  0
C  C55  1  0.96247528  0.23543534  0.02540353  1  0  -0.094054  0  3.899719  0  0  -0.112605  0  4.14703  0  0  -0.110174  0  4.171713  0  0  -0.119717  -0.11389  0  4.130298  0
C  C56  1  0.63577010  0.28008383  0.44795038  1  0  -0.199006  0  3.761686  0  0  -0.214698  0  4.011318  0  0  -0.222158  0  4.033856  0  0  -0.116451  -0.209786  0  3.996152  0
C  C57  1  0.86422919  0.78008446  0.05205010  1  0  -0.19888  0  3.761514  0  0  -0.21453  0  4.011146  0  0  -0.221989  0  4.033685  0  0  -0.116435  -0.209619  0  3.995986  0
C  C58  1  0.36423141  0.71991497  0.55205007  1  0  -0.198994  0  3.761706  0  0  -0.214682  0  4.011355  0  0  -0.222141  0  4.033889  0  0  -0.116464  -0.20977  0  3.99619  0
C  C59  1  0.13576822  0.21991512  0.94795101  1  0  -0.199048  0  3.761628  0  0  -0.214725  0  4.011266  0  0  -0.222185  0  4.033804  0  0  -0.116485  -0.209814  0  3.996104  0
C  C60  1  0.65890274  0.20546891  0.37299103  1  0  0.317437  0  3.832184  0  0  0.312304  0  4.076979  0  0  0.322647  0  4.098103  0  0  0.088317  0.305248  0  4.062495  0
C  C61  1  0.84109677  0.70546715  0.12700877  1  0  0.317199  0  3.832227  0  0  0.311996  0  4.077132  0  0  0.322338  0  4.098258  0  0  0.088167  0.304941  0  4.062653  0
C  C62  1  0.34109470  0.79453144  0.62700785  1  0  0.317381  0  3.832215  0  0  0.312233  0  4.077043  0  0  0.322577  0  4.098166  0  0  0.088323  0.305178  0  4.062558  0
C  C63  1  0.15890270  0.29453165  0.87299164  1  0  0.317372  0  3.832194  0  0  0.312228  0  4.077006  0  0  0.322571  0  4.098128  0  0  0.088274  0.305172  0  4.062522  0
C  C64  1  0.50164981  0.11479025  0.37807519  1  0  -0.184488  0  3.697676  0  0  -0.195364  0  3.936906  0  0  -0.202658  0  3.958645  0  0  -0.110622  -0.19049  0  3.922247  0
C  C65  1  0.99834994  0.61478922  0.12192470  1  0  -0.184233  0  3.697681  0  0  -0.195077  0  3.936887  0  0  -0.202371  0  3.958629  0  0  -0.110438  -0.190202  0  3.92223  0
C  C66  1  0.49834965  0.88521087  0.62192597  1  0  -0.184454  0  3.697597  0  0  -0.19533  0  3.936828  0  0  -0.202623  0  3.958565  0  0  -0.110619  -0.190453  0  3.922166  0
C  C67  1  0.00164953  0.38520959  0.87807497  1  0  -0.18433  0  3.69771  0  0  -0.195204  0  3.936939  0  0  -0.202496  0  3.958676  0  0  -0.110572  -0.190329  0  3.922279  0
C  C68  1  0.32592301  0.10007471  0.45465928  1  0  -0.047987  0  3.873313  0  0  -0.067812  0  4.114928  0  0  -0.065124  0  4.142196  0  0  -0.10678  -0.069309  0  4.096283  0
C  C69  1  0.17407339  0.60007464  0.04533966  1  0  -0.047935  0  3.873526  0  0  -0.067765  0  4.115128  0  0  -0.065075  0  4.142397  0  0  -0.106753  -0.06926  0  4.096486  0
C  C70  1  0.67407648  0.89992255  0.54533891  1  0  -0.047953  0  3.873484  0  0  -0.067786  0  4.115095  0  0  -0.065094  0  4.142363  0  0  -0.106786  -0.069281  0  4.096448  0
C  C71  1  0.82592404  0.39992417  0.95465922  1  0  -0.048017  0  3.873474  0  0  -0.067856  0  4.115103  0  0  -0.065166  0  4.142371  0  0  -0.106801  -0.069352  0  4.096458  0
N  N72  1  0.82166984  0.22240745  0.29312965  1  0  -0.679696  0  3.120968  0  0  -0.632489  0  3.348382  0  0  -0.653909  0  3.347528  0  0  -0.598398  -0.617303  0  3.348497  0
N  N73  1  0.67832962  0.72240801  0.20687014  1  0  -0.679638  0  3.120966  0  0  -0.63241  0  3.348413  0  0  -0.65383  0  3.34756  0  0  -0.598393  -0.617225  0  3.348531  0
N  N74  1  0.17832964  0.77759213  0.70687002  1  0  -0.679667  0  3.121056  0  0  -0.632462  0  3.348476  0  0  -0.653881  0  3.347621  0  0  -0.598415  -0.61728  0  3.348598  0
N  N75  1  0.32166984  0.27759235  0.79313026  1  0  -0.679673  0  3.121022  0  0  -0.632469  0  3.348439  0  0  -0.653887  0  3.347583  0  0  -0.5984  -0.617282  0  3.348552  0
O  O76  1  0.76598899  0.11922597  0.75726849  1  0  -0.592526  0  2.028367  0  0  -0.509426  0  2.278927  0  0  -0.540204  0  2.270436  0  0  -0.306799  -0.488203  0  2.284103  0
O  O77  1  0.73401431  0.61922570  0.74273215  1  0  -0.5926  0  2.0283  0  0  -0.509449  0  2.278855  0  0  -0.540227  0  2.270363  0  0  -0.306831  -0.48823  0  2.284033  0
O  O78  1  0.23402272  0.88077748  0.24273440  1  0  -0.592627  0  2.028355  0  0  -0.509453  0  2.278845  0  0  -0.540223  0  2.270339  0  0  -0.306807  -0.488245  0  2.284039  0
O  O79  1  0.26597699  0.38077697  0.25726586  1  0  -0.592637  0  2.028327  0  0  -0.509468  0  2.278835  0  0  -0.540239  0  2.270331  0  0  -0.30682  -0.488254  0  2.284025  0
O  O80  1  0.04406169  0.98305203  0.78771067  1  0  -0.636325  0  1.965103  0  0  -0.578784  0  2.189966  0  0  -0.603165  0  2.181074  0  0  -0.31511  -0.561794  0  2.195431  0
O  O81  1  0.45594337  0.48305150  0.71228956  1  0  -0.636274  0  1.965162  0  0  -0.57871  0  2.190042  0  0  -0.603093  0  2.181156  0  0  -0.315062  -0.56172  0  2.195507  0
O  O82  1  0.95594188  0.01694832  0.21228834  1  0  -0.636262  0  1.96509  0  0  -0.578746  0  2.189978  0  0  -0.603126  0  2.181075  0  0  -0.315081  -0.561755  0  2.195441  0
O  O83  1  0.54405813  0.51694731  0.28771237  1  0  -0.636254  0  1.965117  0  0  -0.578733  0  2.190011  0  0  -0.603115  0  2.181103  0  0  -0.315071  -0.561744  0  2.195475  0
