# generated using pymatgen
data_CaH12C4(N3O2)4
_symmetry_space_group_name_H-M   'P 1'
_cell_length_a   8.75783082
_cell_length_b   8.75784632
_cell_length_c   11.60333025
_cell_angle_alpha   107.56953526
_cell_angle_beta   107.56866057
_cell_angle_gamma   101.36231073
_symmetry_Int_Tables_number   1
_chemical_formula_structural   CaH12C4(N3O2)4
_chemical_formula_sum   'Ca2 H24 C8 N24 O16'
_cell_volume   767.15926513
_cell_formula_units_Z   2
loop_
 _symmetry_equiv_pos_site_id
 _symmetry_equiv_pos_as_xyz
  1  'x, y, z'
loop_
 _atom_site_type_symbol
 _atom_site_label
 _atom_site_symmetry_multiplicity
 _atom_site_fract_x
 _atom_site_fract_y
 _atom_site_fract_z
 _atom_site_occupancy
 _atom_site_hle17_bader_spin_density
 _atom_site_hle17_ddec_charge
 _atom_site_hle17_ddec_spin_density
 _atom_site_hle17_ddec_sum_bond_order
 _atom_site_hle17_magmom
 _atom_site_hse06_10hf_bader_spin_density
 _atom_site_hse06_10hf_ddec_charge
 _atom_site_hse06_10hf_ddec_spin_density
 _atom_site_hse06_10hf_ddec_sum_bond_order
 _atom_site_hse06_10hf_magmom
 _atom_site_hse06_bader_spin_density
 _atom_site_hse06_ddec_charge
 _atom_site_hse06_ddec_spin_density
 _atom_site_hse06_ddec_sum_bond_order
 _atom_site_hse06_magmom
 _atom_site_pbe_bader_spin_density
 _atom_site_pbe_cm5_charge
 _atom_site_pbe_ddec_charge
 _atom_site_pbe_ddec_spin_density
 _atom_site_pbe_ddec_sum_bond_order
 _atom_site_pbe_magmom
Ca  Ca0  1  0.74337703  0.25662355  0.75000051  1  0  1.47813  0  1.195376  0  0  1.330574  0  1.568559  0  0  1.372176  0  1.525149  0  0  0.917677  1.299479  0  1.599207  0
Ca  Ca1  1  0.25662277  0.74337605  0.24999986  1  0  1.478137  0  1.195396  0  0  1.33054  0  1.568635  0  0  1.372173  0  1.525185  0  0  0.91768  1.299446  0  1.599282  0
H  H2  1  0.19285173  0.30579067  0.81075839  1  0  0.338649  0  0.894596  0  0  0.317575  0  0.968058  0  0  0.3251  0  0.961218  0  0  0.308527  0.31221  0  0.972916  0
H  H3  1  0.69421065  0.80714866  0.68923927  1  0  0.338664  0  0.894506  0  0  0.317589  0  0.967976  0  0  0.325114  0  0.961139  0  0  0.308521  0.312225  0  0.972835  0
H  H4  1  0.80714892  0.69420771  0.18923931  1  0  0.33863  0  0.894594  0  0  0.317552  0  0.968068  0  0  0.325075  0  0.961234  0  0  0.308508  0.312186  0  0.972927  0
H  H5  1  0.30578834  0.19285218  0.31076206  1  0  0.338702  0  0.894497  0  0  0.317611  0  0.967972  0  0  0.325132  0  0.961143  0  0  0.308538  0.312245  0  0.972831  0
H  H6  1  0.38234208  0.30731284  0.78940965  1  0  0.339572  0  0.919288  0  0  0.320685  0  0.98589  0  0  0.328592  0  0.979059  0  0  0.306786  0.315041  0  0.990755  0
H  H7  1  0.69269006  0.61765934  0.71058928  1  0  0.339601  0  0.919223  0  0  0.320718  0  0.985819  0  0  0.328624  0  0.978988  0  0  0.306802  0.315073  0  0.990685  0
H  H8  1  0.61765935  0.69268805  0.21058969  1  0  0.339593  0  0.919238  0  0  0.320706  0  0.985842  0  0  0.328614  0  0.979007  0  0  0.306799  0.315061  0  0.990707  0
H  H9  1  0.30730774  0.38234149  0.28941177  1  0  0.339633  0  0.919214  0  0  0.320754  0  0.985791  0  0  0.328662  0  0.978958  0  0  0.306812  0.31511  0  0.990656  0
H  H10  1  0.99743563  0.10908371  0.88920219  1  0  0.427658  0  0.81562  0  0  0.414041  0  0.86292  0  0  0.421888  0  0.854598  0  0  0.329318  0.408359  0  0.869107  0
H  H11  1  0.89091389  0.00256209  0.61079606  1  0  0.427559  0  0.815736  0  0  0.41398  0  0.862979  0  0  0.421808  0  0.854697  0  0  0.329294  0.408298  0  0.869166  0
H  H12  1  0.00256537  0.89091588  0.11079847  1  0  0.427575  0  0.815716  0  0  0.413988  0  0.862967  0  0  0.421821  0  0.854676  0  0  0.329301  0.408307  0  0.869153  0
H  H13  1  0.10908550  0.99743622  0.38920478  1  0  0.427563  0  0.815732  0  0  0.413983  0  0.862977  0  0  0.421812  0  0.854693  0  0  0.329281  0.408301  0  0.869164  0
H  H14  1  0.49222754  0.37815263  0.58247840  1  0  0.404058  0  0.906973  0  0  0.36154  0  0.989415  0  0  0.373322  0  0.972573  0  0  0.286563  0.353243  0  1.001233  0
H  H15  1  0.62184807  0.50777318  0.91752308  1  0  0.404044  0  0.906994  0  0  0.361517  0  0.98945  0  0  0.373299  0  0.972609  0  0  0.286552  0.353219  0  1.001269  0
H  H16  1  0.50777229  0.62184700  0.41752026  1  0  0.40406  0  0.906968  0  0  0.361542  0  0.989412  0  0  0.373325  0  0.97257  0  0  0.286562  0.353246  0  1.001228  0
H  H17  1  0.37815212  0.49222765  0.08247854  1  0  0.404051  0  0.906983  0  0  0.361524  0  0.989444  0  0  0.373306  0  0.972603  0  0  0.286542  0.353227  0  1.001261  0
H  H18  1  0.66855065  0.42044005  0.55387845  1  0  0.401144  0  0.915426  0  0  0.357731  0  1.00058  0  0  0.369026  0  0.984275  0  0  0.289903  0.349801  0  1.011982  0
H  H19  1  0.57955656  0.33144957  0.94612206  1  0  0.401135  0  0.915465  0  0  0.357718  0  1.000624  0  0  0.369014  0  0.984318  0  0  0.2899  0.349788  0  1.012027  0
H  H20  1  0.33144917  0.57955956  0.44612107  1  0  0.401128  0  0.915456  0  0  0.357719  0  1.000603  0  0  0.369014  0  0.984298  0  0  0.289896  0.349789  0  1.012006  0
H  H21  1  0.42044363  0.66855127  0.05387956  1  0  0.401144  0  0.915453  0  0  0.35773  0  1.000607  0  0  0.369026  0  0.984302  0  0  0.289909  0.349799  0  1.01201  0
H  H22  1  0.02565252  0.29361346  0.98486850  1  0  0.429102  0  0.87481  0  0  0.391777  0  0.949016  0  0  0.403988  0  0.930975  0  0  0.300325  0.38317  0  0.961688  0
H  H23  1  0.70638781  0.97434514  0.51512939  1  0  0.429089  0  0.874825  0  0  0.391752  0  0.949048  0  0  0.403971  0  0.930995  0  0  0.300311  0.383147  0  0.961716  0
H  H24  1  0.97434890  0.70638741  0.01513169  1  0  0.429088  0  0.874833  0  0  0.391765  0  0.949036  0  0  0.403974  0  0.930999  0  0  0.300327  0.383158  0  0.961709  0
H  H25  1  0.29361200  0.02565445  0.48487099  1  0  0.429113  0  0.874806  0  0  0.391797  0  0.948996  0  0  0.404006  0  0.930957  0  0  0.300325  0.383191  0  0.961665  0
C  C26  1  0.21903533  0.37284208  0.66256042  1  0  0.529793  0  3.829138  0  0  0.469043  0  4.124795  0  0  0.492632  0  4.132986  0  0  0.339831  0.453184  0  4.118985  0
C  C27  1  0.62716040  0.78096317  0.83743471  1  0  0.529798  0  3.829207  0  0  0.469125  0  4.124756  0  0  0.492715  0  4.132946  0  0  0.339849  0.453266  0  4.118945  0
C  C28  1  0.78096410  0.62715628  0.33743785  1  0  0.529875  0  3.829147  0  0  0.469106  0  4.124804  0  0  0.492697  0  4.132991  0  0  0.339852  0.453247  0  4.118994  0
C  C29  1  0.37283737  0.21903765  0.16256720  1  0  0.529942  0  3.829115  0  0  0.469236  0  4.12468  0  0  0.492825  0  4.132869  0  0  0.339922  0.453374  0  4.118873  0
C  C30  1  0.06797070  0.47349109  0.53164304  1  0  0.224778  0  3.758422  0  0  0.184418  0  4.046552  0  0  0.197122  0  4.055754  0  0  0.23105  0.175861  0  4.04049  0
C  C31  1  0.52650706  0.93203052  0.96835574  1  0  0.224758  0  3.758346  0  0  0.18444  0  4.046423  0  0  0.197144  0  4.055624  0  0  0.230951  0.175868  0  4.040373  0
C  C32  1  0.93202754  0.52650727  0.46835496  1  0  0.224847  0  3.758407  0  0  0.184435  0  4.04657  0  0  0.197139  0  4.055772  0  0  0.231033  0.175877  0  4.040511  0
C  C33  1  0.47349114  0.06797158  0.03164571  1  0  0.224731  0  3.758328  0  0  0.184302  0  4.046509  0  0  0.197005  0  4.05571  0  0  0.230979  0.175763  0  4.040424  0
N  N34  1  0.07617627  0.42082478  0.63392367  1  0  -0.111003  0  3.591249  0  0  -0.028881  0  3.823196  0  0  -0.042529  0  3.842808  0  0  -0.131693  -0.019952  0  3.809953  0
N  N35  1  0.57917935  0.92382578  0.86607722  1  0  -0.11109  0  3.591479  0  0  -0.02902  0  3.823387  0  0  -0.042667  0  3.842998  0  0  -0.131687  -0.020087  0  3.810147  0
N  N36  1  0.92382516  0.57917611  0.36607567  1  0  -0.111106  0  3.591396  0  0  -0.028952  0  3.823336  0  0  -0.042599  0  3.842947  0  0  -0.131711  -0.020023  0  3.810094  0
N  N37  1  0.42081925  0.07617381  0.13392287  1  0  -0.110957  0  3.591216  0  0  -0.028867  0  3.823165  0  0  -0.042513  0  3.842775  0  0  -0.131679  -0.019941  0  3.809918  0
N  N38  1  0.97179375  0.41645483  0.70153134  1  0  -0.345238  0  2.817804  0  0  -0.35418  0  3.115804  0  0  -0.366617  0  3.125322  0  0  -0.199001  -0.345591  0  3.109366  0
N  N39  1  0.58354801  0.02820888  0.79846945  1  0  -0.345292  0  2.818045  0  0  -0.354173  0  3.11598  0  0  -0.366608  0  3.125496  0  0  -0.199022  -0.345587  0  3.109545  0
N  N40  1  0.02820847  0.58354478  0.29846874  1  0  -0.345275  0  2.817973  0  0  -0.354223  0  3.115974  0  0  -0.36666  0  3.125486  0  0  -0.199018  -0.345634  0  3.109536  0
N  N41  1  0.41645100  0.97179197  0.20153104  1  0  -0.345371  0  2.817957  0  0  -0.354247  0  3.115908  0  0  -0.366679  0  3.12541  0  0  -0.199057  -0.345662  0  3.109472  0
N  N42  1  0.25925274  0.30374419  0.75194133  1  0  -0.6857  0  3.088859  0  0  -0.659445  0  3.33799  0  0  -0.678708  0  3.33153  0  0  -0.578554  -0.645872  0  3.342208  0
N  N43  1  0.69625912  0.74075048  0.74806052  1  0  -0.685768  0  3.08888  0  0  -0.659528  0  3.337952  0  0  -0.678792  0  3.331492  0  0  -0.578608  -0.645956  0  3.342175  0
N  N44  1  0.74074909  0.69625418  0.24805751  1  0  -0.685723  0  3.088835  0  0  -0.659458  0  3.337969  0  0  -0.678721  0  3.331506  0  0  -0.578557  -0.645884  0  3.342188  0
N  N45  1  0.30373868  0.25925037  0.25193968  1  0  -0.685891  0  3.088987  0  0  -0.659608  0  3.338085  0  0  -0.678868  0  3.331623  0  0  -0.578637  -0.646036  0  3.34231  0
N  N46  1  0.29647667  0.39770737  0.58362384  1  0  -0.363256  0  2.946204  0  0  -0.31992  0  3.220361  0  0  -0.335887  0  3.231064  0  0  -0.235746  -0.309247  0  3.213209  0
N  N47  1  0.60229744  0.70352459  0.91637736  1  0  -0.363234  0  2.946207  0  0  -0.319928  0  3.220344  0  0  -0.335895  0  3.231048  0  0  -0.235737  -0.309253  0  3.213189  0
N  N48  1  0.70352198  0.60229227  0.41637369  1  0  -0.363275  0  2.946261  0  0  -0.319933  0  3.220423  0  0  -0.3359  0  3.231125  0  0  -0.235747  -0.309259  0  3.213271  0
N  N49  1  0.39770155  0.29647625  0.08362398  1  0  -0.36325  0  2.946193  0  0  -0.319924  0  3.220326  0  0  -0.335891  0  3.231031  0  0  -0.235717  -0.309249  0  3.213174  0
N  N50  1  0.20132208  0.46132636  0.50254689  1  0  -0.252457  0  3.023009  0  0  -0.227691  0  3.305127  0  0  -0.234738  0  3.31671  0  0  -0.217383  -0.222862  0  3.297474  0
N  N51  1  0.53867590  0.79867759  0.99745339  1  0  -0.2524  0  3.022901  0  0  -0.227652  0  3.305012  0  0  -0.234699  0  3.316596  0  0  -0.217327  -0.22282  0  3.297359  0
N  N52  1  0.79867617  0.53867202  0.49745026  1  0  -0.252482  0  3.023016  0  0  -0.227701  0  3.30514  0  0  -0.234748  0  3.316724  0  0  -0.217388  -0.222872  0  3.297486  0
N  N53  1  0.46132308  0.20132324  0.00254881  1  0  -0.252447  0  3.022961  0  0  -0.227668  0  3.305092  0  0  -0.234714  0  3.316676  0  0  -0.217355  -0.222844  0  3.297431  0
N  N54  1  0.02040366  0.56352667  0.80425161  1  0  0.598347  0  4.021601  0  0  0.617023  0  4.334734  0  0  0.642281  0  4.343587  0  0  0.105566  0.600037  0  4.328463  0
N  N55  1  0.43647398  0.97959830  0.69575042  1  0  0.598434  0  4.021466  0  0  0.617088  0  4.334617  0  0  0.642353  0  4.343463  0  0  0.105612  0.600107  0  4.328342  0
N  N56  1  0.97959856  0.43647293  0.19574847  1  0  0.598426  0  4.021491  0  0  0.6171  0  4.334618  0  0  0.642365  0  4.343464  0  0  0.105607  0.600114  0  4.32835  0
N  N57  1  0.56352544  0.02040005  0.30424871  1  0  0.598409  0  4.021465  0  0  0.617026  0  4.334653  0  0  0.64231  0  4.343486  0  0  0.105587  0.600045  0  4.328377  0
O  O58  1  0.61080224  0.37311573  0.60359604  1  0  -0.894359  0  1.924624  0  0  -0.82815  0  2.134773  0  0  -0.850772  0  2.102004  0  0  -0.633898  -0.811791  0  2.15736  0
O  O59  1  0.62688301  0.38919793  0.89640502  1  0  -0.894343  0  1.92466  0  0  -0.828109  0  2.134796  0  0  -0.850732  0  2.102027  0  0  -0.633896  -0.81175  0  2.157385  0
O  O60  1  0.38919876  0.62688386  0.39640462  1  0  -0.89433  0  1.924621  0  0  -0.828139  0  2.134788  0  0  -0.850763  0  2.102011  0  0  -0.633893  -0.81178  0  2.157375  0
O  O61  1  0.37311719  0.61080293  0.10359575  1  0  -0.894358  0  1.924672  0  0  -0.828139  0  2.134815  0  0  -0.850763  0  2.10204  0  0  -0.633903  -0.81178  0  2.157404  0
O  O62  1  0.99433954  0.22000518  0.89084275  1  0  -0.861766  0  1.816285  0  0  -0.813158  0  2.00626  0  0  -0.832711  0  1.97817  0  0  -0.602368  -0.799067  0  2.025755  0
O  O63  1  0.77999278  0.00565904  0.60915470  1  0  -0.861638  0  1.816396  0  0  -0.813076  0  2.006338  0  0  -0.832605  0  1.978276  0  0  -0.602328  -0.798985  0  2.025826  0
O  O64  1  0.00566027  0.77999441  0.10915762  1  0  -0.861667  0  1.816376  0  0  -0.813087  0  2.006317  0  0  -0.832627  0  1.978253  0  0  -0.602354  -0.798995  0  2.025809  0
O  O65  1  0.22000703  0.99434056  0.39084568  1  0  -0.861679  0  1.816393  0  0  -0.813116  0  2.006313  0  0  -0.832651  0  1.978265  0  0  -0.602329  -0.799025  0  2.025803  0
O  O66  1  0.92750275  0.55461842  0.87163659  1  0  -0.534313  0  1.856067  0  0  -0.487666  0  2.081586  0  0  -0.508002  0  2.075223  0  0  -0.20791  -0.47324  0  2.085587  0
O  O67  1  0.44538458  0.07249816  0.62836573  1  0  -0.534339  0  1.855952  0  0  -0.48768  0  2.081465  0  0  -0.508035  0  2.075115  0  0  -0.207945  -0.473256  0  2.085464  0
O  O68  1  0.07249867  0.44538245  0.12836361  1  0  -0.534358  0  1.8561  0  0  -0.487677  0  2.081595  0  0  -0.508035  0  2.075245  0  0  -0.207908  -0.473252  0  2.085598  0
O  O69  1  0.55461729  0.92749645  0.37163051  1  0  -0.534347  0  1.85602  0  0  -0.487592  0  2.081463  0  0  -0.508009  0  2.075155  0  0  -0.207888  -0.473169  0  2.085463  0
O  O70  1  0.13597467  0.69194863  0.83251468  1  0  -0.38406  0  1.748796  0  0  -0.380033  0  1.960089  0  0  -0.390071  0  1.954545  0  0  -0.150132  -0.373027  0  1.963865  0
O  O71  1  0.30805383  0.86402812  0.66748977  1  0  -0.384065  0  1.748747  0  0  -0.380036  0  1.960049  0  0  -0.390073  0  1.954498  0  0  -0.15012  -0.373032  0  1.963825  0
O  O72  1  0.86402635  0.30805097  0.16748512  1  0  -0.384067  0  1.748701  0  0  -0.380059  0  1.960011  0  0  -0.3901  0  1.954465  0  0  -0.150155  -0.373051  0  1.963785  0
O  O73  1  0.69194598  0.13597147  0.33251060  1  0  -0.384055  0  1.748696  0  0  -0.380036  0  1.960022  0  0  -0.39007  0  1.954458  0  0  -0.150147  -0.373031  0  1.963795  0
