# generated using pymatgen
data_SmCuH22C18IN5O9
_symmetry_space_group_name_H-M   'P 1'
_cell_length_a   10.85413135
_cell_length_b   11.85715691
_cell_length_c   14.66549116
_cell_angle_alpha   82.48787218
_cell_angle_beta   85.14146830
_cell_angle_gamma   68.06300078
_symmetry_Int_Tables_number   1
_chemical_formula_structural   SmCuH22C18IN5O9
_chemical_formula_sum   'Sm2 Cu2 H44 C36 I2 N10 O18'
_cell_volume   1734.43038676
_cell_formula_units_Z   2
loop_
 _symmetry_equiv_pos_site_id
 _symmetry_equiv_pos_as_xyz
  1  'x, y, z'
loop_
 _atom_site_type_symbol
 _atom_site_label
 _atom_site_symmetry_multiplicity
 _atom_site_fract_x
 _atom_site_fract_y
 _atom_site_fract_z
 _atom_site_occupancy
 _atom_site_hle17_bader_spin_density
 _atom_site_hle17_ddec_charge
 _atom_site_hle17_ddec_spin_density
 _atom_site_hle17_ddec_sum_bond_order
 _atom_site_hle17_magmom
 _atom_site_hse06_10hf_bader_spin_density
 _atom_site_hse06_10hf_ddec_charge
 _atom_site_hse06_10hf_ddec_spin_density
 _atom_site_hse06_10hf_ddec_sum_bond_order
 _atom_site_hse06_10hf_magmom
 _atom_site_hse06_bader_spin_density
 _atom_site_hse06_ddec_charge
 _atom_site_hse06_ddec_spin_density
 _atom_site_hse06_ddec_sum_bond_order
 _atom_site_hse06_magmom
 _atom_site_pbe_bader_spin_density
 _atom_site_pbe_cm5_charge
 _atom_site_pbe_ddec_charge
 _atom_site_pbe_ddec_spin_density
 _atom_site_pbe_ddec_sum_bond_order
 _atom_site_pbe_magmom
Sm  Sm0  1  0.90291374  0.38107288  0.03587984  1  0  2.256702  0  1.68064  0  0  2.098295  0  2.1557  0  0  2.209429  0  1.990509  0  0  1.513653  2.061976  0  2.190398  0
Sm  Sm1  1  0.09707795  0.61893137  0.96411643  1  0  2.256425  0  1.680761  0  0  2.098403  0  2.155552  0  0  2.209468  0  1.99048  0  0  1.513669  2.062085  0  2.190246  0
Cu  Cu2  1  0.51361194  0.99799054  0.41331117  1  0  0.3029  0  2.22471  0  0  0.204954  0  2.725587  0  0  0.20121  0  2.681284  0  0  0.368187  0.212085  0  2.750343  0
Cu  Cu3  1  0.48639962  0.00201079  0.58668806  1  0  0.303806  0  2.225292  0  0  0.20485  0  2.725832  0  0  0.200923  0  2.681602  0  0  0.368233  0.21197  0  2.750583  0
H  H4  1  0.56111251  0.20022866  0.29720471  1  0  0.08477  0  0.969261  0  0  0.087654  0  1.042274  0  0  0.091264  0  1.038979  0  0  0.103109  0.084997  0  1.044691  0
H  H5  1  0.43891752  0.79975935  0.70277832  1  0  0.084843  0  0.969439  0  0  0.087814  0  1.042275  0  0  0.091404  0  1.03901  0  0  0.10318  0.085199  0  1.044665  0
H  H6  1  0.45740960  0.34759509  0.16196229  1  0  0.119867  0  0.94967  0  0  0.12634  0  1.01554  0  0  0.130471  0  1.012835  0  0  0.110466  0.123142  0  1.017961  0
H  H7  1  0.54260145  0.65240057  0.83802671  1  0  0.119782  0  0.949734  0  0  0.126266  0  1.015582  0  0  0.130393  0  1.012891  0  0  0.110461  0.12308  0  1.017984  0
H  H8  1  0.13086962  0.21880678  0.19972731  1  0  0.128123  0  0.956656  0  0  0.137126  0  1.018424  0  0  0.14099  0  1.015713  0  0  0.11875  0.133974  0  1.021364  0
H  H9  1  0.86912339  0.78120602  0.80029039  1  0  0.128146  0  0.956708  0  0  0.137193  0  1.018385  0  0  0.14105  0  1.015684  0  0  0.11878  0.134046  0  1.021325  0
H  H10  1  0.25204763  0.07164592  0.33042873  1  0  0.081324  0  0.958047  0  0  0.086807  0  1.024345  0  0  0.090911  0  1.020614  0  0  0.102673  0.083713  0  1.027145  0
H  H11  1  0.74796151  0.92835725  0.66958206  1  0  0.081312  0  0.958019  0  0  0.086773  0  1.024341  0  0  0.090883  0  1.020601  0  0  0.102622  0.083658  0  1.027161  0
H  H12  1  0.78823417  0.94113648  0.33753549  1  0  0.082464  0  0.950204  0  0  0.088022  0  1.016054  0  0  0.09223  0  1.012172  0  0  0.104446  0.084814  0  1.019112  0
H  H13  1  0.21177595  0.05885368  0.66247194  1  0  0.082466  0  0.950006  0  0  0.088014  0  1.016003  0  0  0.092203  0  1.012142  0  0  0.104433  0.084805  0  1.019064  0
H  H14  1  0.93064835  0.80592808  0.21944626  1  0  0.100913  0  0.956158  0  0  0.110869  0  1.018311  0  0  0.114334  0  1.016004  0  0  0.106756  0.108418  0  1.019984  0
H  H15  1  0.06935646  0.19406557  0.78055707  1  0  0.100894  0  0.956137  0  0  0.110878  0  1.01825  0  0  0.114344  0  1.015941  0  0  0.106755  0.108428  0  1.019921  0
H  H16  1  0.65827904  0.61661803  0.24880599  1  0  0.112342  0  0.956341  0  0  0.120659  0  1.020169  0  0  0.124116  0  1.018618  0  0  0.110894  0.118191  0  1.021377  0
H  H17  1  0.34172266  0.38337462  0.75120518  1  0  0.112326  0  0.956445  0  0  0.120637  0  1.020255  0  0  0.124069  0  1.018727  0  0  0.110882  0.11817  0  1.02146  0
H  H18  1  0.52319330  0.76252142  0.36395543  1  0  0.071813  0  0.980457  0  0  0.075139  0  1.054149  0  0  0.079525  0  1.049786  0  0  0.096807  0.071957  0  1.057263  0
H  H19  1  0.47681249  0.23747048  0.63605894  1  0  0.071774  0  0.980465  0  0  0.075079  0  1.054285  0  0  0.07946  0  1.049927  0  0  0.096803  0.071899  0  1.057395  0
H  H20  1  0.27903061  0.06768476  0.07654586  1  0  0.116165  0  0.95472  0  0  0.132391  0  1.020564  0  0  0.133528  0  1.020391  0  0  0.112739  0.131575  0  1.020589  0
H  H21  1  0.72096433  0.93231401  0.92344670  1  0  0.116129  0  0.954725  0  0  0.132362  0  1.02057  0  0  0.133504  0  1.020393  0  0  0.112741  0.131542  0  1.020596  0
H  H22  1  0.39826292  0.99422121  0.98937587  1  0  0.091151  0  0.936023  0  0  0.113168  0  0.995843  0  0  0.11366  0  0.995708  0  0  0.10582  0.112777  0  0.995966  0
H  H23  1  0.60173357  0.00578041  0.01061694  1  0  0.091171  0  0.936052  0  0  0.113186  0  0.995865  0  0  0.113675  0  0.995734  0  0  0.105844  0.112796  0  0.995988  0
H  H24  1  0.33541489  0.90530052  0.07444109  1  0  0.100374  0  0.936105  0  0  0.122695  0  0.995264  0  0  0.122898  0  0.995631  0  0  0.107729  0.122529  0  0.994942  0
H  H25  1  0.66457563  0.09470176  0.92554594  1  0  0.100339  0  0.936105  0  0  0.122658  0  0.995277  0  0  0.122856  0  0.995651  0  0  0.107764  0.122492  0  0.994954  0
H  H26  1  0.14261630  0.95320486  0.86064993  1  0  0.109475  0  0.92639  0  0  0.131875  0  0.983998  0  0  0.132555  0  0.984033  0  0  0.115043  0.13126  0  0.984047  0
H  H27  1  0.85738515  0.04678950  0.13933992  1  0  0.109595  0  0.926321  0  0  0.13195  0  0.983964  0  0  0.132639  0  0.983987  0  0  0.115066  0.131318  0  0.984031  0
H  H28  1  0.26668747  0.83660690  0.92777351  1  0  0.117093  0  0.965201  0  0  0.131362  0  1.036331  0  0  0.133013  0  1.035807  0  0  0.109609  0.12991  0  1.037292  0
H  H29  1  0.73330967  0.16339756  0.07222165  1  0  0.117109  0  0.965145  0  0  0.131347  0  1.03633  0  0  0.132998  0  1.035807  0  0  0.109588  0.129897  0  1.037288  0
H  H30  1  0.31001579  0.94800115  0.85095509  1  0  0.095767  0  0.943274  0  0  0.114074  0  1.009128  0  0  0.114251  0  1.010461  0  0  0.100893  0.113843  0  1.008234  0
H  H31  1  0.68998489  0.05199505  0.14903666  1  0  0.095773  0  0.943327  0  0  0.114078  0  1.009182  0  0  0.114259  0  1.010507  0  0  0.100926  0.113846  0  1.008288  0
H  H32  1  0.01011343  0.10322618  0.93326788  1  0  0.040078  0  0.931866  0  0  0.047768  0  1.003878  0  0  0.049999  0  0.998419  0  0  0.126597  0.045861  0  1.008204  0
H  H33  1  0.98988201  0.89679023  0.06671786  1  0  0.039953  0  0.931863  0  0  0.047704  0  1.003811  0  0  0.049939  0  0.998347  0  0  0.126527  0.045795  0  1.008139  0
H  H34  1  0.56454404  0.33505409  0.97632407  1  0  0.121219  0  0.936057  0  0  0.141674  0  0.994835  0  0  0.143535  0  0.993259  0  0  0.116883  0.140263  0  0.995967  0
H  H35  1  0.43545853  0.66495528  0.02367968  1  0  0.121194  0  0.936173  0  0  0.141666  0  0.994893  0  0  0.143527  0  0.993317  0  0  0.116858  0.140254  0  0.996026  0
H  H36  1  0.48603021  0.28917031  0.89264235  1  0  0.088921  0  0.93638  0  0  0.107963  0  1.003294  0  0  0.108017  0  1.00371  0  0  0.10097  0.107827  0  1.002981  0
H  H37  1  0.51396580  0.71083510  0.10736302  1  0  0.088868  0  0.936443  0  0  0.107902  0  1.003356  0  0  0.107954  0  1.003773  0  0  0.100925  0.107766  0  1.003043  0
H  H38  1  0.44492507  0.44725575  0.90221809  1  0  0.123929  0  0.956057  0  0  0.141414  0  1.021922  0  0  0.142602  0  1.021391  0  0  0.114939  0.140301  0  1.022927  0
H  H39  1  0.55506968  0.55275237  0.09778365  1  0  0.123993  0  0.955778  0  0  0.141412  0  1.021739  0  0  0.142601  0  1.021206  0  0  0.114942  0.140299  0  1.022747  0
H  H40  1  0.68276835  0.42434693  0.70787940  1  0  0.109218  0  0.919932  0  0  0.131207  0  0.976153  0  0  0.132012  0  0.976149  0  0  0.116388  0.130466  0  0.976295  0
H  H41  1  0.31721844  0.57565153  0.29211583  1  0  0.109088  0  0.920037  0  0  0.131087  0  0.976268  0  0  0.131891  0  0.976265  0  0  0.116352  0.130348  0  0.976409  0
H  H42  1  0.51277256  0.49681387  0.74431624  1  0  0.117812  0  0.943293  0  0  0.133552  0  1.01091  0  0  0.134929  0  1.01004  0  0  0.110663  0.132401  0  1.011689  0
H  H43  1  0.48721853  0.50318756  0.25568039  1  0  0.117798  0  0.94331  0  0  0.133503  0  1.010992  0  0  0.134881  0  1.010121  0  0  0.110666  0.132351  0  1.011771  0
H  H44  1  0.57179873  0.34459962  0.71161157  1  0  0.100563  0  0.939872  0  0  0.122271  0  1.000128  0  0  0.122858  0  1.000147  0  0  0.105671  0.121698  0  1.000158  0
H  H45  1  0.42818663  0.65540256  0.28839358  1  0  0.100563  0  0.939797  0  0  0.122278  0  1.000048  0  0  0.122863  0  1.000068  0  0  0.10565  0.121708  0  1.000075  0
H  H46  1  0.82705720  0.34290827  0.81170386  1  0  0.043431  0  0.91973  0  0  0.052721  0  0.987483  0  0  0.055068  0  0.981647  0  0  0.128053  0.050759  0  0.991952  0
H  H47  1  0.17293262  0.65710895  0.18829652  1  0  0.043464  0  0.919694  0  0  0.052736  0  0.987459  0  0  0.055086  0  0.981616  0  0  0.128018  0.050756  0  0.991942  0
C  C48  1  0.46772255  0.20486798  0.27141367  1  0  0.102713  0  3.68836  0  0  0.075952  0  3.937387  0  0  0.081274  0  3.952531  0  0  0.032374  0.07187  0  3.928622  0
C  C49  1  0.53229973  0.79512535  0.72857614  1  0  0.102229  0  3.688247  0  0  0.075415  0  3.937343  0  0  0.080833  0  3.952319  0  0  0.032061  0.071267  0  3.928582  0
C  C50  1  0.40863561  0.28794634  0.19728599  1  0  -0.124409  0  3.714647  0  0  -0.14563  0  3.961349  0  0  -0.150069  0  3.980993  0  0  -0.081881  -0.142615  0  3.948153  0
C  C51  1  0.59137620  0.71205219  0.80271082  1  0  -0.124288  0  3.714495  0  0  -0.145459  0  3.961113  0  0  -0.149926  0  3.980788  0  0  -0.081864  -0.142446  0  3.947935  0
C  C52  1  0.28543527  0.29462896  0.16941841  1  0  -0.029878  0  3.73695  0  0  -0.011954  0  3.969113  0  0  -0.01416  0  3.987207  0  0  -0.00561  -0.010035  0  3.955863  0
C  C53  1  0.71456338  0.70537470  0.83058832  1  0  -0.029861  0  3.736933  0  0  -0.011917  0  3.969121  0  0  -0.014119  0  3.987222  0  0  -0.005614  -0.01  0  3.955869  0
C  C54  1  0.22732175  0.21582832  0.21769249  1  0  -0.113939  0  3.696153  0  0  -0.135845  0  3.93937  0  0  -0.13909  0  3.957132  0  0  -0.073674  -0.133854  0  3.92766  0
C  C55  1  0.77267903  0.78417263  0.78231508  1  0  -0.11412  0  3.69636  0  0  -0.13602  0  3.939538  0  0  -0.139261  0  3.957316  0  0  -0.073738  -0.134049  0  3.927845  0
C  C56  1  0.29383428  0.13412885  0.29028519  1  0  0.112371  0  3.681433  0  0  0.087743  0  3.924018  0  0  0.092934  0  3.938593  0  0  0.038605  0.084199  0  3.914781  0
C  C57  1  0.70617505  0.86587804  0.70972380  1  0  0.112437  0  3.681244  0  0  0.087816  0  3.923814  0  0  0.092998  0  3.938391  0  0  0.038649  0.084292  0  3.914556  0
C  C58  1  0.21664624  0.38754866  0.09313190  1  0  0.697349  0  3.871186  0  0  0.65261  0  4.157677  0  0  0.688897  0  4.149281  0  0  0.223798  0.627524  0  4.167009  0
C  C59  1  0.78335370  0.61244757  0.90687013  1  0  0.697361  0  3.87057  0  0  0.652477  0  4.157289  0  0  0.688761  0  4.148898  0  0  0.22382  0.627393  0  4.166615  0
C  C60  1  0.76213895  0.86935248  0.31418527  1  0  0.106106  0  3.69198  0  0  0.081669  0  3.93939  0  0  0.087423  0  3.954011  0  0  0.035658  0.077795  0  3.930094  0
C  C61  1  0.23786596  0.13064121  0.68582419  1  0  0.107326  0  3.692361  0  0  0.081661  0  3.939069  0  0  0.087431  0  3.953686  0  0  0.035662  0.077789  0  3.929767  0
C  C62  1  0.84050661  0.79422094  0.24969945  1  0  -0.124293  0  3.740647  0  0  -0.145466  0  3.986868  0  0  -0.15032  0  4.006936  0  0  -0.083793  -0.142389  0  3.973215  0
C  C63  1  0.15949862  0.20577834  0.75030935  1  0  -0.12417  0  3.740439  0  0  -0.145507  0  3.986924  0  0  -0.150352  0  4.006999  0  0  -0.083818  -0.142428  0  3.973266  0
C  C64  1  0.80196793  0.70366640  0.22277326  1  0  -0.020991  0  3.724749  0  0  -0.00403  0  3.95424  0  0  -0.005034  0  3.971458  0  0  -0.005715  -0.002943  0  3.941619  0
C  C65  1  0.19802686  0.29633339  0.77723420  1  0  -0.021096  0  3.72498  0  0  -0.003976  0  3.954286  0  0  -0.004999  0  3.971547  0  0  -0.005683  -0.002894  0  3.941663  0
C  C66  1  0.68782308  0.68929394  0.26576028  1  0  -0.120455  0  3.726733  0  0  -0.141719  0  3.970133  0  0  -0.145912  0  3.988991  0  0  -0.081201  -0.138997  0  3.957361  0
C  C67  1  0.31218613  0.31069438  0.73425425  1  0  -0.120405  0  3.726307  0  0  -0.141798  0  3.969981  0  0  -0.145956  0  3.988867  0  0  -0.081255  -0.139077  0  3.95721  0
C  C68  1  0.61391362  0.76860874  0.32898249  1  0  0.104771  0  3.697437  0  0  0.07971  0  3.944855  0  0  0.085331  0  3.958981  0  0  0.033089  0.075496  0  3.936551  0
C  C69  1  0.38608667  0.23138474  0.67102324  1  0  0.10614  0  3.697969  0  0  0.079855  0  3.944695  0  0  0.085482  0  3.958803  0  0  0.033137  0.075639  0  3.936393  0
C  C70  1  0.87757333  0.62647087  0.14826592  1  0  0.714235  0  3.857829  0  0  0.672217  0  4.143253  0  0  0.70912  0  4.131536  0  0  0.233033  0.647214  0  4.153145  0
C  C71  1  0.12242276  0.37352803  0.85174086  1  0  0.714299  0  3.857859  0  0  0.672199  0  4.143326  0  0  0.70909  0  4.131654  0  0  0.232957  0.647208  0  4.153197  0
C  C72  1  0.31001168  0.99390047  0.03200198  1  0  -0.159831  0  3.64276  0  0  -0.254956  0  3.876982  0  0  -0.251072  0  3.886463  0  0  -0.125936  -0.257263  0  3.870137  0
C  C73  1  0.68998252  0.00610197  0.96798749  1  0  -0.159796  0  3.642874  0  0  -0.254927  0  3.877112  0  0  -0.251045  0  3.886601  0  0  -0.126021  -0.25723  0  3.870268  0
C  C74  1  0.23257358  0.93275804  0.89858754  1  0  -0.183835  0  3.654076  0  0  -0.289368  0  3.909373  0  0  -0.287043  0  3.921033  0  0  -0.131726  -0.29047  0  3.901212  0
C  C75  1  0.76742328  0.06724266  0.10140398  1  0  -0.183928  0  3.654063  0  0  -0.289459  0  3.909408  0  0  -0.287141  0  3.921054  0  0  -0.131777  -0.290545  0  3.901258  0
C  C76  1  0.08208227  0.09653573  0.98446123  1  0  0.414286  0  3.822784  0  0  0.336122  0  4.12319  0  0  0.364265  0  4.125829  0  0  0.182765  0.317085  0  4.123313  0
C  C77  1  0.91791748  0.90347713  0.01552324  1  0  0.414292  0  3.822713  0  0  0.33608  0  4.123131  0  0  0.364229  0  4.125756  0  0  0.182733  0.317041  0  4.123259  0
C  C78  1  0.52587212  0.35746093  0.90708202  1  0  -0.171096  0  3.61636  0  0  -0.273156  0  3.865023  0  0  -0.269222  0  3.872997  0  0  -0.130857  -0.275311  0  3.859205  0
C  C79  1  0.47412497  0.64254822  0.09292079  1  0  -0.171021  0  3.616277  0  0  -0.273069  0  3.864915  0  0  -0.269123  0  3.872875  0  0  -0.130806  -0.275224  0  3.859099  0
C  C80  1  0.59771273  0.40943060  0.74576079  1  0  -0.176998  0  3.648203  0  0  -0.276487  0  3.891408  0  0  -0.273595  0  3.902379  0  0  -0.124029  -0.278028  0  3.883865  0
C  C81  1  0.40227619  0.59057170  0.25423931  1  0  -0.176859  0  3.648133  0  0  -0.276377  0  3.891388  0  0  -0.273484  0  3.902363  0  0  -0.124076  -0.277919  0  3.883839  0
C  C82  1  0.75693877  0.32737820  0.86649083  1  0  0.413159  0  3.82809  0  0  0.334297  0  4.12434  0  0  0.362975  0  4.126395  0  0  0.181577  0.314954  0  4.124915  0
C  C83  1  0.24305353  0.67262885  0.13350439  1  0  0.413047  0  3.828261  0  0  0.33422  0  4.124497  0  0  0.362898  0  4.126548  0  0  0.181446  0.314894  0  4.125085  0
I  I84  1  0.65585027  0.09358764  0.49515656  1  0  -0.510324  0  1.254497  0  0  -0.464269  0  1.587605  0  0  -0.486015  0  1.559478  0  0  -0.277425  -0.447941  0  1.605163  0
I  I85  1  0.34415348  0.90641899  0.50484605  1  0  -0.510375  0  1.254509  0  0  -0.464316  0  1.58759  0  0  -0.486061  0  1.55946  0  0  -0.277434  -0.447985  0  1.605155  0
N  N86  1  0.41235828  0.12786396  0.31746141  1  0  -0.246354  0  3.35202  0  0  -0.175642  0  3.638075  0  0  -0.182268  0  3.644551  0  0  -0.355339  -0.172161  0  3.633563  0
N  N87  1  0.58765948  0.87213755  0.68252712  1  0  -0.245984  0  3.351352  0  0  -0.175278  0  3.63741  0  0  -0.181891  0  3.643858  0  0  -0.355107  -0.171766  0  3.632868  0
N  N88  1  0.64811554  0.85950339  0.35186036  1  0  -0.242323  0  3.339619  0  0  -0.175642  0  3.62809  0  0  -0.182226  0  3.63419  0  0  -0.356822  -0.172144  0  3.62393  0
N  N89  1  0.35189882  0.14048137  0.64814874  1  0  -0.245998  0  3.343774  0  0  -0.175558  0  3.627926  0  0  -0.182104  0  3.633965  0  0  -0.356755  -0.172057  0  3.623763  0
N  N90  1  0.20269971  0.01167407  0.97211315  1  0  -0.079766  0  3.490831  0  0  0.026039  0  3.723573  0  0  0.006056  0  3.748844  0  0  -0.275198  0.03972  0  3.705368  0
N  N91  1  0.79729358  0.98832833  0.02787639  1  0  -0.079744  0  3.490898  0  0  0.02607  0  3.723622  0  0  0.006086  0  3.748893  0  0  -0.27512  0.039753  0  3.705413  0
N  N92  1  0.63263071  0.36083371  0.84059143  1  0  -0.076781  0  3.498882  0  0  0.027939  0  3.734362  0  0  0.00825  0  3.75906  0  0  -0.273286  0.041249  0  3.716699  0
N  N93  1  0.36735926  0.63917885  0.15940743  1  0  -0.076687  0  3.498669  0  0  0.027982  0  3.734188  0  0  0.00829  0  3.758887  0  0  -0.273166  0.04129  0  3.716527  0
N  N94  1  0.76689014  0.32654018  0.20789609  1  0  0.697824  0  4.148986  0  0  0.74285  0  4.424677  0  0  0.771022  0  4.433793  0  0  0.081202  0.723487  0  4.421045  0
N  N95  1  0.23310873  0.67344578  0.79210582  1  0  0.693995  0  4.150402  0  0  0.742754  0  4.425013  0  0  0.770923  0  4.434128  0  0  0.081198  0.723392  0  4.421376  0
O  O96  1  0.27072138  0.46113157  0.05516657  1  0  -0.682839  0  1.978169  0  0  -0.63176  0  2.215621  0  0  -0.662184  0  2.204553  0  0  -0.372396  -0.615321  0  2.221722  0
O  O97  1  0.72926078  0.53887792  0.94483798  1  0  -0.682837  0  1.97784  0  0  -0.631695  0  2.215375  0  0  -0.662135  0  2.20433  0  0  -0.372386  -0.615258  0  2.221471  0
O  O98  1  0.10335689  0.39373779  0.06938294  1  0  -0.806646  0  2.154834  0  0  -0.749336  0  2.416102  0  0  -0.788107  0  2.401244  0  0  -0.421526  -0.731628  0  2.424928  0
O  O99  1  0.89664598  0.60625210  0.93062709  1  0  -0.80667  0  2.154676  0  0  -0.74929  0  2.415935  0  0  -0.788061  0  2.401097  0  0  -0.421614  -0.731585  0  2.424761  0
O  O100  1  0.97769442  0.64797890  0.11015480  1  0  -0.748258  0  2.067514  0  0  -0.698374  0  2.319889  0  0  -0.732109  0  2.307158  0  0  -0.394517  -0.680217  0  2.326697  0
O  O101  1  0.02228968  0.35202782  0.88984038  1  0  -0.748276  0  2.067505  0  0  -0.698386  0  2.319971  0  0  -0.732109  0  2.307221  0  0  -0.394555  -0.680232  0  2.326772  0
O  O102  1  0.83417977  0.54788936  0.12752784  1  0  -0.724716  0  2.064457  0  0  -0.677569  0  2.314544  0  0  -0.710332  0  2.301642  0  0  -0.390956  -0.660526  0  2.321711  0
O  O103  1  0.16582770  0.45210073  0.87248456  1  0  -0.724785  0  2.064594  0  0  -0.677583  0  2.31461  0  0  -0.710329  0  2.301721  0  0  -0.390885  -0.660543  0  2.321766  0
O  O104  1  0.04925074  0.16425034  0.04834873  1  0  -0.624698  0  2.093834  0  0  -0.574597  0  2.355353  0  0  -0.605615  0  2.346287  0  0  -0.369075  -0.558385  0  2.359974  0
O  O105  1  0.95075357  0.83575435  0.95163906  1  0  -0.624657  0  2.093878  0  0  -0.57453  0  2.355332  0  0  -0.605535  0  2.346261  0  0  -0.369014  -0.558314  0  2.359951  0
O  O106  1  0.79555859  0.28240473  0.94640708  1  0  -0.637213  0  2.120833  0  0  -0.586665  0  2.38932  0  0  -0.617555  0  2.381048  0  0  -0.372252  -0.570174  0  2.393957  0
O  O107  1  0.20443523  0.71761170  0.05359106  1  0  -0.63725  0  2.121215  0  0  -0.586667  0  2.389563  0  0  -0.617565  0  2.381321  0  0  -0.37207  -0.570164  0  2.394159  0
O  O108  1  0.89352523  0.29601938  0.20200811  1  0  -0.52833  0  1.764021  0  0  -0.5269  0  1.979957  0  0  -0.548459  0  1.969406  0  0  -0.242172  -0.516144  0  1.986581  0
O  O109  1  0.10647589  0.70395268  0.79798772  1  0  -0.527075  0  1.764247  0  0  -0.52704  0  1.980017  0  0  -0.548591  0  1.969463  0  0  -0.242275  -0.516287  0  1.986644  0
O  O110  1  0.70683879  0.36214709  0.13031408  1  0  -0.575809  0  1.78153  0  0  -0.567124  0  2.010922  0  0  -0.590497  0  2.00148  0  0  -0.259302  -0.554961  0  2.016908  0
O  O111  1  0.29315854  0.63785926  0.86968562  1  0  -0.574109  0  1.781522  0  0  -0.567005  0  2.010999  0  0  -0.590373  0  2.00158  0  0  -0.259246  -0.554845  0  2.016981  0
O  O112  1  0.70470811  0.32296943  0.28181982  1  0  -0.36955  0  1.73657  0  0  -0.370603  0  1.922259  0  0  -0.379944  0  1.915234  0  0  -0.145117  -0.363765  0  1.926861  0
O  O113  1  0.29529798  0.67700009  0.71818411  1  0  -0.367843  0  1.736855  0  0  -0.370507  0  1.922432  0  0  -0.379849  0  1.915409  0  0  -0.145097  -0.363675  0  1.927044  0
