# generated using pymatgen
data_AlH11C25BrNO8
_symmetry_space_group_name_H-M   'P 1'
_cell_length_a   6.59570562
_cell_length_b   26.16911984
_cell_length_c   30.09504822
_cell_angle_alpha   112.14894732
_cell_angle_beta   89.99006446
_cell_angle_gamma   90.00513672
_symmetry_Int_Tables_number   1
_chemical_formula_structural   AlH11C25BrNO8
_chemical_formula_sum   'Al4 H44 C100 Br4 N4 O32'
_cell_volume   4811.20013536
_cell_formula_units_Z   4
loop_
 _symmetry_equiv_pos_site_id
 _symmetry_equiv_pos_as_xyz
  1  'x, y, z'
loop_
 _atom_site_type_symbol
 _atom_site_label
 _atom_site_symmetry_multiplicity
 _atom_site_fract_x
 _atom_site_fract_y
 _atom_site_fract_z
 _atom_site_occupancy
 _atom_site_pbe_bader_charge
 _atom_site_pbe_bader_spin_density
 _atom_site_pbe_cm5_charge
 _atom_site_pbe_ddec_charge
 _atom_site_pbe_ddec_spin_density
 _atom_site_pbe_ddec_sum_bond_order
 _atom_site_pbe_magmom
Al  Al0  1  0.18803298  0.75115367  0.75118945  1  2.501349  0  0.39802  1.646673  0  2.587319  0
Al  Al1  1  0.81195252  0.24884349  0.24880635  1  2.501094  0  0.397969  1.646768  0  2.586951  0
Al  Al2  1  0.68803855  0.74879607  0.74878625  1  2.501338  0  0.398212  1.646845  0  2.586968  0
Al  Al3  1  0.31194241  0.25119819  0.25120992  1  2.501486  0  0.398214  1.647056  0  2.58649  0
H  H4  1  0.12637126  0.90357003  0.05592998  1  0.134413  0  0.108679  0.122655  0  1.027415  0
H  H5  1  0.87363396  0.09643136  0.94406150  1  0.133724  0  0.108731  0.122655  0  1.027187  0
H  H6  1  0.62465201  0.59653653  0.44405018  1  0.148853  0  0.108564  0.122426  0  1.027664  0
H  H7  1  0.37535321  0.40346000  0.55594418  1  0.148969  0  0.108572  0.122456  0  1.027643  0
H  H8  1  0.02618544  0.87470417  0.90579091  1  0.078886  0  0.109831  0.108715  0  1.00784  0
H  H9  1  0.97377732  0.12529485  0.09420740  1  0.078684  0  0.109788  0.10873  0  1.007822  0
H  H10  1  0.52526428  0.62529602  0.59420018  1  0.067728  0  0.109703  0.108938  0  1.007408  0
H  H11  1  0.47474094  0.37469933  0.40579059  1  0.067607  0  0.1098  0.109103  0  1.007358  0
H  H12  1  0.82391273  0.93483567  0.79915655  1  0.099895  0  0.111328  0.10856  0  0.997495  0
H  H13  1  0.17609401  0.06516040  0.20083674  1  0.100148  0  0.111294  0.108479  0  0.99729  0
H  H14  1  0.32515609  0.56500392  0.70091432  1  0.098482  0  0.111498  0.108904  0  0.996768  0
H  H15  1  0.67480971  0.43499432  0.29907609  1  0.09833  0  0.111467  0.108854  0  0.996747  0
H  H16  1  0.05127108  0.88647597  0.97235020  1  0.063571  0  0.104745  0.102505  0  1.010031  0
H  H17  1  0.94874930  0.11352657  0.02764127  1  0.063763  0  0.104754  0.102562  0  1.010044  0
H  H18  1  0.54997924  0.61356239  0.52763752  1  0.064557  0  0.10459  0.102239  0  1.010176  0
H  H19  1  0.45001991  0.38643179  0.47235757  1  0.064283  0  0.104562  0.10219  0  1.010194  0
H  H20  1  0.59806764  0.53518338  0.08616411  1  0.134951  0  0.116488  0.133417  0  0.988419  0
H  H21  1  0.40194212  0.46482273  0.91383992  1  0.135061  0  0.116507  0.133425  0  0.988473  0
H  H22  1  0.09806380  0.96481893  0.41388768  1  0.135583  0  0.116644  0.133672  0  0.988511  0
H  H23  1  0.90187319  0.03522844  0.58615215  1  0.135314  0  0.116478  0.133434  0  0.98844  0
H  H24  1  0.34542965  0.42175571  0.13226803  1  0.112005  0  0.11275  0.12897  0  0.984778  0
H  H25  1  0.65456192  0.57825455  0.86773851  1  0.112573  0  0.112821  0.129069  0  0.984836  0
H  H26  1  0.84534819  0.07826936  0.36772515  1  0.113194  0  0.112795  0.129155  0  0.984983  0
H  H27  1  0.15453573  0.92169070  0.63224347  1  0.113291  0  0.112936  0.129252  0  0.984884  0
H  H28  1  0.36106095  0.36616171  0.18400139  1  0.098899  0  0.111696  0.116138  0  0.989684  0
H  H29  1  0.63889727  0.63384419  0.81600480  1  0.099  0  0.111648  0.1161  0  0.989684  0
H  H30  1  0.86105547  0.13382982  0.31596188  1  0.098107  0  0.111666  0.116272  0  0.989364  0
H  H31  1  0.13884513  0.86610556  0.68399137  1  0.099266  0  0.11163  0.116295  0  0.989371  0
H  H32  1  0.75479153  0.30763870  0.14149736  1  0.07206  0  0.111391  0.116678  0  0.991807  0
H  H33  1  0.24518185  0.69236612  0.85850021  1  0.072441  0  0.111367  0.1166  0  0.99186  0
H  H34  1  0.25481691  0.19240221  0.35852726  1  0.072467  0  0.111388  0.116668  0  0.991702  0
H  H35  1  0.74525805  0.80765517  0.64151361  1  0.071608  0  0.11138  0.116617  0  0.991769  0
H  H36  1  0.74344303  0.35950937  0.08671318  1  0.08524  0  0.114201  0.128465  0  0.980813  0
H  H37  1  0.25655916  0.64049594  0.91328726  1  0.085307  0  0.114167  0.128466  0  0.980848  0
H  H38  1  0.24342334  0.14054280  0.41332176  1  0.084432  0  0.114128  0.128492  0  0.981128  0
H  H39  1  0.75673501  0.85955773  0.58675489  1  0.085616  0  0.114283  0.128728  0  0.980868  0
H  H40  1  0.22715334  0.97945331  0.18909652  1  0.038604  0  0.096134  0.023989  0  0.967264  0
H  H41  1  0.77285946  0.02053735  0.81089140  1  0.038273  0  0.095998  0.023751  0  0.967358  0
H  H42  1  0.72485529  0.52078769  0.31085042  1  0.036162  0  0.095741  0.023719  0  0.967318  0
H  H43  1  0.27512718  0.47920997  0.68914214  1  0.036218  0  0.095822  0.023804  0  0.96727  0
H  H44  1  0.44440754  0.78754916  0.81173332  1  0.623784  0  0.35979  0.438231  0  0.841838  0
H  H45  1  0.55558857  0.21244160  0.18826357  1  0.623594  0  0.359925  0.438379  0  0.841767  0
H  H46  1  0.94451586  0.71236486  0.68826099  1  0.621446  0  0.360076  0.438202  0  0.842216  0
H  H47  1  0.05546510  0.28761654  0.31173809  1  0.622964  0  0.360123  0.438376  0  0.842295  0
C  C48  1  0.43668178  0.80134798  0.69727969  1  1.571585  0  0.264264  0.636087  0  4.11726  0
C  C49  1  0.56333708  0.19865930  0.30272003  1  1.571441  0  0.264335  0.636569  0  4.116553  0
C  C50  1  0.93676490  0.69860930  0.80270452  1  1.572327  0  0.264025  0.635577  0  4.117427  0
C  C51  1  0.06319180  0.30139102  0.19729414  1  1.571633  0  0.263984  0.635457  0  4.117428  0
C  C52  1  0.43508949  0.65810476  0.68749284  1  1.588877  0  0.276774  0.661658  0  4.083772  0
C  C53  1  0.56488693  0.34189379  0.31250440  1  1.58915  0  0.276846  0.661739  0  4.083469  0
C  C54  1  0.93492616  0.84182471  0.81252569  1  1.591951  0  0.276422  0.661  0  4.085311  0
C  C55  1  0.06506844  0.15817227  0.18747406  1  1.591298  0  0.27663  0.661318  0  4.085308  0
C  C56  1  0.07295909  0.10079916  0.15054064  1  -0.031224  0  -0.010917  -0.026731  0  4.007818  0
C  C57  1  0.92703248  0.89919863  0.84945660  1  -0.031693  0  -0.01097  -0.026706  0  4.008068  0
C  C58  1  0.57277625  0.39928091  0.34941899  1  -0.043079  0  -0.010595  -0.027226  0  4.010077  0
C  C59  1  0.42720471  0.60071850  0.65057321  1  -0.04277  0  -0.010617  -0.027519  0  4.009719  0
C  C60  1  0.13699108  0.00317653  0.13022413  1  -0.001897  0  -0.015856  -0.030567  0  3.982844  0
C  C61  1  0.86299140  0.99682252  0.86976986  1  -0.001681  0  -0.015776  -0.030406  0  3.982792  0
C  C62  1  0.63583000  0.49694818  0.36973201  1  -0.000692  0  -0.015745  -0.02946  0  3.981761  0
C  C63  1  0.36416006  0.50304948  0.63026055  1  -0.000813  0  -0.015686  -0.029492  0  3.981735  0
C  C64  1  0.13405049  0.05707861  0.16368917  1  -0.075613  0  -0.068118  -0.118847  0  3.958961  0
C  C65  1  0.86595321  0.94291938  0.83630590  1  -0.075528  0  -0.068212  -0.119108  0  3.959039  0
C  C66  1  0.63310781  0.44304055  0.33624560  1  -0.072361  0  -0.068078  -0.119316  0  3.958001  0
C  C67  1  0.36686405  0.55695817  0.66374588  1  -0.072207  0  -0.068321  -0.119523  0  3.958208  0
C  C68  1  0.02246493  0.09068607  0.10332487  1  0.012884  0  -0.068623  -0.124404  0  3.926816  0
C  C69  1  0.97751906  0.90931414  0.89667092  1  -0.051388  0  -0.068596  -0.124315  0  3.927002  0
C  C70  1  0.52276712  0.40935282  0.39665542  1  -0.038676  0  -0.069393  -0.125113  0  3.927575  0
C  C71  1  0.47724113  0.59064201  0.60333679  1  -0.039157  0  -0.06903  -0.124379  0  3.927126  0
C  C72  1  0.03558103  0.03717673  0.06730827  1  -0.069158  0  0.002376  0.036373  0  3.946848  0
C  C73  1  0.96440600  0.96282574  0.93268392  1  -0.005133  0  0.002354  0.036218  0  3.946728  0
C  C74  1  0.53549815  0.46286545  0.43268096  1  -0.005623  0  0.002802  0.036681  0  3.94701  0
C  C75  1  0.46451010  0.53712826  0.56731305  1  -0.005114  0  0.002624  0.036328  0  3.947411  0
C  C76  1  0.08857546  0.99208583  0.08100281  1  -0.016171  0  0.007583  0.065128  0  3.940612  0
C  C77  1  0.91142217  0.00791480  0.91898867  1  -0.015624  0  0.007623  0.065206  0  3.940658  0
C  C78  1  0.58784167  0.50799311  0.41897889  1  -0.012783  0  0.007131  0.064499  0  3.94129  0
C  C79  1  0.41216203  0.49200118  0.58101297  1  -0.013026  0  0.007277  0.064788  0  3.941301  0
C  C80  1  0.99581795  0.02730848  0.01738262  1  0.057465  0  -0.00089  0.031522  0  3.964497  0
C  C81  1  0.00419333  0.97269556  0.98261316  1  -0.003268  0  -0.000826  0.031507  0  3.964029  0
C  C82  1  0.49597089  0.47269093  0.48261194  1  0.058237  0  -0.001245  0.031128  0  3.964676  0
C  C83  1  0.50403736  0.52730233  0.51738279  1  -0.001747  0  -0.000977  0.031404  0  3.964825  0
C  C84  1  0.04963304  0.92887588  0.99817990  1  -0.125239  0  -0.084594  -0.115238  0  4.008194  0
C  C85  1  0.95039037  0.07112584  0.00181409  1  -0.124857  0  -0.084564  -0.115363  0  4.008415  0
C  C86  1  0.54884426  0.57115690  0.50181259  1  -0.03556  0  -0.084417  -0.11541  0  4.00864  0
C  C87  1  0.45116096  0.42883629  0.49818286  1  -0.0355  0  -0.084354  -0.11519  0  4.008716  0
C  C88  1  0.09123300  0.93781644  0.04513410  1  0.055978  0  -0.086522  -0.125497  0  3.982837  0
C  C89  1  0.90877374  0.06218337  0.95485990  1  0.055758  0  -0.086566  -0.125462  0  3.982541  0
C  C90  1  0.59015252  0.56225383  0.45484785  1  -0.051497  0  -0.086264  -0.124859  0  3.983113  0
C  C91  1  0.40985724  0.43773886  0.54514473  1  -0.052027  0  -0.086365  -0.125096  0  3.983471  0
C  C92  1  0.12787707  0.53751752  0.91583582  1  1.330572  0  0.247996  0.447021  0  4.090222  0
C  C93  1  0.87210844  0.46248666  0.08416642  1  1.330912  0  0.24804  0.447148  0  4.089998  0
C  C94  1  0.62791470  0.96249865  0.58416221  1  1.330848  0  0.24802  0.446951  0  4.091108  0
C  C95  1  0.37203897  0.03755480  0.41587580  1  1.329672  0  0.248113  0.446673  0  4.089273  0
C  C96  1  0.81636875  0.58579317  0.95972554  1  1.355334  0  0.245434  0.452374  0  4.057367  0
C  C97  1  0.18360766  0.41420801  0.04027420  1  1.35632  0  0.245402  0.452526  0  4.057346  0
C  C98  1  0.31659721  0.91416011  0.54025598  1  1.354322  0  0.245373  0.452548  0  4.057703  0
C  C99  1  0.68357327  0.08583034  0.45973409  1  1.354583  0  0.245544  0.45266  0  4.058223  0
C  C100  1  0.82821483  0.55381195  0.99135958  1  -0.018883  0  -0.008645  -0.110622  0  3.931863  0
C  C101  1  0.17177523  0.44618952  0.00863908  1  -0.018865  0  -0.008605  -0.110568  0  3.93152  0
C  C102  1  0.32829221  0.94616642  0.50864667  1  -0.020108  0  -0.008403  -0.109979  0  3.931649  0
C  C103  1  0.67175849  0.05383709  0.49135665  1  -0.020116  0  -0.008479  -0.110172  0  3.931763  0
C  C104  1  0.98973067  0.51547704  0.98502409  1  -0.03003  0  0.003259  0.033539  0  4.002691  0
C  C105  1  0.01027455  0.48452901  0.01498066  1  0.042373  0  0.003185  0.03329  0  4.002668  0
C  C106  1  0.48975320  0.98452612  0.51498419  1  0.043693  0  0.003239  0.032913  0  4.002708  0
C  C107  1  0.51025960  0.01548939  0.48503347  1  -0.030189  0  0.003189  0.03321  0  4.002646  0
C  C108  1  0.13585111  0.50710644  0.94849240  1  0.02086  0  -0.004445  -0.04767  0  3.999543  0
C  C109  1  0.86414804  0.49289691  0.05151056  1  0.02084  0  -0.00445  -0.04768  0  3.999609  0
C  C110  1  0.63586162  0.99290418  0.55151021  1  0.020606  0  -0.004479  -0.04733  0  4.000125  0
C  C111  1  0.36415724  0.00711341  0.44850959  1  0.022342  0  -0.004286  -0.047185  0  3.999515  0
C  C112  1  0.68761921  0.56032451  0.02803958  1  -0.02644  0  0.004464  0.110954  0  3.914786  0
C  C113  1  0.31236478  0.43967710  0.97195764  1  -0.026206  0  0.004599  0.11118  0  3.914712  0
C  C114  1  0.18772430  0.93965730  0.47197186  1  -0.027042  0  0.004687  0.111181  0  3.914474  0
C  C115  1  0.81234005  0.06034433  0.52802716  1  -0.026849  0  0.004538  0.110888  0  3.914872  0
C  C116  1  0.70729706  0.52996332  0.05764450  1  0.008773  0  -0.073549  -0.129412  0  3.949125  0
C  C117  1  0.29269907  0.47003830  0.94235452  1  0.008577  0  -0.073596  -0.129475  0  3.949311  0
C  C118  1  0.20734172  0.97003547  0.44238083  1  0.010102  0  -0.073968  -0.130125  0  3.94996  0
C  C119  1  0.79267714  0.02998029  0.55763215  1  0.009761  0  -0.073614  -0.129531  0  3.94942  0
C  C120  1  0.21735865  0.39628139  0.13406335  1  0.007823  0  -0.080955  -0.148942  0  3.959912  0
C  C121  1  0.78263140  0.60372648  0.86594032  1  0.006571  0  -0.081122  -0.14916  0  3.959947  0
C  C122  1  0.71731164  0.10374256  0.36592865  1  0.00743  0  -0.081177  -0.149353  0  3.9596  0
C  C123  1  0.28263445  0.89623948  0.63405965  1  0.008307  0  -0.081352  -0.149702  0  3.959644  0
C  C124  1  0.22579741  0.36548689  0.16298848  1  -0.014737  0  -0.076942  -0.076927  0  3.964879  0
C  C125  1  0.77417900  0.63452412  0.83701626  1  -0.015518  0  -0.076858  -0.076777  0  3.964622  0
C  C126  1  0.72577024  0.13453595  0.33699729  1  -0.015553  0  -0.076612  -0.076611  0  3.964341  0
C  C127  1  0.27417736  0.86544250  0.66298456  1  -0.017028  0  -0.076476  -0.076424  0  3.964327  0
C  C128  1  0.05858233  0.33376228  0.16579084  1  -0.007228  0  -0.015717  -0.050275  0  3.984734  0
C  C129  1  0.94138801  0.66624487  0.83421032  1  -0.006747  0  -0.015659  -0.05022  0  3.984634  0
C  C130  1  0.55859653  0.16626673  0.33420355  1  -0.005118  0  -0.01587  -0.050742  0  3.984499  0
C  C131  1  0.44139201  0.83373624  0.66579330  1  -0.00674  0  -0.016043  -0.050738  0  3.984973  0
C  C132  1  0.88403449  0.33217694  0.13870161  1  -0.016034  0  -0.078302  -0.078407  0  3.97267  0
C  C133  1  0.11594344  0.66782684  0.86129884  1  -0.016537  0  -0.078284  -0.078306  0  3.972619  0
C  C134  1  0.38405426  0.16785584  0.36131085  1  -0.013524  0  -0.078292  -0.078227  0  3.972518  0
C  C135  1  0.61597673  0.83218483  0.63871714  1  -0.015166  0  -0.078276  -0.078298  0  3.972085  0
C  C136  1  0.87725120  0.36128747  0.10847702  1  0.024064  0  -0.082018  -0.150896  0  3.970415  0
C  C137  1  0.12275250  0.63871460  0.89152128  1  0.023965  0  -0.082079  -0.151008  0  3.970633  0
C  C138  1  0.37719079  0.13874569  0.39153475  1  0.032564  0  -0.081984  -0.150945  0  3.97054  0
C  C139  1  0.62285991  0.86130881  0.60850218  1  0.023851  0  -0.082069  -0.151029  0  3.969757  0
C  C140  1  0.04342391  0.39357751  0.10678009  1  0.262655  0  0.092601  0.199613  0  3.998962  0
C  C141  1  0.95656766  0.60642667  0.89322216  1  0.263366  0  0.09267  0.199608  0  3.998914  0
C  C142  1  0.54336244  0.10645335  0.39323027  1  0.25117  0  0.092661  0.199501  0  3.997847  0
C  C143  1  0.45663974  0.89356671  0.60678557  1  0.263672  0  0.09272  0.199749  0  3.997713  0
C  C144  1  0.19241224  0.96095701  0.14980082  1  0.918259  0  0.09596  0.267257  0  3.992984  0
C  C145  1  0.80759449  0.03903719  0.85018996  1  0.946993  0  0.096223  0.267555  0  3.993218  0
C  C146  1  0.69043925  0.53923451  0.35016841  1  0.931288  0  0.096086  0.266815  0  3.995232  0
C  C147  1  0.30954929  0.46076333  0.64982631  1  0.931497  0  0.09611  0.266951  0  3.995199  0
Br  Br148  1  0.46188203  0.60854754  0.04259080  1  0.012167  0  0.070925  -0.001338  0  1.445779  0
Br  Br149  1  0.53811864  0.39145460  0.95741289  1  0.012151  0  0.070788  -0.00151  0  1.445642  0
Br  Br150  1  0.96193351  0.89143778  0.45742192  1  0.012159  0  0.070766  -0.001493  0  1.445306  0
Br  Br151  1  0.03809597  0.10857005  0.54258606  1  0.012386  0  0.070866  -0.001406  0  1.445642  0
N  N152  1  0.96697538  0.57509609  0.92363843  1  -1.176317  0  -0.225825  -0.217663  0  3.567514  0
N  N153  1  0.03301467  0.42490430  0.07635951  1  -1.176506  0  -0.225786  -0.217662  0  3.567538  0
N  N154  1  0.46707285  0.92490188  0.57636903  1  -1.176558  0  -0.225713  -0.217654  0  3.567292  0
N  N155  1  0.53296117  0.07512682  0.42365432  1  -1.174755  0  -0.225815  -0.217616  0  3.567062  0
O  O156  1  0.60894648  0.67963993  0.69979349  1  -1.249249  0  -0.229749  -0.584982  0  2.314499  0
O  O157  1  0.39101932  0.32037239  0.30018717  1  -1.249546  0  -0.229699  -0.58501  0  2.313916  0
O  O158  1  0.10872799  0.82020681  0.80031828  1  -1.250597  0  -0.229983  -0.585287  0  2.315143  0
O  O159  1  0.89128026  0.17980469  0.19966310  1  -1.250691  0  -0.229819  -0.585341  0  2.315419  0
O  O160  1  0.26429990  0.79104066  0.71115999  1  -1.264323  0  -0.239639  -0.59651  0  2.337422  0
O  O161  1  0.73572048  0.20893355  0.28881828  1  -1.264237  0  -0.239594  -0.596576  0  2.336979  0
O  O162  1  0.76441795  0.70909309  0.78895762  1  -1.264822  0  -0.239421  -0.596201  0  2.337315  0
O  O163  1  0.23554936  0.29088121  0.21102172  1  -1.264159  0  -0.239523  -0.596246  0  2.337022  0
O  O164  1  0.26601216  0.68076459  0.70354294  1  -1.24971  0  -0.229233  -0.58582  0  2.320437  0
O  O165  1  0.73395363  0.31922075  0.29646691  1  -1.249967  0  -0.229449  -0.586006  0  2.320342  0
O  O166  1  0.76587596  0.81926860  0.79632630  1  -1.250759  0  -0.229074  -0.585644  0  2.320848  0
O  O167  1  0.23412621  0.18071232  0.20369003  1  -1.250419  0  -0.229334  -0.585906  0  2.32077  0
O  O168  1  0.10771845  0.71408610  0.79249862  1  -1.256897  0  -0.240055  -0.600726  0  2.366348  0
O  O169  1  0.89222158  0.28593969  0.20751720  1  -1.256718  0  -0.239956  -0.600636  0  2.366633  0
O  O170  1  0.60751205  0.78567249  0.70733903  1  -1.257737  0  -0.240124  -0.600889  0  2.36658  0
O  O171  1  0.39250833  0.21435300  0.29267787  1  -1.257728  0  -0.240332  -0.601321  0  2.366605  0
O  O172  1  0.43997011  0.76047758  0.77920325  1  -1.424708  0  -0.448267  -0.996419  0  2.223019  0
O  O173  1  0.56001388  0.23951319  0.22079365  1  -1.424639  0  -0.44836  -0.996584  0  2.223146  0
O  O174  1  0.93998686  0.73947516  0.72077396  1  -1.422392  0  -0.448625  -0.99615  0  2.223008  0
O  O175  1  0.05998651  0.26051476  0.27922186  1  -1.42394  0  -0.448548  -0.996323  0  2.22326  0
O  O176  1  0.25338556  0.53039844  0.88385969  1  -1.091934  0  -0.269275  -0.427516  0  2.081623  0
O  O177  1  0.74661663  0.46960689  0.11614255  1  -1.092221  0  -0.269271  -0.427524  0  2.081713  0
O  O178  1  0.75339074  0.96963639  0.61614033  1  -1.092269  0  -0.2694  -0.427601  0  2.081639  0
O  O179  1  0.24642345  0.03045412  0.38393350  1  -1.092266  0  -0.269585  -0.427411  0  2.08054  0
O  O180  1  0.68543904  0.62054544  0.96380798  1  -1.0792  0  -0.261089  -0.416975  0  2.160812  0
O  O181  1  0.31453889  0.37945596  0.03619140  1  -1.080187  0  -0.261104  -0.417158  0  2.16101  0
O  O182  1  0.18575811  0.87935989  0.53613963  1  -1.079387  0  -0.261204  -0.417376  0  2.160494  0
O  O183  1  0.81450939  0.12058103  0.46381144  1  -1.079171  0  -0.261035  -0.417122  0  2.161233  0
O  O184  1  0.20177948  0.91083956  0.12820296  1  -1.052191  0  -0.267138  -0.353278  0  2.116179  0
O  O185  1  0.79820603  0.08915159  0.87178172  1  -1.080912  0  -0.267312  -0.353362  0  2.116236  0
O  O186  1  0.69932934  0.58934899  0.37178371  1  -1.056501  0  -0.266824  -0.3528  0  2.117673  0
O  O187  1  0.30067436  0.41064719  0.62821245  1  -1.056652  0  -0.266921  -0.35297  0  2.117685  0
