# generated using pymatgen
data_ZnH12C18(NO2)2
_symmetry_space_group_name_H-M   'P 1'
_cell_length_a   11.38046922
_cell_length_b   12.51778710
_cell_length_c   15.21623624
_cell_angle_alpha   67.81995964
_cell_angle_beta   68.04129598
_cell_angle_gamma   62.95756693
_symmetry_Int_Tables_number   1
_chemical_formula_structural   ZnH12C18(NO2)2
_chemical_formula_sum   'Zn4 H48 C72 N8 O16'
_cell_volume   1733.20532806
_cell_formula_units_Z   4
loop_
 _symmetry_equiv_pos_site_id
 _symmetry_equiv_pos_as_xyz
  1  'x, y, z'
loop_
 _atom_site_type_symbol
 _atom_site_label
 _atom_site_symmetry_multiplicity
 _atom_site_fract_x
 _atom_site_fract_y
 _atom_site_fract_z
 _atom_site_occupancy
 _atom_site_hle17_bader_spin_density
 _atom_site_hle17_ddec_charge
 _atom_site_hle17_ddec_spin_density
 _atom_site_hle17_ddec_sum_bond_order
 _atom_site_hle17_magmom
 _atom_site_hse06_10hf_bader_spin_density
 _atom_site_hse06_10hf_ddec_charge
 _atom_site_hse06_10hf_ddec_spin_density
 _atom_site_hse06_10hf_ddec_sum_bond_order
 _atom_site_hse06_10hf_magmom
 _atom_site_hse06_bader_spin_density
 _atom_site_hse06_ddec_charge
 _atom_site_hse06_ddec_spin_density
 _atom_site_hse06_ddec_sum_bond_order
 _atom_site_hse06_magmom
 _atom_site_pbe_bader_spin_density
 _atom_site_pbe_cm5_charge
 _atom_site_pbe_ddec_charge
 _atom_site_pbe_ddec_spin_density
 _atom_site_pbe_ddec_sum_bond_order
 _atom_site_pbe_magmom
Zn  Zn0  1  0.95907809  0.98340294  0.64573411  1  0  1.040425  0  1.825023  0  0  0.854444  0  2.287698  0  0  0.905654  0  2.230311  0  0  0.686971  0.81914  0  2.327034  0
Zn  Zn1  1  0.58837089  0.51647717  0.85432032  1  0  1.041048  0  1.825146  0  0  0.855074  0  2.287854  0  0  0.906301  0  2.230458  0  0  0.687012  0.819746  0  2.32722  0
Zn  Zn2  1  0.04091732  0.01660201  0.35426515  1  0  1.040417  0  1.825043  0  0  0.85444  0  2.287705  0  0  0.905652  0  2.230315  0  0  0.686976  0.819136  0  2.327046  0
Zn  Zn3  1  0.41163676  0.48352233  0.14567562  1  0  1.04101  0  1.82512  0  0  0.855054  0  2.287793  0  0  0.906282  0  2.230398  0  0  0.687029  0.819735  0  2.327165  0
H  H4  1  0.85318307  0.80342757  0.62958029  1  0  0.082195  0  0.943642  0  0  0.092689  0  1.002791  0  0  0.094533  0  1.001793  0  0  0.1208  0.091406  0  1.003456  0
H  H5  1  0.28632834  0.69605554  0.87061820  1  0  0.083089  0  0.941672  0  0  0.09366  0  1.000965  0  0  0.095417  0  1.000047  0  0  0.121465  0.092411  0  1.001658  0
H  H6  1  0.14681886  0.19656990  0.37042351  1  0  0.082155  0  0.943651  0  0  0.092626  0  1.002834  0  0  0.094473  0  1.00183  0  0  0.120771  0.091342  0  1.003494  0
H  H7  1  0.71367212  0.30394381  0.12938407  1  0  0.083099  0  0.941627  0  0  0.093659  0  1.000942  0  0  0.095418  0  1.00002  0  0  0.121478  0.092407  0  1.001624  0
H  H8  1  0.44912248  0.18400498  0.64539740  1  0  0.099624  0  0.970964  0  0  0.110558  0  1.032967  0  0  0.113485  0  1.032115  0  0  0.107123  0.108581  0  1.033608  0
H  H9  1  0.27879069  0.31525171  0.85509406  1  0  0.099168  0  0.970633  0  0  0.109783  0  1.033142  0  0  0.112703  0  1.032285  0  0  0.107195  0.107861  0  1.033708  0
H  H10  1  0.55087298  0.81599523  0.35460747  1  0  0.099616  0  0.971019  0  0  0.110554  0  1.033017  0  0  0.113479  0  1.032171  0  0  0.107119  0.108573  0  1.033659  0
H  H11  1  0.72121165  0.68474773  0.14490438  1  0  0.099199  0  0.970667  0  0  0.109807  0  1.033168  0  0  0.112727  0  1.032312  0  0  0.107208  0.107885  0  1.033736  0
H  H12  1  0.73148455  0.20257891  0.87990660  1  0  0.121252  0  0.946955  0  0  0.126891  0  1.015146  0  0  0.131687  0  1.010278  0  0  0.108501  0.123399  0  1.018671  0
H  H13  1  0.81354041  0.29713388  0.62019088  1  0  0.121131  0  0.946754  0  0  0.127102  0  1.014529  0  0  0.131882  0  1.00965  0  0  0.108674  0.123607  0  1.018093  0
H  H14  1  0.26852222  0.79740835  0.12009935  1  0  0.121233  0  0.946934  0  0  0.12684  0  1.015162  0  0  0.131637  0  1.010285  0  0  0.10848  0.12335  0  1.018697  0
H  H15  1  0.18646239  0.70286568  0.37980227  1  0  0.121201  0  0.946746  0  0  0.127177  0  1.014508  0  0  0.131965  0  1.009628  0  0  0.108689  0.123687  0  1.018074  0
H  H16  1  0.29835980  0.19384405  0.58097333  1  0  0.10768  0  0.952194  0  0  0.119469  0  1.009879  0  0  0.122451  0  1.009148  0  0  0.109339  0.117448  0  1.010362  0
H  H17  1  0.07341918  0.30544205  0.91853778  1  0  0.106995  0  0.953295  0  0  0.11838  0  1.011319  0  0  0.121332  0  1.010643  0  0  0.109067  0.116319  0  1.011894  0
H  H18  1  0.70165163  0.80615741  0.41901764  1  0  0.10777  0  0.952335  0  0  0.119571  0  1.009985  0  0  0.122557  0  1.009247  0  0  0.109342  0.117544  0  1.010475  0
H  H19  1  0.92659227  0.69455649  0.08145965  1  0  0.107028  0  0.953406  0  0  0.118428  0  1.011384  0  0  0.121381  0  1.010706  0  0  0.109106  0.11637  0  1.011956  0
H  H20  1  0.63516989  0.80021653  0.63225133  1  0  0.132265  0  0.969893  0  0  0.140207  0  1.032124  0  0  0.144484  0  1.029537  0  0  0.112825  0.137132  0  1.034123  0
H  H21  1  0.06778395  0.69911090  0.86808873  1  0  0.132106  0  0.970185  0  0  0.140106  0  1.032367  0  0  0.144362  0  1.029804  0  0  0.112592  0.137078  0  1.034323  0
H  H22  1  0.36482369  0.19978539  0.36775915  1  0  0.132229  0  0.969944  0  0  0.140206  0  1.032124  0  0  0.144485  0  1.029536  0  0  0.112837  0.137135  0  1.034124  0
H  H23  1  0.93221400  0.30089304  0.13191427  1  0  0.132063  0  0.970231  0  0  0.140117  0  1.032351  0  0  0.144373  0  1.029789  0  0  0.112594  0.137083  0  1.034308  0
H  H24  1  0.67619956  0.16896340  0.64346506  1  0  0.087164  0  0.944684  0  0  0.095785  0  1.007488  0  0  0.097854  0  1.006237  0  0  0.120129  0.094257  0  1.008488  0
H  H25  1  0.48888183  0.33034176  0.85712407  1  0  0.087646  0  0.944161  0  0  0.09626  0  1.006959  0  0  0.098301  0  1.005708  0  0  0.120291  0.094825  0  1.007843  0
H  H26  1  0.32380043  0.83104164  0.35653050  1  0  0.087183  0  0.944559  0  0  0.095805  0  1.007377  0  0  0.097858  0  1.006144  0  0  0.120124  0.094294  0  1.008367  0
H  H27  1  0.51111968  0.66965958  0.14287217  1  0  0.087636  0  0.944178  0  0  0.096258  0  1.006963  0  0  0.098298  0  1.005713  0  0  0.120269  0.094827  0  1.007852  0
H  H28  1  0.08015799  0.18277344  0.59117137  1  0  0.091732  0  0.929246  0  0  0.102105  0  0.985966  0  0  0.104602  0  0.983894  0  0  0.122351  0.100374  0  0.987375  0
H  H29  1  0.85408654  0.31724241  0.90830332  1  0  0.090981  0  0.930684  0  0  0.10198  0  0.986809  0  0  0.1044  0  0.984816  0  0  0.122357  0.100246  0  0.988243  0
H  H30  1  0.91985392  0.81722634  0.40881253  1  0  0.0918  0  0.929133  0  0  0.102106  0  0.985935  0  0  0.104601  0  0.983867  0  0  0.122355  0.100382  0  0.987348  0
H  H31  1  0.14592630  0.68275902  0.09168910  1  0  0.09089  0  0.930707  0  0  0.10191  0  0.986826  0  0  0.104346  0  0.984814  0  0  0.122352  0.100182  0  0.988259  0
H  H32  1  0.43983476  0.79635023  0.70499650  1  0  0.135078  0  0.981449  0  0  0.14111  0  1.047259  0  0  0.145031  0  1.044889  0  0  0.111618  0.138324  0  1.049013  0
H  H33  1  0.94143338  0.70327029  0.79577281  1  0  0.135062  0  0.982107  0  0  0.140682  0  1.048386  0  0  0.144684  0  1.045937  0  0  0.111291  0.13787  0  1.050173  0
H  H34  1  0.56015430  0.20365155  0.29501953  1  0  0.134987  0  0.981602  0  0  0.141014  0  1.047434  0  0  0.144928  0  1.045087  0  0  0.11155  0.138245  0  1.049167  0
H  H35  1  0.05857168  0.29672802  0.20423400  1  0  0.135005  0  0.982055  0  0  0.140615  0  1.048344  0  0  0.144617  0  1.045897  0  0  0.111267  0.137799  0  1.050126  0
H  H36  1  0.21862150  0.80361878  0.70356388  1  0  0.083585  0  0.964386  0  0  0.090349  0  1.031608  0  0  0.092569  0  1.029942  0  0  0.115917  0.088691  0  1.032924  0
H  H37  1  0.72592249  0.69657945  0.79695761  1  0  0.082588  0  0.964826  0  0  0.08956  0  1.031856  0  0  0.091761  0  1.030223  0  0  0.1157  0.087924  0  1.033145  0
H  H38  1  0.78136628  0.19638407  0.29644616  1  0  0.083615  0  0.964452  0  0  0.090355  0  1.031685  0  0  0.092571  0  1.030028  0  0  0.115936  0.088697  0  1.032998  0
H  H39  1  0.27407762  0.30342260  0.20304719  1  0  0.082593  0  0.964768  0  0  0.089567  0  1.031801  0  0  0.091767  0  1.03017  0  0  0.115723  0.08793  0  1.033085  0
H  H40  1  0.49245512  0.09475286  0.16953380  1  0  0.09043  0  0.976751  0  0  0.098266  0  1.043812  0  0  0.101102  0  1.042666  0  0  0.09728  0.096161  0  1.044733  0
H  H41  1  0.75650802  0.40539987  0.33047005  1  0  0.090507  0  0.977221  0  0  0.097639  0  1.045025  0  0  0.100479  0  1.043883  0  0  0.097305  0.095509  0  1.045964  0
H  H42  1  0.50753888  0.90525213  0.83046400  1  0  0.090412  0  0.976727  0  0  0.098241  0  1.043818  0  0  0.101077  0  1.042673  0  0  0.09724  0.096135  0  1.04474  0
H  H43  1  0.24348296  0.59459879  0.66952219  1  0  0.090437  0  0.977263  0  0  0.097562  0  1.045074  0  0  0.100401  0  1.043935  0  0  0.097238  0.095429  0  1.046009  0
H  H44  1  0.56351246  0.88583514  0.14579965  1  0  0.081113  0  0.960468  0  0  0.092186  0  1.020561  0  0  0.094876  0  1.02033  0  0  0.094314  0.090247  0  1.020847  0
H  H45  1  0.59477816  0.61432433  0.35439999  1  0  0.079929  0  0.960456  0  0  0.091199  0  1.020411  0  0  0.093942  0  1.020086  0  0  0.094389  0.089166  0  1.020905  0
H  H46  1  0.43647793  0.11416597  0.85420597  1  0  0.081133  0  0.960448  0  0  0.092184  0  1.020564  0  0  0.094876  0  1.020328  0  0  0.0943  0.090232  0  1.020857  0
H  H47  1  0.40521125  0.38567697  0.64559796  1  0  0.07998  0  0.960464  0  0  0.091242  0  1.020421  0  0  0.093987  0  1.020093  0  0  0.094417  0.089206  0  1.020903  0
H  H48  1  0.72764179  0.83392956  0.98884129  1  0  0.091553  0  0.957461  0  0  0.098113  0  1.026319  0  0  0.101849  0  1.023599  0  0  0.098274  0.095316  0  1.02847  0
H  H49  1  0.55005586  0.66597131  0.51137735  1  0  0.091248  0  0.957544  0  0  0.098123  0  1.026027  0  0  0.101875  0  1.023316  0  0  0.09843  0.095368  0  1.028043  0
H  H50  1  0.27234610  0.16606782  0.01116620  1  0  0.091536  0  0.957458  0  0  0.098115  0  1.026288  0  0  0.101851  0  1.023567  0  0  0.098273  0.095314  0  1.028438  0
H  H51  1  0.44993861  0.33403741  0.48861871  1  0  0.091303  0  0.95758  0  0  0.098175  0  1.02606  0  0  0.101928  0  1.023348  0  0  0.09841  0.095418  0  1.028075  0
C  C52  1  0.56841695  0.28637721  0.04201393  1  0  0.659342  0  3.899255  0  0  0.604547  0  4.195377  0  0  0.640592  0  4.185894  0  0  0.213551  0.580163  0  4.201289  0
C  C53  1  0.89645416  0.21365874  0.45809787  1  0  0.659624  0  3.898905  0  0  0.604943  0  4.195012  0  0  0.640966  0  4.185567  0  0  0.21291  0.580671  0  4.200721  0
C  C54  1  0.43158978  0.71361480  0.95798640  1  0  0.659499  0  3.899182  0  0  0.604754  0  4.19525  0  0  0.640798  0  4.185766  0  0  0.213558  0.580359  0  4.201164  0
C  C55  1  0.10354186  0.78634917  0.54189334  1  0  0.659832  0  3.898767  0  0  0.605095  0  4.194934  0  0  0.641119  0  4.185479  0  0  0.212998  0.580826  0  4.200642  0
C  C56  1  0.38936178  0.99522991  0.64248887  1  0  0.097532  0  3.756398  0  0  0.106895  0  3.98965  0  0  0.10989  0  4.01233  0  0  0.011851  0.105098  0  3.974128  0
C  C57  1  0.02738023  0.50420927  0.85763925  1  0  0.096104  0  3.7575  0  0  0.106778  0  3.989158  0  0  0.109763  0  4.011814  0  0  0.011657  0.104979  0  3.973626  0
C  C58  1  0.61063142  0.00477113  0.35751966  1  0  0.097401  0  3.756564  0  0  0.106823  0  3.989728  0  0  0.109821  0  4.012402  0  0  0.011796  0.105021  0  3.974207  0
C  C59  1  0.97262841  0.49579295  0.14235882  1  0  0.096343  0  3.757195  0  0  0.10699  0  3.988879  0  0  0.109978  0  4.011532  0  0  0.011764  0.1052  0  3.973344  0
C  C60  1  0.76098884  0.88601012  0.63262843  1  0  0.13938  0  3.698914  0  0  0.107373  0  3.953102  0  0  0.114588  0  3.971116  0  0  0.051653  0.102713  0  3.940367  0
C  C61  1  0.27980637  0.61346489  0.86757689  1  0  0.142147  0  3.693444  0  0  0.109858  0  3.948159  0  0  0.117161  0  3.966189  0  0  0.052609  0.105083  0  3.935476  0
C  C62  1  0.23900761  0.11399100  0.36737680  1  0  0.139441  0  3.698896  0  0  0.10745  0  3.953115  0  0  0.114663  0  3.971124  0  0  0.051618  0.102792  0  3.940379  0
C  C63  1  0.72019382  0.38653531  0.13242799  1  0  0.142404  0  3.693509  0  0  0.110091  0  3.948259  0  0  0.117397  0  3.966284  0  0  0.05269  0.105317  0  3.935555  0
C  C64  1  0.53640860  0.09795454  0.64018679  1  0  -0.168795  0  3.715386  0  0  -0.185611  0  3.959602  0  0  -0.193409  0  3.980632  0  0  -0.082762  -0.180836  0  3.945621  0
C  C65  1  0.27486375  0.40133160  0.86020847  1  0  -0.164425  0  3.712642  0  0  -0.18076  0  3.957085  0  0  -0.188554  0  3.978076  0  0  -0.081745  -0.17598  0  3.943111  0
C  C66  1  0.46358693  0.90204742  0.35982171  1  0  -0.168813  0  3.715394  0  0  -0.185641  0  3.959605  0  0  -0.193438  0  3.98063  0  0  -0.082776  -0.180864  0  3.945626  0
C  C67  1  0.72514012  0.59867064  0.13978866  1  0  -0.164406  0  3.712402  0  0  -0.180735  0  3.956855  0  0  -0.188525  0  3.977842  0  0  -0.081752  -0.175956  0  3.942886  0
C  C68  1  0.69732043  0.13245125  0.93939538  1  0  -0.073789  0  3.689446  0  0  -0.108746  0  3.932447  0  0  -0.10555  0  3.950277  0  0  -0.077732  -0.110303  0  3.920109  0
C  C69  1  0.76852774  0.36733935  0.56081715  1  0  -0.074595  0  3.690618  0  0  -0.109707  0  3.933599  0  0  -0.106527  0  3.951365  0  0  -0.078806  -0.111374  0  3.921493  0
C  C70  1  0.30268230  0.86753601  0.06061083  1  0  -0.07357  0  3.68927  0  0  -0.108483  0  3.932243  0  0  -0.105283  0  3.95007  0  0  -0.07761  -0.110047  0  3.919918  0
C  C71  1  0.23146164  0.63266197  0.43917987  1  0  -0.074733  0  3.690718  0  0  -0.109916  0  3.933691  0  0  -0.10675  0  3.951465  0  0  -0.078824  -0.111577  0  3.921593  0
C  C72  1  0.52203863  0.99347650  0.63796052  1  0  0.100107  0  3.754442  0  0  0.112622  0  3.984828  0  0  0.117045  0  4.005855  0  0  0.015572  0.109792  0  3.97052  0
C  C73  1  0.15378114  0.50581468  0.86229407  1  0  0.097561  0  3.753608  0  0  0.109294  0  3.984605  0  0  0.113799  0  4.005489  0  0  0.014372  0.1064  0  3.970399  0
C  C74  1  0.47795895  0.00652544  0.36204878  1  0  0.100177  0  3.754623  0  0  0.112686  0  3.984978  0  0  0.11711  0  4.006003  0  0  0.015623  0.10986  0  3.970664  0
C  C75  1  0.84622133  0.49418467  0.13770807  1  0  0.097554  0  3.753356  0  0  0.10929  0  3.984387  0  0  0.113794  0  4.005272  0  0  0.014414  0.106391  0  3.970177  0
C  C76  1  0.28483976  0.10500753  0.61139702  1  0  -0.165627  0  3.711827  0  0  -0.18205  0  3.956339  0  0  -0.189661  0  3.978157  0  0  -0.081582  -0.177127  0  3.941545  0
C  C77  1  0.00152260  0.39448942  0.88831006  1  0  -0.162877  0  3.712302  0  0  -0.179332  0  3.95703  0  0  -0.186931  0  3.978785  0  0  -0.080411  -0.174437  0  3.942261  0
C  C78  1  0.71516127  0.89498827  0.38859919  1  0  -0.165613  0  3.712071  0  0  -0.182066  0  3.956538  0  0  -0.18968  0  3.97835  0  0  -0.081594  -0.177142  0  3.941748  0
C  C79  1  0.99848144  0.60551203  0.11168169  1  0  -0.163021  0  3.712423  0  0  -0.17948  0  3.957181  0  0  -0.187079  0  3.978936  0  0  -0.080471  -0.174579  0  3.94241  0
C  C80  1  0.83418233  0.98448768  0.83141713  1  0  0.624362  0  3.946708  0  0  0.579326  0  4.232999  0  0  0.613216  0  4.227036  0  0  0.191023  0.556582  0  4.236457  0
C  C81  1  0.64981355  0.51515037  0.66886486  1  0  0.624158  0  3.947557  0  0  0.57932  0  4.233669  0  0  0.613177  0  4.227719  0  0  0.190275  0.556602  0  4.237104  0
C  C82  1  0.16582496  0.01549857  0.16859269  1  0  0.624424  0  3.946619  0  0  0.579384  0  4.232902  0  0  0.613271  0  4.226939  0  0  0.191019  0.556646  0  4.236361  0
C  C83  1  0.35018596  0.48485386  0.33112598  1  0  0.624416  0  3.947203  0  0  0.579629  0  4.233166  0  0  0.613484  0  4.227207  0  0  0.190418  0.556918  0  4.236597  0
C  C84  1  0.63875968  0.88516781  0.63378217  1  0  -0.160325  0  3.673457  0  0  -0.179739  0  3.922945  0  0  -0.187117  0  3.941926  0  0  -0.07771  -0.174415  0  3.909803  0
C  C85  1  0.15792847  0.61419048  0.86645815  1  0  -0.161557  0  3.671358  0  0  -0.180789  0  3.921297  0  0  -0.188186  0  3.940234  0  0  -0.077928  -0.175498  0  3.908242  0
C  C86  1  0.36123598  0.11483519  0.36622179  1  0  -0.160415  0  3.673576  0  0  -0.179837  0  3.92304  0  0  -0.187216  0  3.942019  0  0  -0.077726  -0.174519  0  3.9099  0
C  C87  1  0.84206839  0.38580789  0.13354640  1  0  -0.16164  0  3.671529  0  0  -0.180913  0  3.921487  0  0  -0.188317  0  3.94043  0  0  -0.078007  -0.175618  0  3.908418  0
C  C88  1  0.66237606  0.09040237  0.63952338  1  0  0.136701  0  3.695217  0  0  0.107561  0  3.939602  0  0  0.114142  0  3.958983  0  0  0.050005  0.103282  0  3.92658  0
C  C89  1  0.39257043  0.40896703  0.86088717  1  0  0.133346  0  3.695622  0  0  0.104342  0  3.939905  0  0  0.110966  0  3.959306  0  0  0.048933  0.099992  0  3.926794  0
C  C90  1  0.33762051  0.90960631  0.36047440  1  0  0.136729  0  3.695249  0  0  0.107606  0  3.939633  0  0  0.114201  0  3.959017  0  0  0.050052  0.103313  0  3.926616  0
C  C91  1  0.60742782  0.59103895  0.13910769  1  0  0.133389  0  3.695485  0  0  0.104372  0  3.939764  0  0  0.110995  0  3.959166  0  0  0.048957  0.100016  0  3.926661  0
C  C92  1  0.16297796  0.09999287  0.61604220  1  0  0.137023  0  3.698153  0  0  0.106643  0  3.946764  0  0  0.113329  0  3.965208  0  0  0.051283  0.1023  0  3.934074  0
C  C93  1  0.87908150  0.39991038  0.88367068  1  0  0.136096  0  3.698213  0  0  0.105103  0  3.947163  0  0  0.111873  0  3.965606  0  0  0.050599  0.100743  0  3.934495  0
C  C94  1  0.83702392  0.90000685  0.38394420  1  0  0.136852  0  3.698079  0  0  0.106505  0  3.946714  0  0  0.113191  0  3.96516  0  0  0.051264  0.102157  0  3.934033  0
C  C95  1  0.12092207  0.60009093  0.11632636  1  0  0.136205  0  3.698144  0  0  0.105159  0  3.947111  0  0  0.111916  0  3.96555  0  0  0.050603  0.1008  0  3.934452  0
C  C96  1  0.74071492  0.01437157  0.92627047  1  0  -0.059073  0  3.761408  0  0  -0.030901  0  3.988058  0  0  -0.040243  0  4.01148  0  0  -0.020178  -0.025057  0  3.972176  0
C  C97  1  0.68071571  0.48534395  0.57405148  1  0  -0.058794  0  3.762101  0  0  -0.030915  0  3.988802  0  0  -0.040155  0  4.012094  0  0  -0.019827  -0.025173  0  3.973049  0
C  C98  1  0.25928811  0.98561842  0.07373760  1  0  -0.0594  0  3.761344  0  0  -0.031239  0  3.988014  0  0  -0.04058  0  4.011434  0  0  -0.020397  -0.025417  0  3.972169  0
C  C99  1  0.31927980  0.51465553  0.42594523  1  0  -0.058933  0  3.762093  0  0  -0.030905  0  3.988593  0  0  -0.040145  0  4.011885  0  0  -0.019889  -0.025165  0  3.972845  0
C  C100  1  0.36415916  0.88468883  0.67846041  1  0  -0.156616  0  3.672505  0  0  -0.176113  0  3.919036  0  0  -0.183381  0  3.93958  0  0  -0.079986  -0.170981  0  3.904955  0
C  C101  1  0.92754720  0.61499459  0.82198914  1  0  -0.15637  0  3.674657  0  0  -0.175706  0  3.921115  0  0  -0.183068  0  3.941633  0  0  -0.080084  -0.170537  0  3.907005  0
C  C102  1  0.63583770  0.11531315  0.32154769  1  0  -0.15645  0  3.672445  0  0  -0.175964  0  3.918938  0  0  -0.183232  0  3.939472  0  0  -0.07985  -0.170847  0  3.904838  0
C  C103  1  0.07245952  0.38501296  0.17801716  1  0  -0.156565  0  3.674789  0  0  -0.175862  0  3.921277  0  0  -0.183225  0  3.941794  0  0  -0.080206  -0.170685  0  3.907152  0
C  C104  1  0.24031428  0.88787759  0.67921987  1  0  0.130623  0  3.698425  0  0  0.101614  0  3.943849  0  0  0.107944  0  3.962692  0  0  0.047463  0.097461  0  3.930805  0
C  C105  1  0.80756823  0.61215959  0.82106825  1  0  0.131896  0  3.699654  0  0  0.102462  0  3.945327  0  0  0.108806  0  3.964197  0  0  0.048357  0.098255  0  3.932279  0
C  C106  1  0.75968330  0.11212728  0.32078297  1  0  0.130475  0  3.698403  0  0  0.101473  0  3.94385  0  0  0.107808  0  3.962682  0  0  0.047346  0.097319  0  3.930804  0
C  C107  1  0.19244044  0.38784261  0.17893075  1  0  0.132006  0  3.699819  0  0  0.102536  0  3.945489  0  0  0.108879  0  3.964358  0  0  0.048417  0.098339  0  3.93243  0
C  C108  1  0.56244674  0.07097692  0.10197170  1  0  -0.050205  0  3.72516  0  0  -0.077173  0  3.971658  0  0  -0.074335  0  3.991045  0  0  -0.083923  -0.078831  0  3.958662  0
C  C109  1  0.73494395  0.42904648  0.39813110  1  0  -0.051563  0  3.725874  0  0  -0.077926  0  3.97266  0  0  -0.075101  0  3.992026  0  0  -0.084685  -0.079466  0  3.959606  0
C  C110  1  0.43755896  0.92901961  0.89803268  1  0  -0.050196  0  3.724937  0  0  -0.077183  0  3.971452  0  0  -0.074343  0  3.990835  0  0  -0.083914  -0.078852  0  3.958437  0
C  C111  1  0.26504992  0.57095026  0.60186413  1  0  -0.051359  0  3.72596  0  0  -0.077688  0  3.972715  0  0  -0.074865  0  3.992072  0  0  -0.084595  -0.079219  0  3.959645  0
C  C112  1  0.60994214  0.16066702  0.02783658  1  0  -0.089111  0  3.779133  0  0  -0.061449  0  4.01136  0  0  -0.072285  0  4.035747  0  0  -0.02687  -0.054658  0  3.995139  0
C  C113  1  0.79789536  0.33932237  0.47229852  1  0  -0.086789  0  3.778743  0  0  -0.059115  0  4.010485  0  0  -0.069927  0  4.034823  0  0  -0.024945  -0.052403  0  3.994275  0
C  C114  1  0.39005939  0.83932487  0.97216904  1  0  -0.089195  0  3.779028  0  0  -0.061537  0  4.011251  0  0  -0.072375  0  4.03564  0  0  -0.026824  -0.054696  0  3.994972  0
C  C115  1  0.20210086  0.66068180  0.52769469  1  0  -0.086769  0  3.778798  0  0  -0.059113  0  4.010614  0  0  -0.069911  0  4.034927  0  0  -0.024981  -0.052405  0  3.994412  0
C  C116  1  0.60391868  0.95372538  0.08844840  1  0  -0.089744  0  3.79718  0  0  -0.100123  0  4.052265  0  0  -0.10549  0  4.074831  0  0  -0.098393  -0.096759  0  4.037063  0
C  C117  1  0.64559234  0.54626778  0.41176306  1  0  -0.087279  0  3.796221  0  0  -0.097908  0  4.051265  0  0  -0.103304  0  4.07383  0  0  -0.09779  -0.094562  0  4.036068  0
C  C118  1  0.39607153  0.04627292  0.91155906  1  0  -0.089735  0  3.797349  0  0  -0.100093  0  4.052428  0  0  -0.105459  0  4.074997  0  0  -0.098341  -0.096716  0  4.037211  0
C  C119  1  0.35439598  0.45373447  0.58823352  1  0  -0.087343  0  3.796364  0  0  -0.097988  0  4.051434  0  0  -0.103381  0  4.073998  0  0  -0.097749  -0.094631  0  4.036212  0
C  C120  1  0.69406034  0.92476632  0.00139798  1  0  -0.066052  0  3.742503  0  0  -0.092942  0  3.992777  0  0  -0.090752  0  4.011809  0  0  -0.083884  -0.094062  0  3.979921  0
C  C121  1  0.61973444  0.57506962  0.49888798  1  0  -0.066557  0  3.74216  0  0  -0.093553  0  3.992439  0  0  -0.091427  0  4.011483  0  0  -0.084834  -0.094539  0  3.979336  0
C  C122  1  0.30593299  0.07522922  0.99860893  1  0  -0.065869  0  3.742484  0  0  -0.092765  0  3.992707  0  0  -0.090578  0  4.01174  0  0  -0.083767  -0.09387  0  3.97984  0
C  C123  1  0.38025888  0.42493357  0.50110778  1  0  -0.06665  0  3.74228  0  0  -0.093689  0  3.992523  0  0  -0.091564  0  4.011561  0  0  -0.084856  -0.09467  0  3.979414  0
N  N124  1  0.14115137  0.99307649  0.64824951  1  0  -0.305225  0  3.257565  0  0  -0.226837  0  3.51868  0  0  -0.244995  0  3.535053  0  0  -0.316536  -0.214096  0  3.507064  0
N  N125  1  0.78251398  0.50705419  0.85174605  1  0  -0.304256  0  3.255813  0  0  -0.22558  0  3.51702  0  0  -0.243743  0  3.533378  0  0  -0.316257  -0.212792  0  3.50544  0
N  N126  1  0.85885206  0.00692672  0.35174560  1  0  -0.305071  0  3.25737  0  0  -0.226631  0  3.518403  0  0  -0.24479  0  3.534776  0  0  -0.316459  -0.213892  0  3.506791  0
N  N127  1  0.21749153  0.49294897  0.14825079  1  0  -0.304245  0  3.255854  0  0  -0.225476  0  3.516997  0  0  -0.243638  0  3.533357  0  0  -0.316232  -0.212688  0  3.505424  0
N  N128  1  0.77362928  0.98595100  0.63587700  1  0  -0.312767  0  3.263639  0  0  -0.234485  0  3.525444  0  0  -0.253113  0  3.54244  0  0  -0.315175  -0.221488  0  3.513443  0
N  N129  1  0.39563317  0.51350735  0.86440690  1  0  -0.314573  0  3.262533  0  0  -0.236299  0  3.524323  0  0  -0.254982  0  3.541344  0  0  -0.315973  -0.223175  0  3.512233  0
N  N130  1  0.22637284  0.01405578  0.36412298  1  0  -0.312732  0  3.263817  0  0  -0.234502  0  3.525673  0  0  -0.253129  0  3.542663  0  0  -0.315158  -0.221508  0  3.51368  0
N  N131  1  0.60436667  0.48649195  0.13559696  1  0  -0.314838  0  3.262749  0  0  -0.236511  0  3.524495  0  0  -0.255195  0  3.541513  0  0  -0.316041  -0.223387  0  3.512403  0
O  O132  1  0.61460851  0.36368373  0.97260485  1  0  -0.65988  0  2.149812  0  0  -0.600175  0  2.443676  0  0  -0.626882  0  2.427083  0  0  -0.322343  -0.582175  0  2.454862  0
O  O133  1  0.95049067  0.13637573  0.52753382  1  0  -0.660408  0  2.149065  0  0  -0.600524  0  2.442721  0  0  -0.627228  0  2.426142  0  0  -0.322315  -0.58246  0  2.453872  0
O  O134  1  0.38540468  0.63630666  0.02738618  1  0  -0.659818  0  2.149909  0  0  -0.600228  0  2.443891  0  0  -0.626936  0  2.427297  0  0  -0.32232  -0.582228  0  2.45509  0
O  O135  1  0.04950566  0.86362658  0.47246039  1  0  -0.660509  0  2.149388  0  0  -0.600593  0  2.443079  0  0  -0.627297  0  2.426497  0  0  -0.322325  -0.582526  0  2.454231  0
O  O136  1  0.49232353  0.30715150  0.12500193  1  0  -0.63486  0  2.080278  0  0  -0.566215  0  2.352325  0  0  -0.593783  0  2.337961  0  0  -0.310416  -0.547337  0  2.361703  0
O  O137  1  0.92421194  0.19291330  0.37508563  1  0  -0.635297  0  2.079567  0  0  -0.566848  0  2.351721  0  0  -0.594414  0  2.337275  0  0  -0.310438  -0.547907  0  2.36091  0
O  O138  1  0.50769118  0.69284059  0.87499511  1  0  -0.635043  0  2.080184  0  0  -0.566338  0  2.352115  0  0  -0.593911  0  2.337746  0  0  -0.310467  -0.547455  0  2.361495  0
O  O139  1  0.07578562  0.80709269  0.62490896  1  0  -0.635493  0  2.079362  0  0  -0.566995  0  2.3515  0  0  -0.594562  0  2.337057  0  0  -0.310493  -0.548046  0  2.360687  0
O  O140  1  0.84068528  0.07616628  0.75627795  1  0  -0.637018  0  2.004937  0  0  -0.575179  0  2.254954  0  0  -0.604588  0  2.244007  0  0  -0.329554  -0.555512  0  2.262291  0
O  O141  1  0.67343265  0.42348515  0.74390525  1  0  -0.636881  0  2.006167  0  0  -0.575144  0  2.256192  0  0  -0.60454  0  2.245264  0  0  -0.328824  -0.55542  0  2.263479  0
O  O142  1  0.15931752  0.92382093  0.24373011  1  0  -0.637025  0  2.004987  0  0  -0.575174  0  2.254985  0  0  -0.604582  0  2.244038  0  0  -0.329534  -0.55551  0  2.262328  0
O  O143  1  0.32656895  0.57652265  0.25609086  1  0  -0.636951  0  2.006016  0  0  -0.575268  0  2.256031  0  0  -0.604661  0  2.2451  0  0  -0.328843  -0.55554  0  2.263322  0
O  O144  1  0.90016810  0.87253069  0.82789858  1  0  -0.640073  0  1.946282  0  0  -0.59112  0  2.178237  0  0  -0.615416  0  2.168108  0  0  -0.330837  -0.574481  0  2.184766  0
O  O145  1  0.60019772  0.62713888  0.67238120  1  0  -0.640169  0  1.945385  0  0  -0.591421  0  2.177629  0  0  -0.615771  0  2.1676  0  0  -0.330658  -0.574714  0  2.184039  0
O  O146  1  0.09982970  0.12745739  0.17211208  1  0  -0.640091  0  1.9461  0  0  -0.59114  0  2.178066  0  0  -0.615436  0  2.167934  0  0  -0.330808  -0.574495  0  2.184589  0
O  O147  1  0.39979811  0.37286914  0.32760538  1  0  -0.640228  0  1.945229  0  0  -0.591535  0  2.177495  0  0  -0.615893  0  2.167487  0  0  -0.330733  -0.574827  0  2.183912  0
