# generated using pymatgen
data_Cd2H10C16O11
_symmetry_space_group_name_H-M   'P 1'
_cell_length_a   7.46704974
_cell_length_b   10.89749203
_cell_length_c   11.11994479
_cell_angle_alpha   89.98615261
_cell_angle_beta   94.79160466
_cell_angle_gamma   108.10680095
_symmetry_Int_Tables_number   1
_chemical_formula_structural   Cd2H10C16O11
_chemical_formula_sum   'Cd4 H20 C32 O22'
_cell_volume   856.72225973
_cell_formula_units_Z   2
loop_
 _symmetry_equiv_pos_site_id
 _symmetry_equiv_pos_as_xyz
  1  'x, y, z'
loop_
 _atom_site_type_symbol
 _atom_site_label
 _atom_site_symmetry_multiplicity
 _atom_site_fract_x
 _atom_site_fract_y
 _atom_site_fract_z
 _atom_site_occupancy
 _atom_site_hle17_bader_spin_density
 _atom_site_hle17_ddec_charge
 _atom_site_hle17_ddec_spin_density
 _atom_site_hle17_ddec_sum_bond_order
 _atom_site_hle17_magmom
 _atom_site_hse06_10hf_bader_charge
 _atom_site_hse06_10hf_bader_spin_density
 _atom_site_hse06_10hf_ddec_charge
 _atom_site_hse06_10hf_ddec_spin_density
 _atom_site_hse06_10hf_ddec_sum_bond_order
 _atom_site_hse06_10hf_magmom
 _atom_site_hse06_bader_spin_density
 _atom_site_hse06_ddec_charge
 _atom_site_hse06_ddec_spin_density
 _atom_site_hse06_ddec_sum_bond_order
 _atom_site_hse06_magmom
 _atom_site_pbe_bader_spin_density
 _atom_site_pbe_cm5_charge
 _atom_site_pbe_ddec_charge
 _atom_site_pbe_ddec_spin_density
 _atom_site_pbe_ddec_sum_bond_order
 _atom_site_pbe_magmom
Cd  Cd0  1  0.51411827  0.80304439  0.29315820  1  0  1.30951  0  1.498598  0  1.397077  0  1.137836  0  1.942677  0  0  1.197468  0  1.88051  0  0  0.793347  1.094508  0  1.985799  0
Cd  Cd1  1  0.48588204  0.19695633  0.70684273  1  0  1.309501  0  1.498598  0  1.397076  0  1.137819  0  1.94268  0  0  1.197453  0  1.880507  0  0  0.793336  1.09449  0  1.985802  0
Cd  Cd2  1  0.91174288  0.94607551  0.65070209  1  0  1.252257  0  1.549507  0  1.363831  0  1.067246  0  1.990853  0  0  1.130769  0  1.930107  0  0  0.778138  1.021373  0  2.032661  0
Cd  Cd3  1  0.08825700  0.05392426  0.34929701  1  0  1.252311  0  1.549445  0  1.363835  0  1.067311  0  1.990781  0  0  1.130833  0  1.930035  0  0  0.778161  1.021436  0  2.032591  0
H  H4  1  0.68666817  0.06516004  0.20853266  1  0  0.428127  0  0.86753  0  0.66799  0  0.400519  0  0.924171  0  0  0.410506  0  0.909666  0  0  0.290398  0.39341  0  0.934495  0
H  H5  1  0.31333349  0.93484069  0.79146744  1  0  0.428162  0  0.867484  0  0.667995  0  0.400549  0  0.924131  0  0  0.410537  0  0.909626  0  0  0.290412  0.39344  0  0.934455  0
H  H6  1  0.48330269  0.05781294  0.24400300  1  0  0.434033  0  0.85647  0  0.66328  0  0.403031  0  0.91911  0  0  0.413188  0  0.90431  0  0  0.295983  0.395761  0  0.929707  0
H  H7  1  0.51670076  0.94218875  0.75599721  1  0  0.434044  0  0.856448  0  0.663306  0  0.403047  0  0.919082  0  0  0.413203  0  0.904281  0  0  0.296001  0.395776  0  0.929679  0
H  H8  1  0.04768944  0.74245115  0.76216251  1  0  0.406651  0  0.869217  0  0.636085  0  0.377533  0  0.947828  0  0  0.384392  0  0.941783  0  0  0.303493  0.37277  0  0.952051  0
H  H9  1  0.95231267  0.25755055  0.23783673  1  0  0.40666  0  0.869268  0  0.636072  0  0.377547  0  0.947874  0  0  0.384407  0  0.941829  0  0  0.303528  0.372784  0  0.952098  0
H  H10  1  0.02134650  0.82256434  0.87212543  1  0  0.431891  0  0.828999  0  0.646743  0  0.406196  0  0.895866  0  0  0.414751  0  0.88663  0  0  0.31603  0.40002  0  0.902591  0
H  H11  1  0.97865516  0.17743639  0.12787377  1  0  0.431888  0  0.82899  0  0.646731  0  0.406194  0  0.895857  0  0  0.41475  0  0.886621  0  0  0.31604  0.400018  0  0.902583  0
H  H12  1  0.35248690  0.35005858  0.18469579  1  0  0.101364  0  0.985702  0  0.099717  0  0.107726  0  1.055273  0  0  0.110945  0  1.053391  0  0  0.098739  0.105381  0  1.056716  0
H  H13  1  0.64751163  0.64994119  0.81530322  1  0  0.101389  0  0.985642  0  0.099687  0  0.107758  0  1.055203  0  0  0.110977  0  1.053322  0  0  0.098772  0.105414  0  1.056653  0
H  H14  1  0.23521001  0.15919513  0.04487485  1  0  0.121165  0  0.929089  0  0.102563  0  0.133016  0  0.981505  0  0  0.136476  0  0.979434  0  0  0.113735  0.130488  0  0.983194  0
H  H15  1  0.76479301  0.84080561  0.95512353  1  0  0.121155  0  0.929083  0  0.102631  0  0.133005  0  0.981502  0  0  0.136466  0  0.979429  0  0  0.113738  0.130479  0  0.98319  0
H  H16  1  0.19961589  0.58761088  0.91222907  1  0  0.119822  0  0.948997  0  0.11808  0  0.128833  0  1.011233  0  0  0.132883  0  1.008745  0  0  0.107367  0.125718  0  1.013509  0
H  H17  1  0.80038443  0.41238985  0.08777096  1  0  0.119846  0  0.948985  0  0.118091  0  0.128857  0  1.011219  0  0  0.132908  0  1.008729  0  0  0.107372  0.125741  0  1.013495  0
H  H18  1  0.40110693  0.53717453  0.70742081  1  0  0.143512  0  0.974699  0  0.170378  0  0.150764  0  1.03575  0  0  0.155673  0  1.032415  0  0  0.110667  0.147124  0  1.038431  0
H  H19  1  0.59888936  0.46282328  0.29258166  1  0  0.143521  0  0.974649  0  0.170524  0  0.150763  0  1.035698  0  0  0.155672  0  1.032362  0  0  0.11069  0.147124  0  1.038373  0
H  H20  1  0.80562829  0.49055070  0.65076635  1  0  0.1365  0  0.967518  0  0.171634  0  0.143472  0  1.029446  0  0  0.147635  0  1.027234  0  0  0.108957  0.140444  0  1.031251  0
H  H21  1  0.19437204  0.50945005  0.34923097  1  0  0.13656  0  0.967453  0  0.17177  0  0.143461  0  1.029468  0  0  0.147623  0  1.027256  0  0  0.108962  0.140433  0  1.031272  0
H  H22  1  0.87665600  0.68818464  0.52684522  1  0  0.115071  0  0.956053  0  0.129773  0  0.124119  0  1.015595  0  0  0.127575  0  1.013473  0  0  0.107003  0.121476  0  1.017427  0
H  H23  1  0.12334389  0.31181513  0.47315298  1  0  0.1151  0  0.956039  0  0.129805  0  0.124136  0  1.015592  0  0  0.12759  0  1.013475  0  0  0.107028  0.121511  0  1.017401  0
C  C24  1  0.35635137  0.59763735  0.13888216  1  0  0.61775  0  3.944965  0  1.566885  0  0.568404  0  4.238496  0  0  0.602023  0  4.234745  0  0  0.187857  0.545661  0  4.239849  0
C  C25  1  0.64364851  0.40236242  0.86111694  1  0  0.617766  0  3.944999  0  1.566876  0  0.568443  0  4.238508  0  0  0.602064  0  4.234758  0  0  0.187886  0.545701  0  4.239859  0
C  C26  1  0.28276430  0.48087433  0.05659199  1  0  -0.029582  0  3.76522  0  0.045974  0  -0.006883  0  4.000307  0  0  -0.012986  0  4.023558  0  0  -0.016896  -0.002927  0  3.984606  0
C  C27  1  0.71723872  0.51912643  0.94340549  1  0  -0.029588  0  3.76523  0  0.045952  0  -0.006917  0  4.000327  0  0  -0.01302  0  4.023578  0  0  -0.016904  -0.002961  0  3.984627  0
C  C28  1  0.29214591  0.36036925  0.09446200  1  0  -0.095407  0  3.759002  0  -0.070889  0  -0.126666  0  4.020045  0  0  -0.127323  0  4.03959  0  0  -0.097406  -0.126084  0  4.006826  0
C  C29  1  0.70785622  0.63962956  0.90553632  1  0  -0.095408  0  3.759023  0  -0.070891  0  -0.126663  0  4.020071  0  0  -0.127322  0  4.039617  0  0  -0.097435  -0.126085  0  4.006854  0
C  C30  1  0.22436015  0.25276583  0.01636621  1  0  -0.099998  0  3.769802  0  -0.109963  0  -0.115979  0  4.017166  0  0  -0.116229  0  4.034352  0  0  -0.089786  -0.115675  0  4.005527  0
C  C31  1  0.77563795  0.74723298  0.98363278  1  0  -0.099956  0  3.769763  0  -0.110007  0  -0.115918  0  4.017113  0  0  -0.116168  0  4.0343  0  0  -0.089777  -0.115614  0  4.005473  0
C  C32  1  0.14784083  0.26420737  0.89918590  1  0  -0.12486  0  3.716349  0  0.013505  0  -0.113882  0  3.962579  0  0  -0.119541  0  3.978827  0  0  -0.012676  -0.1102  0  3.95179  0
C  C33  1  0.85215815  0.73579336  0.10081315  1  0  -0.124926  0  3.716275  0  0.01379  0  -0.113972  0  3.962595  0  0  -0.119628  0  3.97884  0  0  -0.012715  -0.110286  0  3.951808  0
C  C34  1  0.07285486  0.14785553  0.81665789  1  0  0.685408  0  3.873856  0  1.603792  0  0.629498  0  4.17028  0  0  0.66563  0  4.16255  0  0  0.209873  0.604871  0  4.174426  0
C  C35  1  0.92714322  0.85214616  0.18334201  1  0  0.685388  0  3.873707  0  1.603503  0  0.629428  0  4.170246  0  0  0.665557  0  4.162519  0  0  0.209839  0.604794  0  4.174403  0
C  C36  1  0.14096382  0.38579955  0.86147286  1  0  0.270844  0  3.745802  0  0.466736  0  0.251741  0  4.012764  0  0  0.261881  0  4.028012  0  0  0.094246  0.24457  0  4.002622  0
C  C37  1  0.85903516  0.61420118  0.13852619  1  0  0.270916  0  3.745759  0  0.466653  0  0.251784  0  4.01276  0  0  0.261926  0  4.028006  0  0  0.094224  0.244613  0  4.002618  0
C  C38  1  0.20632093  0.49316873  0.93973958  1  0  -0.175966  0  3.713011  0  0.019289  0  -0.207491  0  3.967006  0  0  -0.211363  0  3.987255  0  0  -0.090881  -0.204848  0  3.953761  0
C  C39  1  0.79367805  0.50683201  0.06025947  1  0  -0.176078  0  3.712998  0  0.019417  0  -0.207589  0  3.967012  0  0  -0.211459  0  3.987256  0  0  -0.090921  -0.204945  0  3.953767  0
C  C40  1  0.10090043  0.50504802  0.68610759  1  0  0.284456  0  3.786781  0  0.319583  0  0.273545  0  4.053085  0  0  0.284544  0  4.068183  0  0  0.088953  0.266062  0  4.042676  0
C  C41  1  0.89909810  0.49495173  0.31389322  1  0  0.284578  0  3.786845  0  0.319694  0  0.273659  0  4.053084  0  0  0.28466  0  4.068178  0  0  0.088977  0.266175  0  4.042677  0
C  C42  1  0.28842749  0.57323835  0.66859993  1  0  -0.188444  0  3.662947  0  0.060348  0  -0.217482  0  3.908863  0  0  -0.222136  0  3.925479  0  0  -0.090664  -0.214239  0  3.897744  0
C  C43  1  0.71157280  0.42676235  0.33140369  1  0  -0.188517  0  3.662998  0  0.060074  0  -0.217506  0  3.908859  0  0  -0.222162  0  3.925475  0  0  -0.09069  -0.214251  0  3.897716  0
C  C44  1  0.32824514  0.68481423  0.59994179  1  0  -0.029832  0  3.710598  0  -0.040174  0  -0.012397  0  3.944987  0  0  -0.014158  0  3.964129  0  0  -0.004275  -0.011313  0  3.932031  0
C  C45  1  0.67175338  0.31518551  0.40006083  1  0  -0.029733  0  3.710487  0  -0.04015  0  -0.012316  0  3.944873  0  0  -0.014071  0  3.964018  0  0  -0.004227  -0.011233  0  3.93192  0
C  C46  1  0.53284688  0.76216866  0.59107310  1  0  0.677369  0  3.867367  0  1.638847  0  0.620897  0  4.164635  0  0  0.65583  0  4.157257  0  0  0.220102  0.597059  0  4.168883  0
C  C47  1  0.46715568  0.23783109  0.40892794  1  0  0.677452  0  3.867395  0  1.638808  0  0.620976  0  4.164671  0  0  0.655891  0  4.15732  0  0  0.220053  0.597135  0  4.168924  0
C  C48  1  0.95105702  0.54526746  0.63607273  1  0  -0.185515  0  3.741045  0  -0.002519  0  -0.209323  0  3.997349  0  0  -0.214246  0  4.015832  0  0  -0.100169  -0.206409  0  3.985086  0
C  C49  1  0.04894554  0.45473229  0.36392921  1  0  -0.185665  0  3.741136  0  -0.002672  0  -0.20942  0  3.997449  0  0  -0.21434  0  4.015931  0  0  -0.100209  -0.206509  0  3.985191  0
C  C50  1  0.99165473  0.65587304  0.56782536  1  0  -0.082408  0  3.778199  0  -0.165745  0  -0.098655  0  4.025314  0  0  -0.098118  0  4.04431  0  0  -0.0902  -0.098763  0  4.012586  0
C  C51  1  0.00834471  0.34412576  0.43217370  1  0  -0.082358  0  3.778252  0  -0.165803  0  -0.098588  0  4.025363  0  0  -0.09805  0  4.044354  0  0  -0.090192  -0.098711  0  4.012629  0
C  C52  1  0.17914890  0.72711090  0.54973231  1  0  -0.11008  0  3.760628  0  0.025669  0  -0.100391  0  4.001722  0  0  -0.108002  0  4.022694  0  0  -0.025336  -0.095357  0  3.987558  0
C  C53  1  0.82085097  0.27288886  0.45026858  1  0  -0.110151  0  3.760616  0  0.025681  0  -0.10047  0  4.001693  0  0  -0.108082  0  4.022662  0  0  -0.025351  -0.09544  0  3.987537  0
C  C54  1  0.20861309  0.84862765  0.48207093  1  0  0.697475  0  3.856745  0  1.59921  0  0.639793  0  4.154379  0  0  0.677363  0  4.144472  0  0  0.218635  0.613969  0  4.160517  0
C  C55  1  0.79138323  0.15137020  0.51792705  1  0  0.697423  0  3.856821  0  1.599514  0  0.639791  0  4.154362  0  0  0.67736  0  4.144453  0  0  0.218566  0.613969  0  4.160502  0
O  O56  1  0.43387698  0.58464082  0.24430612  1  0  -0.667593  0  1.994361  0  -1.189523  0  -0.601882  0  2.238956  0  0  -0.632599  0  2.228955  0  0  -0.329852  -0.57998  0  2.244801  0
O  O57  1  0.56612156  0.41535895  0.75569289  1  0  -0.667588  0  1.994365  0  -1.189525  0  -0.601888  0  2.238963  0  0  -0.632601  0  2.228952  0  0  -0.329863  -0.579983  0  2.244807  0
O  O58  1  0.34239848  0.70529871  0.10436548  1  0  -0.616123  0  1.908016  0  -1.165535  0  -0.560856  0  2.13283  0  0  -0.58791  0  2.123916  0  0  -0.323899  -0.541761  0  2.138311  0
O  O59  1  0.65760317  0.29470200  0.89563642  1  0  -0.616089  0  1.908044  0  -1.165539  0  -0.560829  0  2.132842  0  0  -0.587885  0  2.123929  0  0  -0.323869  -0.541733  0  2.13832  0
O  O60  1  0.55865963  0.00543023  0.21601842  1  0  -0.834851  0  1.846274  0  -1.288803  0  -0.770734  0  2.024749  0  0  -0.793154  0  1.990905  0  0  -0.588463  -0.754846  0  2.048585  0
O  O61  1  0.44134203  0.99457049  0.78398168  1  0  -0.834876  0  1.846228  0  -1.288833  0  -0.770751  0  2.024688  0  0  -0.793173  0  1.990842  0  0  -0.588473  -0.754863  0  2.048528  0
O  O62  1  0.92466804  0.06033257  0.83921329  1  0  -0.596204  0  1.896541  0  -1.166858  0  -0.534225  0  2.116335  0  0  -0.563297  0  2.10713  0  0  -0.307846  -0.513695  0  2.121869  0
O  O63  1  0.07533003  0.93966912  0.16078662  1  0  -0.596172  0  1.896518  0  -1.166861  0  -0.534156  0  2.116312  0  0  -0.56323  0  2.107114  0  0  -0.307838  -0.513624  0  2.121847  0
O  O64  1  0.16154563  0.14016899  0.72349502  1  0  -0.688334  0  2.037677  0  -1.185289  0  -0.608342  0  2.302109  0  0  -0.643695  0  2.289906  0  0  -0.329502  -0.583002  0  2.30922  0
O  O65  1  0.83845556  0.85983366  0.27650597  1  0  -0.68833  0  2.037615  0  -1.185289  0  -0.608315  0  2.302062  0  0  -0.643668  0  2.289864  0  0  -0.329463  -0.582973  0  2.309177  0
O  O66  1  0.05430639  0.39059832  0.74746798  1  0  -0.286443  0  2.346411  0  -1.129789  0  -0.216016  0  2.572382  0  0  -0.234338  0  2.575299  0  0  -0.145133  -0.202891  0  2.569695  0
O  O67  1  0.94569034  0.60940046  0.25253362  1  0  -0.28653  0  2.346403  0  -1.12975  0  -0.216075  0  2.572372  0  0  -0.2344  0  2.575288  0  0  -0.145119  -0.20295  0  2.569683  0
O  O68  1  0.61363770  0.76458256  0.49567116  1  0  -0.636144  0  2.004016  0  -1.204644  0  -0.574169  0  2.255961  0  0  -0.603008  0  2.242874  0  0  -0.309585  -0.553694  0  2.264274  0
O  O69  1  0.38636262  0.23541817  0.50432886  1  0  -0.636172  0  2.004053  0  -1.204622  0  -0.5742  0  2.255999  0  0  -0.603032  0  2.242923  0  0  -0.309565  -0.553727  0  2.264318  0
O  O70  1  0.61928578  0.82237832  0.68923355  1  0  -0.651768  0  2.02302  0  -1.17625  0  -0.571165  0  2.262951  0  0  -0.603155  0  2.251363  0  0  -0.307648  -0.54867  0  2.270174  0
O  O71  1  0.38071949  0.17761854  0.31076763  1  0  -0.651845  0  2.023029  0  -1.176207  0  -0.571235  0  2.262954  0  0  -0.603225  0  2.251388  0  0  -0.307624  -0.548741  0  2.27018  0
O  O72  1  0.31946604  0.88006951  0.39988734  1  0  -0.642689  0  2.036379  0  -1.183617  0  -0.577921  0  2.29861  0  0  -0.607829  0  2.285035  0  0  -0.312891  -0.556737  0  2.307364  0
O  O73  1  0.68053427  0.11993121  0.60011358  1  0  -0.642667  0  2.036406  0  -1.183923  0  -0.577911  0  2.298606  0  0  -0.607818  0  2.285032  0  0  -0.312839  -0.556729  0  2.307359  0
O  O74  1  0.10896698  0.92083059  0.50909139  1  0  -0.687501  0  2.127464  0  -1.185234  0  -0.601174  0  2.404172  0  0  -0.636704  0  2.389951  0  0  -0.327518  -0.575995  0  2.413057  0
O  O75  1  0.89102533  0.07916436  0.49090634  1  0  -0.687451  0  2.127357  0  -1.185199  0  -0.60118  0  2.404124  0  0  -0.636721  0  2.389931  0  0  -0.327522  -0.575983  0  2.412966  0
O  O76  1  0.07465172  0.83100790  0.79362560  1  0  -0.803509  0  1.933998  0  -1.262198  0  -0.738571  0  2.126068  0  0  -0.759768  0  2.104034  0  0  -0.542915  -0.723623  0  2.141483  0
O  O77  1  0.92534904  0.16899381  0.20637355  1  0  -0.803517  0  1.934028  0  -1.262174  0  -0.738595  0  2.12609  0  0  -0.759792  0  2.104055  0  0  -0.542972  -0.72365  0  2.141506  0
