# generated using pymatgen
data_Rb3H6C6N7O6
_symmetry_space_group_name_H-M   'P 1'
_cell_length_a   7.38375057
_cell_length_b   10.51022262
_cell_length_c   17.43600000
_cell_angle_alpha   90.00000000
_cell_angle_beta   90.00000000
_cell_angle_gamma   90.00000000
_symmetry_Int_Tables_number   1
_chemical_formula_structural   Rb3H6C6N7O6
_chemical_formula_sum   'Rb12 H24 C24 N28 O24'
_cell_volume   1353.11837765
_cell_formula_units_Z   4
loop_
 _symmetry_equiv_pos_site_id
 _symmetry_equiv_pos_as_xyz
  1  'x, y, z'
loop_
 _atom_site_type_symbol
 _atom_site_label
 _atom_site_symmetry_multiplicity
 _atom_site_fract_x
 _atom_site_fract_y
 _atom_site_fract_z
 _atom_site_occupancy
 _atom_site_hle17_bader_spin_density
 _atom_site_hle17_ddec_charge
 _atom_site_hle17_ddec_spin_density
 _atom_site_hle17_ddec_sum_bond_order
 _atom_site_hle17_magmom
 _atom_site_hse06_10hf_bader_spin_density
 _atom_site_hse06_10hf_ddec_charge
 _atom_site_hse06_10hf_ddec_spin_density
 _atom_site_hse06_10hf_ddec_sum_bond_order
 _atom_site_hse06_10hf_magmom
 _atom_site_hse06_bader_spin_density
 _atom_site_hse06_ddec_charge
 _atom_site_hse06_ddec_spin_density
 _atom_site_hse06_ddec_sum_bond_order
 _atom_site_hse06_magmom
 _atom_site_pbe_bader_spin_density
 _atom_site_pbe_cm5_charge
 _atom_site_pbe_ddec_charge
 _atom_site_pbe_ddec_spin_density
 _atom_site_pbe_ddec_sum_bond_order
 _atom_site_pbe_magmom
Rb  Rb0  1  0.75874042  0.87979583  0.08104554  1  0  0.933226  0  0.589165  0  0  0.882101  0  0.82344  0  0  0.89661  0  0.800817  0  0  0.914079  0.871438  0  0.839672  0
Rb  Rb1  1  0.74126285  0.12020392  0.58104496  1  0  0.933217  0  0.589171  0  0  0.882087  0  0.823451  0  0  0.896596  0  0.800828  0  0  0.914056  0.871424  0  0.839682  0
Rb  Rb2  1  0.24126221  0.12020297  0.91895446  1  0  0.933224  0  0.589152  0  0  0.882102  0  0.82342  0  0  0.896612  0  0.800798  0  0  0.914079  0.871438  0  0.83965  0
Rb  Rb3  1  0.25873572  0.87979583  0.41895446  1  0  0.933224  0  0.589153  0  0  0.882104  0  0.823424  0  0  0.896614  0  0.800802  0  0  0.914078  0.871443  0  0.839655  0
Rb  Rb4  1  0.81013706  0.72275063  0.33568078  1  0  0.958608  0  0.494276  0  0  0.913043  0  0.70238  0  0  0.92824  0  0.679729  0  0  0.819523  0.901093  0  0.719899  0
Rb  Rb5  1  0.68986350  0.27724817  0.83568135  1  0  0.958603  0  0.494279  0  0  0.913035  0  0.702379  0  0  0.928233  0  0.679727  0  0  0.819513  0.90108  0  0.719893  0
Rb  Rb6  1  0.18986286  0.27724912  0.66431865  1  0  0.958605  0  0.494286  0  0  0.913039  0  0.702385  0  0  0.928235  0  0.679734  0  0  0.819514  0.901088  0  0.719903  0
Rb  Rb7  1  0.31013778  0.72275063  0.16431865  1  0  0.958601  0  0.494288  0  0  0.913042  0  0.702368  0  0  0.92824  0  0.679716  0  0  0.819518  0.901091  0  0.719884  0
Rb  Rb8  1  0.74112336  0.48335989  0.50948841  1  0  0.918595  0  0.576513  0  0  0.856612  0  0.815728  0  0  0.872795  0  0.791975  0  0  0.856535  0.844661  0  0.832621  0
Rb  Rb9  1  0.75887721  0.51664082  0.00948899  1  0  0.918596  0  0.576517  0  0  0.856613  0  0.815729  0  0  0.872798  0  0.791976  0  0  0.856545  0.844657  0  0.832611  0
Rb  Rb10  1  0.25887657  0.51664082  0.49051101  1  0  0.918594  0  0.576513  0  0  0.856614  0  0.815726  0  0  0.872796  0  0.791973  0  0  0.856548  0.844664  0  0.832613  0
Rb  Rb11  1  0.24112407  0.48335893  0.99051159  1  0  0.918596  0  0.576503  0  0  0.856614  0  0.815713  0  0  0.872799  0  0.791959  0  0  0.856544  0.844642  0  0.832621  0
H  H12  1  0.65476210  0.56459508  0.19367171  1  0  0.381432  0  0.946965  0  0  0.343542  0  1.025557  0  0  0.354595  0  1.009461  0  0  0.2764  0.33569  0  1.036996  0
H  H13  1  0.84523711  0.43540467  0.69367229  1  0  0.381428  0  0.946971  0  0  0.343536  0  1.025568  0  0  0.354589  0  1.009473  0  0  0.276401  0.335683  0  1.037008  0
H  H14  1  0.34523783  0.43540467  0.80632829  1  0  0.381436  0  0.946959  0  0  0.343549  0  1.025543  0  0  0.354603  0  1.009448  0  0  0.276402  0.335698  0  1.036982  0
H  H15  1  0.15476146  0.56459508  0.30632771  1  0  0.381421  0  0.946981  0  0  0.34353  0  1.025576  0  0  0.354584  0  1.009479  0  0  0.276394  0.33568  0  1.037013  0
H  H16  1  0.85110947  0.60203482  0.16742659  1  0  0.404847  0  0.904509  0  0  0.3802  0  0.960087  0  0  0.390093  0  0.945515  0  0  0.289493  0.372938  0  0.970858  0
H  H17  1  0.64888568  0.39796588  0.66742774  1  0  0.404858  0  0.904472  0  0  0.380211  0  0.960049  0  0  0.390104  0  0.945477  0  0  0.289498  0.37295  0  0.970818  0
H  H18  1  0.14888910  0.39796493  0.83257284  1  0  0.404879  0  0.904451  0  0  0.380231  0  0.960031  0  0  0.390125  0  0.94546  0  0  0.289512  0.372968  0  0.970803  0
H  H19  1  0.35111154  0.60203387  0.33257226  1  0  0.404868  0  0.90446  0  0  0.380224  0  0.96003  0  0  0.390117  0  0.945459  0  0  0.289503  0.372964  0  0.970799  0
H  H20  1  0.01385339  0.73507767  0.93922058  1  0  0.393919  0  0.925728  0  0  0.354733  0  1.004789  0  0  0.366506  0  0.987632  0  0  0.276524  0.34643  0  1.016871  0
H  H21  1  0.48614589  0.26492208  0.43921943  1  0  0.393897  0  0.92575  0  0  0.354713  0  1.004812  0  0  0.366487  0  0.987654  0  0  0.276511  0.346411  0  1.016893  0
H  H22  1  0.98615059  0.26492017  0.06077885  1  0  0.393935  0  0.925704  0  0  0.354741  0  1.004781  0  0  0.366515  0  0.987622  0  0  0.276508  0.346438  0  1.016863  0
H  H23  1  0.51384726  0.73507958  0.56078000  1  0  0.393977  0  0.92565  0  0  0.354746  0  1.004781  0  0  0.366519  0  0.987625  0  0  0.276514  0.346444  0  1.016862  0
H  H24  1  0.10479769  0.80888391  0.00960828  1  0  0.42483  0  0.873137  0  0  0.400072  0  0.927517  0  0  0.409532  0  0.913589  0  0  0.290262  0.393374  0  0.937372  0
H  H25  1  0.39520430  0.19111584  0.50960828  1  0  0.424817  0  0.873153  0  0  0.400062  0  0.927526  0  0  0.409522  0  0.9136  0  0  0.290271  0.393364  0  0.937381  0
H  H26  1  0.89520765  0.19111393  0.99039057  1  0  0.424825  0  0.873137  0  0  0.400074  0  0.927503  0  0  0.409534  0  0.913576  0  0  0.29026  0.393376  0  0.937358  0
H  H27  1  0.60479291  0.80888582  0.49039172  1  0  0.424849  0  0.873103  0  0  0.400098  0  0.927466  0  0  0.409558  0  0.913539  0  0  0.290283  0.393401  0  0.93732  0
H  H28  1  0.68656030  0.01253256  0.93922631  1  0  0.395682  0  0.906062  0  0  0.360404  0  0.990724  0  0  0.370778  0  0.975149  0  0  0.291483  0.352986  0  1.00187  0
H  H29  1  0.81344026  0.98746624  0.43922574  1  0  0.395676  0  0.906057  0  0  0.360401  0  0.990722  0  0  0.370775  0  0.975147  0  0  0.291474  0.352982  0  1.001868  0
H  H30  1  0.31343962  0.98746624  0.06077311  1  0  0.395704  0  0.906011  0  0  0.360427  0  0.990685  0  0  0.370801  0  0.97511  0  0  0.291484  0.353007  0  1.001831  0
H  H31  1  0.18656101  0.01253256  0.56077369  1  0  0.395677  0  0.906061  0  0  0.360399  0  0.990729  0  0  0.370773  0  0.975154  0  0  0.291475  0.35298  0  1.001876  0
H  H32  1  0.87738879  0.99654312  0.90248451  1  0  0.390787  0  0.929771  0  0  0.352192  0  1.009366  0  0  0.36323  0  0.993302  0  0  0.280827  0.344437  0  1.020638  0
H  H33  1  0.62261177  0.00345759  0.40248451  1  0  0.390785  0  0.929773  0  0  0.352186  0  1.009376  0  0  0.363224  0  0.993311  0  0  0.280817  0.344429  0  1.020649  0
H  H34  1  0.12261248  0.00345663  0.09751549  1  0  0.390778  0  0.929793  0  0  0.352183  0  1.009384  0  0  0.363221  0  0.99332  0  0  0.280817  0.344427  0  1.020657  0
H  H35  1  0.37738815  0.99654216  0.59751549  1  0  0.390759  0  0.92981  0  0  0.352155  0  1.009422  0  0  0.363194  0  0.993357  0  0  0.280803  0.344399  0  1.020695  0
C  C36  1  0.50064259  0.11041441  0.16132255  1  0  0.603711  0  3.874208  0  0  0.549032  0  4.160517  0  0  0.578626  0  4.165686  0  0  0.336684  0.529404  0  4.156218  0
C  C37  1  0.99935526  0.88958344  0.66132255  1  0  0.603673  0  3.874272  0  0  0.549029  0  4.160537  0  0  0.578621  0  4.165708  0  0  0.336648  0.529391  0  4.156248  0
C  C38  1  0.49935733  0.88958534  0.83867745  1  0  0.603656  0  3.874356  0  0  0.549052  0  4.160557  0  0  0.578645  0  4.165726  0  0  0.336652  0.529412  0  4.156272  0
C  C39  1  0.00064601  0.11041536  0.33867688  1  0  0.603722  0  3.874154  0  0  0.549037  0  4.160476  0  0  0.578629  0  4.165645  0  0  0.336663  0.529399  0  4.156189  0
C  C40  1  0.50067916  0.97145897  0.26525637  1  0  0.724983  0  3.941826  0  0  0.67402  0  4.239313  0  0  0.707328  0  4.235463  0  0  0.284544  0.65145  0  4.241125  0
C  C41  1  0.99931870  0.02854078  0.76525579  1  0  0.724926  0  3.941955  0  0  0.673997  0  4.239405  0  0  0.707305  0  4.235554  0  0  0.284526  0.651427  0  4.241221  0
C  C42  1  0.49931806  0.02854078  0.73474478  1  0  0.724858  0  3.941741  0  0  0.673885  0  4.239249  0  0  0.707192  0  4.235401  0  0  0.284493  0.651316  0  4.241062  0
C  C43  1  0.00068393  0.97145897  0.23474306  1  0  0.724952  0  3.941951  0  0  0.674013  0  4.239414  0  0  0.707323  0  4.235562  0  0  0.28452  0.651441  0  4.241229  0
C  C44  1  0.52073130  0.18890085  0.29246043  1  0  0.615589  0  3.833734  0  0  0.551965  0  4.130593  0  0  0.58211  0  4.135193  0  0  0.349546  0.531735  0  4.127  0
C  C45  1  0.97926656  0.81110080  0.79246043  1  0  0.615738  0  3.833641  0  0  0.552074  0  4.130548  0  0  0.582212  0  4.135157  0  0  0.349597  0.531846  0  4.126955  0
C  C46  1  0.47926592  0.81110080  0.70754015  1  0  0.615668  0  3.833687  0  0  0.551998  0  4.130605  0  0  0.582135  0  4.135216  0  0  0.34958  0.53177  0  4.127009  0
C  C47  1  0.02073201  0.18890085  0.20753900  1  0  0.615545  0  3.833855  0  0  0.551992  0  4.130606  0  0  0.582136  0  4.135208  0  0  0.349551  0.531764  0  4.127012  0
C  C48  1  0.53849327  0.40873064  0.31187486  1  0  0.735648  0  3.900288  0  0  0.676907  0  4.204897  0  0  0.710889  0  4.200695  0  0  0.314618  0.653858  0  4.206951  0
C  C49  1  0.96151000  0.59127006  0.81187543  1  0  0.735691  0  3.900357  0  0  0.676947  0  4.204953  0  0  0.710928  0  4.20075  0  0  0.314645  0.653901  0  4.207008  0
C  C50  1  0.46150665  0.59127006  0.68812629  1  0  0.73566  0  3.900303  0  0  0.676926  0  4.204889  0  0  0.710921  0  4.200671  0  0  0.314643  0.653877  0  4.206941  0
C  C51  1  0.03848857  0.40872969  0.18812400  1  0  0.735681  0  3.9004  0  0  0.676937  0  4.204997  0  0  0.710915  0  4.200799  0  0  0.31469  0.653891  0  4.20705  0
C  C52  1  0.52303636  0.33749142  0.18512732  1  0  0.622645  0  3.841755  0  0  0.564803  0  4.132104  0  0  0.594945  0  4.136311  0  0  0.352958  0.544769  0  4.128541  0
C  C53  1  0.97696420  0.66250547  0.68512847  1  0  0.622584  0  3.841792  0  0  0.564657  0  4.132268  0  0  0.594798  0  4.136478  0  0  0.35289  0.544622  0  4.1287  0
C  C54  1  0.47696086  0.66250833  0.81487382  1  0  0.62271  0  3.841699  0  0  0.564843  0  4.132073  0  0  0.594985  0  4.136278  0  0  0.352991  0.544808  0  4.128509  0
C  C55  1  0.02303707  0.33749523  0.31487210  1  0  0.622558  0  3.841757  0  0  0.564608  0  4.132271  0  0  0.594748  0  4.136485  0  0  0.352847  0.544574  0  4.128702  0
C  C56  1  0.51026372  0.25579858  0.06083219  1  0  0.730846  0  3.932019  0  0  0.683887  0  4.22263  0  0  0.718009  0  4.217378  0  0  0.282345  0.660871  0  4.225319  0
C  C57  1  0.98973820  0.74420117  0.56083276  1  0  0.730808  0  3.932095  0  0  0.683838  0  4.222729  0  0  0.717961  0  4.217479  0  0  0.282361  0.660817  0  4.225417  0
C  C58  1  0.48973756  0.74420212  0.93916896  1  0  0.730743  0  3.932129  0  0  0.683791  0  4.222736  0  0  0.717914  0  4.217485  0  0  0.28229  0.660772  0  4.225423  0
C  C59  1  0.01026308  0.25580048  0.43916609  1  0  0.730914  0  3.931956  0  0  0.683917  0  4.222624  0  0  0.71804  0  4.217372  0  0  0.282388  0.660898  0  4.225313  0
N  N60  1  0.51504855  0.21238656  0.21313145  1  0  -0.371683  0  3.356967  0  0  -0.279145  0  3.579459  0  0  -0.304129  0  3.592457  0  0  -0.2153  -0.262766  0  3.570376  0
N  N61  1  0.98494931  0.78761129  0.71313260  1  0  -0.371753  0  3.356978  0  0  -0.279195  0  3.57951  0  0  -0.304175  0  3.592508  0  0  -0.215318  -0.262814  0  3.57043  0
N  N62  1  0.48495002  0.78761319  0.78686855  1  0  -0.371779  0  3.356975  0  0  -0.279244  0  3.57947  0  0  -0.304224  0  3.592468  0  0  -0.215328  -0.262861  0  3.570391  0
N  N63  1  0.01505197  0.21238846  0.28686740  1  0  -0.371666  0  3.356854  0  0  -0.279116  0  3.579359  0  0  -0.304097  0  3.592356  0  0  -0.215292  -0.262735  0  3.570279  0
N  N64  1  0.49152527  0.99212646  0.18769041  1  0  -0.696056  0  3.053882  0  0  -0.654038  0  3.34146  0  0  -0.67941  0  3.34609  0  0  -0.487962  -0.636665  0  3.337931  0
N  N65  1  0.00847537  0.00787138  0.68768984  1  0  -0.696161  0  3.054091  0  0  -0.654155  0  3.341637  0  0  -0.679527  0  3.346264  0  0  -0.488005  -0.636776  0  3.338107  0
N  N66  1  0.50847465  0.00787329  0.81231074  1  0  -0.696052  0  3.053975  0  0  -0.654064  0  3.341541  0  0  -0.679438  0  3.346178  0  0  -0.48798  -0.636687  0  3.338013  0
N  N67  1  0.99152456  0.99212742  0.31231016  1  0  -0.696109  0  3.0539  0  0  -0.654103  0  3.341494  0  0  -0.679476  0  3.346122  0  0  -0.487959  -0.636728  0  3.337971  0
N  N68  1  0.51429961  0.06967978  0.31794506  1  0  -0.643294  0  2.998251  0  0  -0.587763  0  3.26869  0  0  -0.613674  0  3.272494  0  0  -0.38214  -0.570052  0  3.265675  0
N  N69  1  0.98569689  0.93031997  0.81794506  1  0  -0.64326  0  2.998246  0  0  -0.587745  0  3.268703  0  0  -0.613653  0  3.272509  0  0  -0.382109  -0.570033  0  3.265689  0
N  N70  1  0.48569896  0.93032092  0.68205609  1  0  -0.643233  0  2.998183  0  0  -0.587666  0  3.268623  0  0  -0.613572  0  3.272429  0  0  -0.382114  -0.569954  0  3.265609  0
N  N71  1  0.01430303  0.06968168  0.18205380  1  0  -0.643276  0  2.998356  0  0  -0.587795  0  3.268782  0  0  -0.613706  0  3.272586  0  0  -0.382135  -0.570084  0  3.265768  0
N  N72  1  0.53202095  0.28688926  0.34065898  1  0  -0.613218  0  2.986529  0  0  -0.556201  0  3.256086  0  0  -0.58232  0  3.25964  0  0  -0.345063  -0.538401  0  3.253265  0
N  N73  1  0.96797826  0.71311239  0.84065955  1  0  -0.61332  0  2.986454  0  0  -0.556271  0  3.256004  0  0  -0.582385  0  3.25956  0  0  -0.345089  -0.538474  0  3.253182  0
N  N74  1  0.46797762  0.71311239  0.65934159  1  0  -0.613269  0  2.986574  0  0  -0.556229  0  3.256161  0  0  -0.58235  0  3.259714  0  0  -0.345086  -0.538431  0  3.253339  0
N  N75  1  0.03202031  0.28688926  0.15933987  1  0  -0.613165  0  2.986588  0  0  -0.556136  0  3.256078  0  0  -0.582253  0  3.259635  0  0  -0.345027  -0.53834  0  3.253256  0
N  N76  1  0.53539322  0.43404123  0.23462205  1  0  -0.632714  0  3.007676  0  0  -0.576397  0  3.276884  0  0  -0.602266  0  3.280039  0  0  -0.352839  -0.558751  0  3.274581  0
N  N77  1  0.96460599  0.56595661  0.73462377  1  0  -0.632625  0  3.007837  0  0  -0.576282  0  3.277069  0  0  -0.602152  0  3.280227  0  0  -0.352811  -0.558636  0  3.274763  0
N  N78  1  0.46460535  0.56595756  0.76537853  1  0  -0.632748  0  3.007634  0  0  -0.57642  0  3.276839  0  0  -0.602293  0  3.279991  0  0  -0.352871  -0.558774  0  3.274535  0
N  N79  1  0.03539258  0.43404314  0.26537623  1  0  -0.632639  0  3.007796  0  0  -0.576299  0  3.277051  0  0  -0.602167  0  3.28021  0  0  -0.352824  -0.558654  0  3.274747  0
N  N80  1  0.51962346  0.35833113  0.11014740  1  0  -0.690253  0  3.0101  0  0  -0.649195  0  3.297282  0  0  -0.674173  0  3.300835  0  0  -0.469449  -0.632052  0  3.294279  0
N  N81  1  0.98037440  0.64166862  0.61014912  1  0  -0.690224  0  3.010099  0  0  -0.649127  0  3.297291  0  0  -0.674102  0  3.300842  0  0  -0.469415  -0.631994  0  3.294321  0
N  N82  1  0.48037782  0.64167052  0.88985260  1  0  -0.690203  0  3.010271  0  0  -0.649134  0  3.297445  0  0  -0.674111  0  3.300995  0  0  -0.469408  -0.631993  0  3.294458  0
N  N83  1  0.01962553  0.35833209  0.38985088  1  0  -0.690308  0  3.010157  0  0  -0.649197  0  3.297376  0  0  -0.674172  0  3.300927  0  0  -0.469428  -0.632063  0  3.2944  0
N  N84  1  0.49762515  0.13207808  0.08607536  1  0  -0.647526  0  2.980842  0  0  -0.596175  0  3.249941  0  0  -0.621206  0  3.252736  0  0  -0.395076  -0.579036  0  3.247423  0
N  N85  1  0.00237549  0.86791977  0.58607536  1  0  -0.647414  0  2.98076  0  0  -0.596063  0  3.24984  0  0  -0.621093  0  3.252635  0  0  -0.395058  -0.578919  0  3.247324  0
N  N86  1  0.50237477  0.86792167  0.91392464  1  0  -0.64744  0  2.980789  0  0  -0.596108  0  3.249845  0  0  -0.62114  0  3.252641  0  0  -0.395043  -0.578965  0  3.247331  0
N  N87  1  0.99762715  0.13208093  0.41392349  1  0  -0.647488  0  2.980746  0  0  -0.596113  0  3.249854  0  0  -0.621143  0  3.252648  0  0  -0.395083  -0.57897  0  3.247341  0
O  O88  1  0.49545959  0.85884289  0.28988185  1  0  -0.711092  0  1.947359  0  0  -0.661669  0  2.186305  0  0  -0.683783  0  2.177787  0  0  -0.500819  -0.646139  0  2.192517  0
O  O89  1  0.00453970  0.14115686  0.78988128  1  0  -0.711028  0  1.947355  0  0  -0.661625  0  2.186298  0  0  -0.683738  0  2.177782  0  0  -0.500784  -0.646094  0  2.192511  0
O  O90  1  0.50454034  0.14115781  0.71011815  1  0  -0.711031  0  1.947281  0  0  -0.661607  0  2.186224  0  0  -0.68372  0  2.177708  0  0  -0.500792  -0.646077  0  2.192436  0
O  O91  1  0.99546023  0.85884289  0.21011872  1  0  -0.711031  0  1.947416  0  0  -0.661625  0  2.186364  0  0  -0.683738  0  2.177846  0  0  -0.500776  -0.646094  0  2.192576  0
O  O92  1  0.54587434  0.50129956  0.35867515  1  0  -0.729194  0  1.9452  0  0  -0.673467  0  2.181025  0  0  -0.696416  0  2.17132  0  0  -0.424252  -0.657069  0  2.187507  0
O  O93  1  0.95413570  0.49870019  0.85867745  1  0  -0.72927  0  1.945227  0  0  -0.67354  0  2.18105  0  0  -0.696494  0  2.171347  0  0  -0.424262  -0.657117  0  2.187467  0
O  O94  1  0.45412422  0.49869924  0.64132427  1  0  -0.729212  0  1.945168  0  0  -0.673487  0  2.180991  0  0  -0.696442  0  2.171282  0  0  -0.424269  -0.657084  0  2.187462  0
O  O95  1  0.04586287  0.50130051  0.14132198  1  0  -0.729259  0  1.945228  0  0  -0.673535  0  2.181055  0  0  -0.696486  0  2.171354  0  0  -0.424284  -0.65712  0  2.187491  0
O  O96  1  0.51063751  0.27861827  0.98949587  1  0  -0.765402  0  1.974292  0  0  -0.717671  0  2.221286  0  0  -0.740674  0  2.211911  0  0  -0.517171  -0.70128  0  2.227187  0
O  O97  1  0.98936170  0.72137768  0.48949530  1  0  -0.765408  0  1.974357  0  0  -0.717679  0  2.221359  0  0  -0.740682  0  2.211984  0  0  -0.517182  -0.701293  0  2.227277  0
O  O98  1  0.48936648  0.72138053  0.01050585  1  0  -0.765352  0  1.974362  0  0  -0.717623  0  2.221337  0  0  -0.740624  0  2.211961  0  0  -0.517157  -0.701242  0  2.22726  0
O  O99  1  0.01063552  0.27862207  0.51050413  1  0  -0.765468  0  1.974242  0  0  -0.717725  0  2.221251  0  0  -0.740727  0  2.211875  0  0  -0.517228  -0.701339  0  2.227163  0
O  O100  1  0.72697743  0.63651173  0.17160530  1  0  -0.919939  0  1.835178  0  0  -0.876659  0  2.014548  0  0  -0.894823  0  1.984976  0  0  -0.725853  -0.863691  0  2.036103  0
O  O101  1  0.77302178  0.36348992  0.67160473  1  0  -0.919945  0  1.835134  0  0  -0.876677  0  2.014531  0  0  -0.894832  0  1.98494  0  0  -0.725838  -0.863709  0  2.036088  0
O  O102  1  0.27302385  0.36348802  0.82839470  1  0  -0.919963  0  1.835106  0  0  -0.876689  0  2.014485  0  0  -0.89485  0  1.984903  0  0  -0.725865  -0.863721  0  2.036041  0
O  O103  1  0.22697814  0.63650983  0.32839527  1  0  -0.919943  0  1.835139  0  0  -0.876672  0  2.014527  0  0  -0.894831  0  1.984939  0  0  -0.725834  -0.863705  0  2.036082  0
O  O104  1  0.03642593  0.73130611  0.99601916  1  0  -0.935014  0  1.793387  0  0  -0.885323  0  1.971209  0  0  -0.903912  0  1.941195  0  0  -0.732909  -0.871994  0  1.992109  0
O  O105  1  0.46357335  0.26869269  0.49601916  1  0  -0.934988  0  1.793411  0  0  -0.885293  0  1.971217  0  0  -0.903882  0  1.941207  0  0  -0.732903  -0.871964  0  1.992116  0
O  O106  1  0.96358076  0.26868984  0.00397970  1  0  -0.935024  0  1.793379  0  0  -0.885329  0  1.971199  0  0  -0.903918  0  1.941186  0  0  -0.732893  -0.872  0  1.992099  0
O  O107  1  0.53641845  0.73130896  0.50398084  1  0  -0.935102  0  1.793265  0  0  -0.885379  0  1.971139  0  0  -0.903968  0  1.941127  0  0  -0.732931  -0.872051  0  1.992037  0
O  O108  1  0.81239201  0.04192109  0.94486407  1  0  -0.879948  0  1.889867  0  0  -0.829794  0  2.078689  0  0  -0.847491  0  2.047158  0  0  -0.666992  -0.817213  0  2.100866  0
O  O109  1  0.68760990  0.95807866  0.44486407  1  0  -0.879922  0  1.88986  0  0  -0.829779  0  2.078716  0  0  -0.847479  0  2.047192  0  0  -0.666969  -0.817196  0  2.100893  0
O  O110  1  0.18760791  0.95807771  0.05513593  1  0  -0.879951  0  1.88983  0  0  -0.8298  0  2.078673  0  0  -0.847497  0  2.047141  0  0  -0.666985  -0.817219  0  2.100852  0
O  O111  1  0.31239138  0.04192109  0.55513650  1  0  -0.879899  0  1.889879  0  0  -0.82975  0  2.078728  0  0  -0.847451  0  2.047204  0  0  -0.66696  -0.81717  0  2.100906  0
