# generated using pymatgen
data_Mn3H52C54(N5O8)2
_symmetry_space_group_name_H-M   'P 1'
_cell_length_a   11.17409576
_cell_length_b   12.19490465
_cell_length_c   12.44000000
_cell_angle_alpha   102.75839071
_cell_angle_beta   91.25663862
_cell_angle_gamma   111.08844374
_symmetry_Int_Tables_number   1
_chemical_formula_structural   Mn3H52C54(N5O8)2
_chemical_formula_sum   'Mn3 H52 C54 N10 O16'
_cell_volume   1532.97485539
_cell_formula_units_Z   1
loop_
 _symmetry_equiv_pos_site_id
 _symmetry_equiv_pos_as_xyz
  1  'x, y, z'
loop_
 _atom_site_type_symbol
 _atom_site_label
 _atom_site_symmetry_multiplicity
 _atom_site_fract_x
 _atom_site_fract_y
 _atom_site_fract_z
 _atom_site_occupancy
 _atom_site_hle17_ddec_charge
 _atom_site_hle17_ddec_spin_density
 _atom_site_hle17_ddec_sum_bond_order
 _atom_site_hle17_magmom
 _atom_site_hse06_10hf_ddec_charge
 _atom_site_hse06_10hf_ddec_spin_density
 _atom_site_hse06_10hf_ddec_sum_bond_order
 _atom_site_hse06_10hf_magmom
 _atom_site_hse06_ddec_charge
 _atom_site_hse06_ddec_spin_density
 _atom_site_hse06_ddec_sum_bond_order
 _atom_site_hse06_magmom
 _atom_site_pbe_bader_charge
 _atom_site_pbe_bader_spin_density
 _atom_site_pbe_cm5_charge
 _atom_site_pbe_ddec_charge
 _atom_site_pbe_ddec_spin_density
 _atom_site_pbe_ddec_sum_bond_order
 _atom_site_pbe_magmom
Mn  Mn0  1  0.92187479  0.22267484  0.20705726  1  1.192636  -4.791065  1.749746  -4.675  1.04203  -4.717735  2.245431  -4.538  1.104303  -4.760881  2.170384  -4.601  1.51441  -4.550398  0.595361  0.993591  -4.672787  2.300587  -4.474
Mn  Mn1  1  0.07812580  0.77732763  0.79294023  1  1.192552  -4.791114  1.749552  -4.675  1.041988  -4.717798  2.245213  -4.538  1.104269  -4.760937  2.170165  -4.601  1.514366  -4.550198  0.595277  0.993436  -4.672509  2.300436  -4.474
Mn  Mn2  1  0.99999751  0.99999250  0.99999286  1  1.28204  -4.7937  1.761615  -4.687  1.142307  -4.705207  2.269472  -4.539  1.194763  -4.753276  2.191277  -4.606  1.583505  -4.519066  0.613979  1.105312  -4.648188  2.326095  -4.462
H  H3  1  0.83406206  0.03523138  0.80620052  1  0.12573  0.000555  0.970961  0.0  0.125324  0.000392  1.049756  0.0  0.129751  0.000477  1.046096  0.0  0.143217  -0.000305  0.113744  0.121925  0.000297  1.052675  0.0
H  H4  1  0.16593942  0.96477109  0.19379217  1  0.125747  0.00055  0.970947  0.0  0.125335  0.000391  1.049721  0.0  0.129768  0.000478  1.046065  0.0  0.14321  -0.000304  0.113756  0.121933  0.000298  1.052644  0.0
H  H5  1  0.78941907  0.00978262  0.42960592  1  0.097869  0.000266  0.975844  0.0  0.099322  0.000185  1.055436  0.0  0.103207  0.00023  1.05168  0.0  0.113401  -0.000268  0.101234  0.096467  0.000129  1.058232  0.0
H  H6  1  0.21057487  0.99020988  0.57038687  1  0.097809  0.000261  0.975893  0.0  0.09928  0.000185  1.055452  0.0  0.103164  0.000231  1.051699  0.0  0.113261  -0.000269  0.101232  0.096427  0.000129  1.058244  0.0
H  H7  1  0.29639666  0.36777683  0.37551713  1  0.100901  0.000305  0.991687  0.0  0.103717  0.000162  1.07011  0.0  0.107747  0.000218  1.066032  0.0  0.104394  -0.000359  0.104375  0.10073  8.8e-05  1.073183  0.0
H  H8  1  0.70360483  0.63222564  0.62447395  1  0.1009  0.00029  0.991616  0.0  0.103733  0.000162  1.070041  0.0  0.107763  0.000218  1.065962  0.0  0.104791  -0.00036  0.104372  0.100742  8.7e-05  1.073121  0.0
H  H9  1  0.53586566  0.11260750  0.98350991  1  0.097885  0.000113  0.96381  0.0  0.107052  -8.8e-05  1.028752  0.0  0.109998  -5e-06  1.027172  0.0  0.090648  -0.000445  0.105801  0.104876  -0.000129  1.030134  0.0
H  H10  1  0.46413923  0.88739678  0.01648967  1  0.097807  0.000103  0.963842  0.0  0.107001  -8.8e-05  1.028749  0.0  0.10994  -5e-06  1.027176  0.0  0.090826  -0.000445  0.105804  0.104823  -0.000129  1.030133  0.0
H  H11  1  0.73550633  0.16538612  0.38785739  1  0.048362  -2.5e-05  0.937966  0.0  0.058248  -0.000321  1.0077  0.0  0.059836  -0.000134  1.002706  0.0  0.101269  -0.001157  0.128845  0.056857  -0.000528  1.011493  0.0
H  H12  1  0.26449838  0.83461544  0.61213758  1  0.048278  -2.4e-05  0.937946  0.0  0.058152  -0.000321  1.007695  0.0  0.05974  -0.000134  1.002699  0.0  0.101228  -0.001159  0.128825  0.056761  -0.000529  1.011487  0.0
H  H13  1  0.39862554  0.18920762  0.07556154  1  0.097777  0.000272  0.951071  0.0  0.107818  0.000208  1.011731  0.0  0.111349  0.000249  1.009363  0.0  0.103108  -0.000289  0.103252  0.105031  0.000152  1.013823  0.0
H  H14  1  0.60136819  0.81077763  0.92443450  1  0.097728  0.000258  0.951108  0.0  0.107758  0.000208  1.011775  0.0  0.111286  0.000248  1.00941  0.0  0.103245  -0.00029  0.10323  0.10497  0.000152  1.013867  0.0
H  H15  1  0.98091438  0.79735248  0.24076766  1  0.093421  0.000262  0.973152  0.0  0.104411  0.000144  1.03818  0.0  0.107573  0.00019  1.036129  0.0  0.08032  -0.000327  0.102388  0.102046  8.6e-05  1.039772  0.0
H  H16  1  0.01909050  0.20264727  0.75923496  1  0.093475  0.000253  0.973114  0.0  0.104429  0.000144  1.038164  0.0  0.107616  0.000191  1.036085  0.0  0.08032  -0.000327  0.102421  0.102066  8.6e-05  1.039762  0.0
H  H17  1  0.47629656  0.98430731  0.62660072  1  0.087487  9.7e-05  0.965067  0.0  0.095797  -4.5e-05  1.034509  0.0  0.099338  -1.3e-05  1.030961  0.0  0.067947  -0.000161  0.099691  0.093215  -7.8e-05  1.037143  0.0
H  H18  1  0.52370189  0.01569878  0.37339832  1  0.087448  9.6e-05  0.965134  0.0  0.095864  -4.4e-05  1.034461  0.0  0.099406  -1.3e-05  1.030913  0.0  0.067433  -0.000161  0.099708  0.093278  -7.7e-05  1.037101  0.0
H  H19  1  0.63163698  0.28122185  0.15444231  1  0.109575  0.000276  0.991509  0.0  0.117576  0.000265  1.053162  0.0  0.121643  0.000321  1.05062  0.0  0.125667  -0.000287  0.101516  0.11453  0.000241  1.055129  0.0
H  H20  1  0.36835675  0.71876339  0.84555453  1  0.109584  0.000278  0.991536  0.0  0.117549  0.000265  1.053239  0.0  0.121614  0.000321  1.050699  0.0  0.125552  -0.000288  0.101534  0.114505  0.000241  1.055202  0.0
H  H21  1  0.69527805  0.42374108  0.34301689  1  0.100517  0.000165  0.95205  0.0  0.110289  0.000137  1.014599  0.0  0.113591  0.000146  1.012585  0.0  0.080294  -6.8e-05  0.105306  0.107762  0.00012  1.016274  0.0
H  H22  1  0.30471874  0.57624961  0.65697556  1  0.100518  0.000167  0.952051  0.0  0.110293  0.000137  1.014593  0.0  0.113596  0.000147  1.012584  0.0  0.080318  -6.9e-05  0.1053  0.107775  0.00012  1.016255  0.0
H  H23  1  0.39126860  0.04604383  0.80498268  1  0.110651  0.000335  0.948925  0.0  0.120234  0.00038  1.004466  0.0  0.123668  0.000404  1.003132  0.0  0.104018  -0.00023  0.105668  0.117647  0.000339  1.005619  0.0
H  H24  1  0.60873505  0.95396407  0.19501846  1  0.110677  0.000336  0.948811  0.0  0.12022  0.00038  1.00441  0.0  0.123654  0.000404  1.003077  0.0  0.103891  -0.00023  0.105663  0.11763  0.00034  1.005568  0.0
H  H25  1  0.99251184  0.59727892  0.18442591  1  0.114286  0.000175  0.943041  0.0  0.133505  0.000104  1.004312  0.0  0.135457  0.000144  1.002629  0.0  0.112818  -0.000399  0.113586  0.132018  4.7e-05  1.005572  0.0
H  H26  1  0.00748624  0.40272627  0.81557935  1  0.11422  0.000167  0.943042  0.0  0.133419  0.000104  1.004338  0.0  0.13537  0.000144  1.002657  0.0  0.112867  -0.000399  0.113581  0.13193  4.6e-05  1.005599  0.0
H  H27  1  0.06113529  0.68587727  0.08728018  1  0.106724  0.000285  0.943555  0.0  0.127597  0.000206  1.00716  0.0  0.127726  0.00029  1.007656  0.0  0.092461  -0.000589  0.108948  0.127254  9.4e-05  1.007097  0.0
H  H28  1  0.93886851  0.31412429  0.91272120  1  0.106684  0.000287  0.943616  0.0  0.127574  0.000206  1.007173  0.0  0.127702  0.00029  1.007669  0.0  0.092378  -0.000589  0.108948  0.127226  9.4e-05  1.007116  0.0
H  H29  1  0.15063083  0.71441193  0.21672221  1  0.091105  -5.6e-05  0.948554  0.0  0.111936  -0.000129  1.014787  0.0  0.111502  -9.9e-05  1.016337  0.0  0.071691  -0.00027  0.101537  0.11217  -0.000166  1.01376  0.0
H  H30  1  0.84937084  0.28559325  0.78328232  1  0.091096  -4.9e-05  0.948395  0.0  0.111894  -0.000129  1.014667  0.0  0.111459  -9.9e-05  1.016219  0.0  0.07177  -0.00027  0.101529  0.112138  -0.000166  1.013633  0.0
H  H31  1  0.90700089  0.46190062  0.63182095  1  0.10517  0.000213  0.937931  0.0  0.124227  0.000152  1.00335  0.0  0.125313  0.000208  1.002499  0.0  0.064118  -0.000416  0.104821  0.123281  8.3e-05  1.004149  0.0
H  H32  1  0.09299199  0.53809822  0.36818043  1  0.105156  0.000216  0.937857  0.0  0.124174  0.000152  1.003331  0.0  0.125261  0.000208  1.002475  0.0  0.064056  -0.000415  0.104788  0.123223  8.4e-05  1.004134  0.0
H  H33  1  0.76654773  0.48805649  0.59202530  1  0.105232  2e-05  0.958267  0.0  0.121122  -3e-05  1.030484  0.0  0.122166  4e-06  1.029095  0.0  0.073517  -0.000234  0.106688  0.120347  -7.4e-05  1.031553  0.0
H  H34  1  0.23344317  0.51193963  0.40797143  1  0.105182  2.8e-05  0.958339  0.0  0.121098  -3e-05  1.030517  0.0  0.122138  4e-06  1.029132  0.0  0.073207  -0.000233  0.106699  0.120319  -7.4e-05  1.03159  0.0
H  H35  1  0.88709544  0.49012434  0.49937819  1  0.112971  0.000226  0.945467  0.0  0.130927  0.000205  1.010372  0.0  0.132566  0.000245  1.009057  0.0  0.107874  -0.000418  0.112505  0.129651  0.000161  1.011393  0.0
H  H36  1  0.11290210  0.50987722  0.50062226  1  0.112934  0.000223  0.945473  0.0  0.13089  0.000206  1.010382  0.0  0.132528  0.000245  1.009066  0.0  0.107826  -0.000418  0.112496  0.129611  0.000161  1.011408  0.0
H  H37  1  0.58110137  0.28728216  0.56402889  1  0.11132  -9.3e-05  0.918318  0.0  0.129699  -0.000235  0.978553  0.0  0.130657  -0.000168  0.978397  0.0  0.075714  -0.000507  0.10797  0.12898  -0.000317  0.978758  0.0
H  H38  1  0.41889561  0.71271124  0.43596737  1  0.111325  -8.6e-05  0.91836  0.0  0.129697  -0.000235  0.978598  0.0  0.130674  -0.000168  0.978423  0.0  0.07567  -0.000507  0.10799  0.128998  -0.000317  0.978779  0.0
H  H39  1  0.69255729  0.26752021  0.65616406  1  0.095232  -7e-05  0.942845  0.0  0.116713  -0.000181  1.002287  0.0  0.117594  -0.000133  1.002787  0.0  0.048532  -0.000381  0.101749  0.115973  -0.000231  1.002007  0.0
H  H40  1  0.30743988  0.73247591  0.34383038  1  0.09524  -6.6e-05  0.94289  0.0  0.11671  -0.000181  1.002333  0.0  0.117589  -0.000133  1.002839  0.0  0.048583  -0.00038  0.101751  0.115965  -0.000231  1.002059  0.0
H  H41  1  0.62394703  0.15645294  0.52976523  1  0.098227  2.5e-05  0.961784  0.0  0.111609  -1.9e-05  1.039881  0.0  0.112721  -2e-06  1.038275  0.0  0.031267  -0.000145  0.105921  0.110591  -3.8e-05  1.041226  0.0
H  H42  1  0.37605246  0.84354227  0.47023067  1  0.09827  3e-05  0.961841  0.0  0.111638  -1.9e-05  1.039939  0.0  0.11275  -2e-06  1.038335  0.0  0.031291  -0.000145  0.105907  0.110616  -3.8e-05  1.041297  0.0
H  H43  1  0.13030634  0.37847325  0.07318236  1  0.050668  2.8e-05  0.916194  0.0  0.060953  -0.000346  0.980689  0.0  0.062827  -0.000107  0.975753  0.0  0.10815  -0.001414  0.131668  0.059316  -0.000604  0.984515  0.0
H  H44  1  0.86969891  0.62153194  0.92683189  1  0.050748  2.3e-05  0.916072  0.0  0.06103  -0.000346  0.980574  0.0  0.062904  -0.000107  0.975633  0.0  0.107876  -0.001414  0.131689  0.059372  -0.000603  0.984424  0.0
H  H45  1  0.33065029  0.66063248  0.10092479  1  0.098908  -9.9e-05  0.93066  0.0  0.119853  -0.000218  0.990789  0.0  0.120029  -0.00016  0.991777  0.0  0.062817  -0.000471  0.103829  0.119623  -0.000295  0.990231  0.0
H  H46  1  0.66935298  0.33936999  0.89908562  1  0.098869  -0.000103  0.930745  0.0  0.119832  -0.000218  0.990827  0.0  0.120008  -0.00016  0.991814  0.0  0.062945  -0.000471  0.103817  0.119598  -0.000296  0.990275  0.0
H  H47  1  0.22822139  0.63137076  0.97740499  1  0.114875  0.000321  0.94684  0.0  0.131306  0.000322  1.01321  0.0  0.132301  0.000357  1.013371  0.0  0.093669  -0.000294  0.109067  0.130488  0.000281  1.013168  0.0
H  H48  1  0.77178080  0.36862899  0.02260240  1  0.114891  0.000312  0.946684  0.0  0.131275  0.000322  1.013122  0.0  0.132267  0.000357  1.013281  0.0  0.093686  -0.000294  0.109053  0.130452  0.000281  1.013086  0.0
H  H49  1  0.27351540  0.51354333  0.00697938  1  0.105926  8e-06  0.92119  0.0  0.128734  -4.8e-05  0.977528  0.0  0.129553  -2.6e-05  0.977292  0.0  0.069445  -0.000194  0.114434  0.128037  -8.4e-05  0.977809  0.0
H  H50  1  0.72648607  0.48645461  0.99303081  1  0.105888  2e-06  0.921208  0.0  0.128703  -4.9e-05  0.977528  0.0  0.129521  -2.6e-05  0.977294  0.0  0.069453  -0.000193  0.114442  0.128006  -8.4e-05  0.977809  0.0
H  H51  1  0.98129842  0.69507878  0.39585754  1  0.082638  -4e-05  0.960582  0.0  0.094527  -0.0  1.019008  0.0  0.09717  9e-06  1.0187  0.0  0.062643  -0.000126  0.096295  0.092652  -7e-06  1.019325  0.0
H  H52  1  0.01871311  0.30493094  0.60415058  1  0.082689  -2.7e-05  0.960465  0.0  0.094513  -0.0  1.018964  0.0  0.097157  9e-06  1.018654  0.0  0.06267  -0.000127  0.096303  0.092637  -8e-06  1.019282  0.0
H  H53  1  0.89024104  0.75911951  0.57120204  1  0.115225  0.000404  0.955322  0.0  0.123966  0.000224  1.01981  0.0  0.127645  0.000304  1.017204  0.0  0.105825  -0.000223  0.111188  0.121223  0.000127  1.021787  0.0
H  H54  1  0.10976493  0.24088749  0.42880216  1  0.115256  0.000406  0.95531  0.0  0.123986  0.000224  1.019811  0.0  0.127666  0.000304  1.017208  0.0  0.105914  -0.000221  0.111202  0.121247  0.000128  1.021772  0.0
C  C55  1  0.78022492  0.12649408  0.01171248  1  0.644019  -0.00971  3.886237  -0.009  0.592773  -0.017841  4.173535  -0.015  0.628835  -0.013303  4.166756  -0.012  1.528777  -0.022727  0.215714  0.56774  -0.022354  4.177007  -0.019
C  C56  1  0.21977727  0.87350567  0.98828525  1  0.643988  -0.009719  3.886316  -0.009  0.592767  -0.017838  4.173629  -0.015  0.628829  -0.013306  4.166849  -0.012  1.528845  -0.022726  0.21574  0.567732  -0.022356  4.177102  -0.019
C  C57  1  0.69335988  0.07923093  0.90547113  1  -0.067628  0.004005  3.775623  0.003  -0.040773  0.002593  4.007593  0.002  -0.04951  0.003052  4.030558  0.002  -0.026411  0.000751  -0.017247  -0.035262  0.002047  3.992722  0.002
C  C58  1  0.30663981  0.92077154  0.09452634  1  -0.067636  0.004038  3.775645  0.003  -0.040844  0.002571  4.007673  0.002  -0.049579  0.00309  4.030636  0.002  -0.026432  0.000751  -0.017285  -0.035336  0.002047  3.99281  0.002
C  C59  1  0.89483667  0.97635140  0.23681451  1  0.673035  -0.00923  3.879487  -0.009  0.620776  -0.016727  4.172603  -0.015  0.65745  -0.012403  4.164223  -0.012  1.567046  -0.022243  0.224466  0.595124  -0.021572  4.177206  -0.019
C  C60  1  0.10516858  0.02365378  0.76318527  1  0.673019  -0.009213  3.879264  -0.009  0.620802  -0.016732  4.172377  -0.015  0.657475  -0.012404  4.163998  -0.012  1.566669  -0.022256  0.224415  0.595148  -0.021581  4.176981  -0.019
C  C61  1  0.19537036  0.21982464  0.17330724  1  0.671321  -0.010805  3.889351  -0.011  0.615377  -0.018545  4.19138  -0.017  0.651966  -0.014166  4.183307  -0.014  1.586265  -0.02359  0.22433  0.590056  -0.022975  4.19545  -0.021
C  C62  1  0.80462180  0.78017239  0.82668730  1  0.671365  -0.010794  3.889028  -0.011  0.6154  -0.018549  4.1911  -0.017  0.651992  -0.014169  4.183027  -0.014  1.586274  -0.023601  0.224307  0.590074  -0.022986  4.195172  -0.021
C  C63  1  0.73739859  0.03755668  0.80640505  1  -0.12404  -0.002539  3.664693  -0.002  -0.15775  -0.003035  3.914333  -0.003  -0.15789  -0.002346  3.934403  -0.002  -0.057095  -0.005192  -0.072498  -0.157569  -0.003699  3.901049  -0.003
C  C64  1  0.26260380  0.96245032  0.19359185  1  -0.124105  -0.002557  3.664825  -0.002  -0.157778  -0.003016  3.91446  -0.003  -0.157923  -0.002388  3.934527  -0.002  -0.057314  -0.00519  -0.072556  -0.157601  -0.003698  3.901185  -0.003
C  C65  1  0.82882660  0.93911292  0.42073138  1  -0.120448  -0.001756  3.701814  -0.002  -0.151602  -0.002357  3.943967  -0.002  -0.151417  -0.001884  3.9647  -0.002  -0.0152  -0.004439  -0.077248  -0.151628  -0.003279  3.930158  -0.003
C  C66  1  0.17117057  0.06088320  0.57926708  1  -0.120437  -0.00173  3.701731  -0.002  -0.151575  -0.002359  3.943897  -0.002  -0.151389  -0.001872  3.96463  -0.002  -0.014849  -0.004442  -0.077267  -0.151601  -0.003281  3.930085  -0.003
C  C67  1  0.36985461  0.35197833  0.32565411  1  -0.124262  -0.002696  3.708036  -0.002  -0.161582  -0.003826  3.956112  -0.003  -0.161518  -0.002697  3.976257  -0.002  0.021335  -0.007685  -0.08191  -0.161903  -0.005726  3.943135  -0.004
C  C68  1  0.63014345  0.64801779  0.67433875  1  -0.124354  -0.002602  3.708029  -0.002  -0.161692  -0.00383  3.9561  -0.003  -0.16163  -0.0027  3.976241  -0.002  0.02127  -0.00769  -0.081999  -0.162011  -0.00573  3.943129  -0.004
C  C69  1  0.33450329  0.27578526  0.21968782  1  -0.067163  -0.000426  3.784217  -0.001  -0.041552  -0.00054  4.017932  -0.001  -0.050839  0.000103  4.042015  0.0  -0.064438  -0.002321  -0.020026  -0.035878  -0.000996  4.002632  -0.001
C  C70  1  0.66549243  0.72420724  0.78030742  1  -0.067136  -0.000527  3.784141  -0.001  -0.041526  -0.000538  4.01786  0.0  -0.050815  0.000108  4.041946  0.0  -0.065075  -0.00232  -0.019986  -0.035851  -0.000994  4.00256  -0.001
C  C71  1  0.56844010  0.08159160  0.90481560  1  -0.061871  -0.002508  3.713347  -0.002  -0.089254  -0.002823  3.964522  -0.002  -0.088217  -0.002258  3.984102  -0.002  -0.055508  -0.005775  -0.077011  -0.090062  -0.004306  3.951697  -0.004
C  C72  1  0.43155835  0.91841450  0.09518183  1  -0.061755  -0.002485  3.713244  -0.002  -0.089137  -0.00282  3.964432  -0.002  -0.088093  -0.002272  3.984015  -0.002  -0.055682  -0.005774  -0.076971  -0.089946  -0.004305  3.951613  -0.004
C  C73  1  0.65723807  0.00170523  0.70649699  1  0.146406  0.001724  3.83685  0.001  0.154016  0.000788  4.087813  0.001  0.152923  0.001071  4.112985  0.001  0.316633  0.000566  0.0808  0.154787  0.000702  4.070546  0.001
C  C74  1  0.34276216  0.99829634  0.29350030  1  0.146491  0.001688  3.837104  0.001  0.154088  0.000782  4.088086  0.001  0.152996  0.001101  4.11326  0.001  0.316927  0.000567  0.080888  0.154862  0.000703  4.070812  0.001
C  C75  1  0.88487660  0.90863098  0.32554196  1  -0.061313  -0.000577  3.770249  -0.001  -0.035515  -0.000836  4.000015  -0.001  -0.04471  -0.000205  4.023779  -0.001  -0.007349  -0.002621  -0.017866  -0.029675  -0.001406  3.984524  -0.001
C  C76  1  0.11511950  0.09136696  0.67445607  1  -0.06123  -0.000607  3.770186  -0.001  -0.03548  -0.000833  3.999984  -0.001  -0.044678  -0.000224  4.023756  -0.001  -0.007596  -0.002618  -0.017849  -0.029641  -0.001403  3.984498  -0.001
C  C77  1  0.79532860  0.26259219  0.41791591  1  0.394392  -0.002436  3.79337  -0.003  0.31793  -0.005422  4.078928  -0.005  0.346598  -0.003814  4.08078  -0.004  1.38732  -0.006819  0.186824  0.298494  -0.00706  4.076865  -0.006
C  C78  1  0.20467233  0.73740666  0.58208563  1  0.394675  -0.002433  3.793058  -0.003  0.318275  -0.005416  4.078579  -0.005  0.346946  -0.003815  4.080424  -0.004  1.387374  -0.006821  0.186971  0.298838  -0.007061  4.076516  -0.006
C  C79  1  0.42941359  0.25131376  0.15751286  1  -0.051631  -0.00144  3.706994  -0.001  -0.077592  -0.001537  3.95273  -0.001  -0.077555  -0.001461  3.974298  -0.001  -0.066819  -0.003666  -0.078608  -0.077909  -0.00261  3.938985  -0.002
C  C80  1  0.57058158  0.74867511  0.84248319  1  -0.051597  -0.00133  3.706996  -0.001  -0.077518  -0.00154  3.952706  -0.001  -0.077482  -0.001463  3.974276  -0.001  -0.067028  -0.00367  -0.078538  -0.077838  -0.002613  3.938967  -0.002
C  C81  1  0.93783018  0.81903180  0.31620553  1  -0.059261  -0.001982  3.71591  -0.002  -0.088186  -0.002517  3.962392  -0.002  -0.087513  -0.001988  3.983389  -0.002  -0.049065  -0.004854  -0.081774  -0.088495  -0.003529  3.948358  -0.003
C  C82  1  0.06217525  0.18097158  0.68379547  1  -0.059409  -0.001912  3.716009  -0.002  -0.08827  -0.002519  3.962453  -0.002  -0.087618  -0.00198  3.98344  -0.002  -0.049091  -0.004859  -0.081798  -0.088585  -0.003533  3.948425  -0.003
C  C83  1  0.49987208  0.40556650  0.36973861  1  0.143912  0.001158  3.843833  0.001  0.153704  0.000507  4.092093  0.001  0.15151  0.000739  4.117549  0.001  0.276489  0.000414  0.077612  0.155408  0.0005  4.075106  0.001
C  C84  1  0.50012706  0.59443234  0.63025646  1  0.14405  0.001121  3.843765  0.001  0.153816  0.000507  4.092044  0.001  0.151633  0.000746  4.117483  0.001  0.27644  0.000412  0.07764  0.155508  0.000499  4.075077  0.001
C  C85  1  0.53476097  0.00917794  0.70594403  1  -0.116186  -0.002673  3.718566  -0.002  -0.137263  -0.003282  3.964038  -0.002  -0.139124  -0.002448  3.985675  -0.002  -0.047292  -0.005288  -0.079933  -0.135533  -0.004153  3.949057  -0.003
C  C86  1  0.46524412  0.99083359  0.29405390  1  -0.1161  -0.002667  3.718496  -0.002  -0.137258  -0.003282  3.963931  -0.002  -0.139118  -0.002468  3.985564  -0.002  -0.046889  -0.005286  -0.079868  -0.135528  -0.004151  3.94896  -0.003
C  C87  1  0.55894467  0.30373429  0.20132054  1  -0.083381  0.001396  3.766535  0.001  -0.092846  0.00072  4.014238  0.0  -0.097096  0.001041  4.036512  0.001  -0.003362  0.000551  -0.096592  -0.090073  0.000633  3.999532  0.001
C  C88  1  0.44105193  0.69625367  0.79867374  1  -0.083295  0.0013  3.766531  0.001  -0.092759  0.000725  4.014251  0.0  -0.097007  0.001033  4.036524  0.001  -0.002671  0.00055  -0.096623  -0.089989  0.000632  3.999547  0.001
C  C89  1  0.59453704  0.38107234  0.30737948  1  -0.109292  -0.00127  3.705184  -0.001  -0.13272  -0.001501  3.950033  -0.001  -0.134085  -0.001369  3.971207  -0.001  -0.045198  -0.003376  -0.080881  -0.131845  -0.002605  3.935918  -0.002
C  C90  1  0.40546154  0.61891834  0.69261784  1  -0.109407  -0.001229  3.705119  -0.001  -0.132815  -0.001504  3.949967  -0.001  -0.134188  -0.001364  3.971143  -0.001  -0.045459  -0.00338  -0.080881  -0.131942  -0.002608  3.935849  -0.002
C  C91  1  0.48890317  0.04614628  0.80536305  1  -0.064453  0.002341  3.757371  0.001  -0.074652  0.001316  4.006507  0.001  -0.077925  0.001593  4.027542  0.001  0.004863  0.000921  -0.088274  -0.072611  0.001222  3.99244  0.001
C  C92  1  0.51109922  0.95386073  0.19463465  1  -0.06453  0.002326  3.757086  0.001  -0.074709  0.001317  4.00628  0.001  -0.07798  0.001614  4.027309  0.001  0.005016  0.000922  -0.088381  -0.072671  0.001223  3.992227  0.001
C  C93  1  0.08144027  0.64265191  0.15040997  1  -0.174726  -2.4e-05  3.649891  0.0  -0.27926  -0.000283  3.900251  0.0  -0.275393  -0.000142  3.910277  0.0  0.203245  -0.000616  -0.133652  -0.28158  -0.000438  3.893553  0.0
C  C94  1  0.91856015  0.35735238  0.84959676  1  -0.174619  -2.6e-05  3.649698  0.0  -0.279109  -0.000284  3.900089  0.0  -0.275243  -0.000141  3.910115  0.0  0.203322  -0.000617  -0.133611  -0.281437  -0.000438  3.893397  0.0
C  C95  1  0.83605417  0.44706578  0.56214345  1  -0.174254  0.000265  3.631628  0.0  -0.278484  0.000102  3.884947  0.0  -0.274107  0.000232  3.892773  0.0  0.245355  -0.00041  -0.133819  -0.281205  -4.2e-05  3.879678  0.0
C  C96  1  0.16394050  0.55293306  0.43785474  1  -0.174162  0.000251  3.631697  0.0  -0.278404  0.0001  3.885066  0.0  -0.274017  0.000232  3.892882  0.0  0.245759  -0.00041  -0.133833  -0.281125  -4.2e-05  3.879814  0.0
C  C97  1  0.65983137  0.25381403  0.56856100  1  -0.169661  -0.000411  3.665021  0.0  -0.270364  -0.000638  3.914341  0.0  -0.267363  -0.000456  3.925498  0.0  0.314059  -0.000809  -0.126441  -0.272012  -0.000845  3.90664  0.0
C  C98  1  0.34016633  0.74618118  0.43143406  1  -0.169768  -0.000437  3.665306  0.0  -0.270437  -0.000639  3.914604  0.0  -0.26746  -0.000456  3.925767  0.0  0.314024  -0.000809  -0.126465  -0.272107  -0.000845  3.9069  0.0
C  C99  1  0.08156170  0.43883428  0.11275267  1  0.388258  -0.001891  3.809292  -0.002  0.312422  -0.004402  4.098614  -0.004  0.341241  -0.002939  4.099685  -0.003  1.377884  -0.006241  0.181663  0.292827  -0.006038  4.097317  -0.005
C  C100  1  0.91843244  0.56116547  0.88725938  1  0.388239  -0.001853  3.809053  -0.002  0.312425  -0.004399  4.098337  -0.004  0.341247  -0.002935  4.099405  -0.003  1.377701  -0.006243  0.181692  0.292842  -0.006039  4.09704  -0.005
C  C101  1  0.24834740  0.59175620  0.04356616  1  -0.175459  -0.000361  3.657266  0.0  -0.27607  -0.000607  3.902554  0.0  -0.27301  -0.000418  3.913677  0.0  0.257055  -0.000888  -0.127772  -0.277843  -0.000831  3.894958  0.0
C  C102  1  0.75165407  0.40824174  0.95644162  1  -0.175372  -0.000331  3.657183  0.0  -0.275932  -0.000605  3.902428  0.0  -0.272869  -0.000416  3.913548  0.0  0.256823  -0.000888  -0.127693  -0.277701  -0.00083  3.894841  0.0
C  C103  1  0.82896805  0.88323570  0.50771050  1  0.146359  0.001177  3.814126  0.001  0.15599  0.000641  4.062759  0.001  0.154037  0.000883  4.087962  0.001  0.294875  0.00041  0.085153  0.157245  0.000571  4.045707  0.001
C  C104  1  0.17102733  0.11676042  0.49228793  1  0.146404  0.00115  3.813982  0.001  0.156031  0.000645  4.062621  0.001  0.154078  0.000867  4.087823  0.001  0.294831  0.000411  0.085181  0.157283  0.000573  4.045577  0.001
C  C105  1  0.93832431  0.76343561  0.40294858  1  -0.080799  0.001669  3.782305  0.001  -0.08973  0.000966  4.034128  0.001  -0.094142  0.001179  4.057122  0.001  -0.04432  0.000897  -0.096616  -0.086771  0.001038  4.018429  0.001
C  C106  1  0.06168022  0.23656777  0.59705321  1  -0.080709  0.001527  3.782331  0.001  -0.089586  0.000964  4.034108  0.001  -0.093993  0.001175  4.057099  0.001  -0.044435  0.000898  -0.096597  -0.086631  0.00104  4.018422  0.001
C  C107  1  0.88665052  0.79707145  0.50013608  1  -0.097497  -0.001851  3.670257  -0.002  -0.124791  -0.002432  3.919912  -0.002  -0.125728  -0.001882  3.940207  -0.001  -0.007509  -0.004618  -0.07296  -0.123846  -0.003634  3.906006  -0.003
C  C108  1  0.11335473  0.20293374  0.49986691  1  -0.097587  -0.001789  3.670251  -0.002  -0.12488  -0.002432  3.91989  -0.002  -0.125818  -0.001879  3.940178  -0.001  -0.007509  -0.004622  -0.07298  -0.123936  -0.003637  3.906008  -0.003
N  N109  1  0.54217430  0.48202066  0.47724401  1  -0.159062  -3.6e-05  3.020618  0.0  -0.133855  -0.000749  3.299504  -0.001  -0.132522  -4.5e-05  3.306686  0.0  -0.476683  -0.003965  -0.151982  -0.135907  -0.002936  3.296133  -0.003
N  N110  1  0.45782502  0.51797637  0.52274907  1  -0.158952  -5e-05  3.020608  0.0  -0.133725  -0.000746  3.29948  -0.001  -0.132393  -6.8e-05  3.306659  0.0  -0.514362  -0.003963  -0.151926  -0.135772  -0.002937  3.296112  -0.003
N  N111  1  0.69545744  0.96056287  0.60242306  1  -0.181321  -1.9e-05  3.00026  0.0  -0.156164  -2.5e-05  3.281235  0.0  -0.157045  6.1e-05  3.290039  0.0  -0.479827  -0.000357  -0.155794  -0.155566  -0.000256  3.275309  0.0
N  N112  1  0.30454011  0.03943869  0.39757257  1  -0.181396  1.2e-05  3.000431  0.0  -0.156254  -3e-05  3.281415  0.0  -0.157135  6.4e-05  3.290219  0.0  -0.479617  -0.000356  -0.155846  -0.155655  -0.000255  3.275489  0.0
N  N113  1  0.78040101  0.91526785  0.60860961  1  -0.11193  0.000669  3.000514  0.0  -0.088258  0.000347  3.27994  0.0  -0.087569  0.00052  3.290686  0.0  -0.482886  -0.000249  -0.132369  -0.088732  9.4e-05  3.272937  0.0
N  N114  1  0.21959438  0.08473280  0.39138658  1  -0.111957  0.000638  3.000382  0.0  -0.088279  0.000347  3.27981  0.0  -0.087589  0.00053  3.290554  0.0  -0.483  -0.000247  -0.132414  -0.088759  9.4e-05  3.272818  0.0
N  N115  1  0.76638239  0.31819291  0.51294294  1  -0.090054  -0.002695  3.517591  -0.003  0.013494  -0.004816  3.754149  -0.005  -0.007458  -0.003797  3.780732  -0.004  -1.223772  -0.008078  -0.279035  0.027709  -0.005894  3.735573  -0.006
N  N116  1  0.23361657  0.68180322  0.48705073  1  -0.090233  -0.00269  3.517635  -0.003  0.013325  -0.004817  3.754172  -0.005  -0.00763  -0.003794  3.780755  -0.004  -1.223868  -0.008078  -0.279143  0.027537  -0.005895  3.735613  -0.006
N  N117  1  0.13496596  0.55286416  0.10210989  1  -0.091392  -0.001811  3.504591  -0.002  0.013751  -0.003541  3.740413  -0.004  -0.00657  -0.002736  3.765562  -0.003  -1.229862  -0.006244  -0.282438  0.027396  -0.004439  3.722972  -0.005
N  N118  1  0.86503678  0.44713921  0.89790150  1  -0.09135  -0.001827  3.504823  -0.002  0.013716  -0.003541  3.740695  -0.004  -0.006602  -0.002735  3.765836  -0.003  -1.229405  -0.006242  -0.282537  0.027354  -0.004437  3.723268  -0.005
O  O119  1  0.89469925  0.12507986  0.01385910  1  -0.679172  -0.046571  2.078354  -0.025  -0.613093  -0.06195  2.360576  -0.035  -0.644073  -0.056096  2.342547  -0.031  -1.212903  -0.089906  -0.299862  -0.590262  -0.068228  2.37242  -0.041
O  O120  1  0.10530510  0.87492533  0.98614307  1  -0.679104  -0.046573  2.078377  -0.025  -0.613022  -0.061953  2.360588  -0.035  -0.644009  -0.056092  2.342565  -0.031  -1.21289  -0.089916  -0.299842  -0.590184  -0.06823  2.372429  -0.041
O  O121  1  0.74145370  0.17336741  0.09921768  1  -0.628916  -0.032536  2.004341  -0.024  -0.568755  -0.041201  2.25468  -0.03  -0.599034  -0.035382  2.244642  -0.025  -1.179369  -0.066233  -0.302329  -0.545784  -0.046955  2.26015  -0.036
O  O122  1  0.25855190  0.82663415  0.90078454  1  -0.628909  -0.032527  2.004375  -0.024  -0.568768  -0.041198  2.254701  -0.03  -0.599046  -0.035378  2.244664  -0.025  -1.179418  -0.066214  -0.302314  -0.545789  -0.046944  2.260169  -0.036
O  O123  1  0.98404839  0.40139182  0.16231236  1  -0.535652  -0.023333  2.089772  -0.013  -0.478072  -0.030389  2.354987  -0.017  -0.504722  -0.027716  2.345379  -0.015  -1.187691  -0.047279  -0.288248  -0.458813  -0.032877  2.361035  -0.019
O  O124  1  0.01595953  0.59860883  0.83770016  1  -0.535762  -0.023352  2.089321  -0.013  -0.478165  -0.030384  2.354499  -0.017  -0.504821  -0.027715  2.344894  -0.015  -1.187734  -0.047267  -0.288276  -0.458885  -0.032867  2.36053  -0.019
O  O125  1  0.88367715  0.31476160  0.36456455  1  -0.532585  -0.028599  2.071591  -0.016  -0.467553  -0.035863  2.337102  -0.019  -0.49495  -0.032571  2.325991  -0.017  -1.185295  -0.057367  -0.288852  -0.447493  -0.038984  2.344021  -0.022
O  O126  1  0.11633220  0.68523815  0.63543493  1  -0.532516  -0.028597  2.071472  -0.016  -0.467557  -0.035859  2.337005  -0.019  -0.494952  -0.032567  2.325891  -0.017  -1.185255  -0.057365  -0.288846  -0.447492  -0.038975  2.343929  -0.022
O  O127  1  0.84560598  0.05789158  0.25242364  1  -0.674849  -0.036291  2.062194  -0.024  -0.6087  -0.042758  2.332822  -0.026  -0.641906  -0.03766  2.319032  -0.021  -1.199075  -0.068639  -0.319368  -0.583462  -0.047618  2.341147  -0.03
O  O128  1  0.15440934  0.94212540  0.74758934  1  -0.674688  -0.036279  2.062174  -0.024  -0.608584  -0.042746  2.332765  -0.026  -0.641789  -0.037647  2.31898  -0.021  -1.198978  -0.068618  -0.319276  -0.58333  -0.04759  2.34108  -0.03
O  O129  1  0.95223926  0.94963982  0.15436187  1  -0.63639  -0.032159  2.058767  -0.02  -0.576552  -0.04154  2.326258  -0.026  -0.604773  -0.03684  2.310363  -0.022  -1.200936  -0.063522  -0.296119  -0.556029  -0.046386  2.336577  -0.031
O  O130  1  0.04774699  0.05035812  0.84563436  1  -0.636506  -0.032182  2.058513  -0.02  -0.576694  -0.041545  2.326047  -0.026  -0.604917  -0.03685  2.31015  -0.022  -1.200645  -0.063538  -0.296134  -0.556172  -0.046396  2.336369  -0.031
O  O131  1  0.16731922  0.14804557  0.07762122  1  -0.646486  -0.032062  2.058533  -0.019  -0.58576  -0.03956  2.326662  -0.022  -0.61543  -0.035119  2.31187  -0.018  -1.20249  -0.062545  -0.30678  -0.563734  -0.043959  2.33593  -0.026
O  O132  1  0.83267366  0.85195327  0.92238177  1  -0.646595  -0.032078  2.058297  -0.019  -0.585866  -0.039569  2.326468  -0.022  -0.615523  -0.035127  2.311639  -0.018  -1.202452  -0.062563  -0.306835  -0.563841  -0.04397  2.335741  -0.026
O  O133  1  0.11552436  0.25123852  0.23273368  1  -0.669004  -0.039686  2.068776  -0.025  -0.603192  -0.04749  2.349645  -0.028  -0.63605  -0.041731  2.334257  -0.023  -1.212941  -0.076247  -0.316637  -0.578227  -0.053254  2.358968  -0.033
O  O134  1  0.88447085  0.74876395  0.76726291  1  -0.668948  -0.039689  2.068774  -0.025  -0.603152  -0.047487  2.349686  -0.028  -0.636014  -0.041728  2.334297  -0.023  -1.212894  -0.076239  -0.316567  -0.578172  -0.05324  2.359007  -0.033
