# generated using pymatgen
data_SmH14C14N3O9F4
_symmetry_space_group_name_H-M   'P 1'
_cell_length_a   11.46738205
_cell_length_b   12.36519724
_cell_length_c   20.13833716
_cell_angle_alpha   90.82707587
_cell_angle_beta   106.54491787
_cell_angle_gamma   117.62485237
_symmetry_Int_Tables_number   1
_chemical_formula_structural   SmH14C14N3O9F4
_chemical_formula_sum   'Sm4 H56 C56 N12 O36 F16'
_cell_volume   2388.92881083
_cell_formula_units_Z   4
loop_
 _symmetry_equiv_pos_site_id
 _symmetry_equiv_pos_as_xyz
  1  'x, y, z'
loop_
 _atom_site_type_symbol
 _atom_site_label
 _atom_site_symmetry_multiplicity
 _atom_site_fract_x
 _atom_site_fract_y
 _atom_site_fract_z
 _atom_site_occupancy
 _atom_site_pbe_bader_charge
 _atom_site_pbe_bader_spin_density
 _atom_site_pbe_cm5_charge
 _atom_site_pbe_ddec_charge
 _atom_site_pbe_ddec_spin_density
 _atom_site_pbe_ddec_sum_bond_order
 _atom_site_pbe_magmom
Sm  Sm0  1  0.74487403  0.89226151  0.69407473  1  2.226438  0  1.511843  2.059176  0  2.163599  0
Sm  Sm1  1  0.65857000  0.60769923  0.80592499  1  2.225573  0  1.512047  2.05896  0  2.16329  0
Sm  Sm2  1  0.25512777  0.10773925  0.30592806  1  2.226454  0  1.511858  2.059145  0  2.163646  0
Sm  Sm3  1  0.34143231  0.39230248  0.19407540  1  2.225576  0  1.512066  2.058981  0  2.163289  0
H  H4  1  0.00282175  0.97472138  0.61067764  1  0.083324  0  0.129736  0.052111  0  0.986492  0
H  H5  1  0.91743128  0.52521615  0.88932130  1  0.089044  0  0.129342  0.051533  0  0.986941  0
H  H6  1  0.99717670  0.02527661  0.38932309  1  0.083172  0  0.129755  0.052131  0  0.986519  0
H  H7  1  0.08256768  0.47478278  0.11067853  1  0.089028  0  0.12936  0.051546  0  0.986958  0
H  H8  1  0.03054602  0.26915244  0.66025258  1  0.114197  0  0.11392  0.133122  0  1.012439  0
H  H9  1  0.60117463  0.23079489  0.83976147  1  0.091398  0  0.114272  0.133005  0  1.012465  0
H  H10  1  0.96945487  0.73084833  0.33974808  1  0.114191  0  0.113936  0.133149  0  1.012474  0
H  H11  1  0.39882575  0.76920496  0.16023859  1  0.091388  0  0.114279  0.133007  0  1.012486  0
H  H12  1  0.06740879  0.31937387  0.58202938  1  0.07204  0  0.10868  0.127469  0  0.975746  0
H  H13  1  0.66599626  0.18060093  0.91797795  1  0.065749  0  0.108638  0.127415  0  0.97602  0
H  H14  1  0.93259028  0.68062691  0.41796998  1  0.072071  0  0.10869  0.127474  0  0.97575  0
H  H15  1  0.33400270  0.81939799  0.08202138  1  0.06573  0  0.108647  0.127421  0  0.975985  0
H  H16  1  0.20674593  0.34552257  0.65918864  1  0.091455  0  0.10842  0.129487  0  0.990359  0
H  H17  1  0.70199380  0.15440806  0.84080623  1  0.07472  0  0.108952  0.129498  0  0.990972  0
H  H18  1  0.79325212  0.65447635  0.34081253  1  0.091432  0  0.108425  0.129449  0  0.990399  0
H  H19  1  0.29800749  0.84559179  0.15919398  1  0.074726  0  0.108951  0.129496  0  0.990927  0
H  H20  1  0.13937003  0.06390067  0.54772034  1  0.053841  0  0.110007  0.12137  0  0.996316  0
H  H21  1  0.02779027  0.43609010  0.95230085  1  0.058098  0  0.109733  0.121369  0  0.995686  0
H  H22  1  0.86062802  0.93609825  0.45227934  1  0.053858  0  0.109962  0.121291  0  0.996305  0
H  H23  1  0.97221101  0.56390975  0.04769986  1  0.058105  0  0.109737  0.12135  0  0.995717  0
H  H24  1  0.25674628  0.22619751  0.57258613  1  0.10224  0  0.106287  0.12547  0  1.01975  0
H  H25  1  0.95802082  0.27382909  0.92745731  1  0.077408  0  0.106625  0.125718  0  1.0198  0
H  H26  1  0.74325279  0.77380327  0.42741374  1  0.10224  0  0.106284  0.125447  0  1.019779  0
H  H27  1  0.04197763  0.72616891  0.07254242  1  0.077421  0  0.106635  0.125712  0  1.019808  0
H  H28  1  0.09499783  0.17165019  0.50449008  1  0.066741  0  0.103707  0.117556  0  0.993167  0
H  H29  1  0.91878490  0.32828457  0.99552704  1  0.047493  0  0.103256  0.116603  0  0.992855  0
H  H30  1  0.90500124  0.82835058  0.49551078  1  0.066743  0  0.103708  0.117547  0  0.993161  0
H  H31  1  0.08121628  0.67171342  0.00447413  1  0.047519  0  0.103252  0.116611  0  0.992861  0
H  H32  1  0.49763467  0.98802351  0.67631960  1  0.112771  0  0.124815  0.049304  0  1.016983  0
H  H33  1  0.33330256  0.51194577  0.82370284  1  0.126776  0  0.124803  0.048888  0  1.018373  0
H  H34  1  0.50236702  0.01197541  0.32368066  1  0.11276  0  0.124814  0.049287  0  1.016998  0
H  H35  1  0.66669833  0.48805501  0.17629732  1  0.12677  0  0.1248  0.048866  0  1.018395  0
H  H36  1  0.38198130  0.08373166  0.67840509  1  0.051049  0  0.102559  0.110458  0  1.004065  0
H  H37  1  0.11991471  0.41626351  0.82159647  1  0.043044  0  0.103127  0.110777  0  1.003605  0
H  H38  1  0.61801857  0.91626726  0.32159488  1  0.051057  0  0.102559  0.110468  0  1.004062  0
H  H39  1  0.88008425  0.58373541  0.17840435  1  0.043048  0  0.103106  0.110744  0  1.003599  0
H  H40  1  0.42790825  0.21621456  0.63517385  1  0.089282  0  0.10401  0.126884  0  1.032999  0
H  H41  1  0.07647561  0.28380107  0.86481268  1  0.087019  0  0.103392  0.125856  0  1.034014  0
H  H42  1  0.57209395  0.78378529  0.36482601  1  0.089692  0  0.104005  0.126898  0  1.032986  0
H  H43  1  0.92352477  0.71619878  0.13518739  1  0.087018  0  0.103404  0.125849  0  1.034  0
H  H44  1  0.48557145  0.23805168  0.72856294  1  0.07968  0  0.109889  0.128906  0  1.003483  0
H  H45  1  0.01896979  0.26195735  0.77144590  1  0.080155  0  0.110109  0.128832  0  1.003955  0
H  H46  1  0.51442984  0.76194817  0.27143727  1  0.079666  0  0.109885  0.128912  0  1.003497  0
H  H47  1  0.98102866  0.73804065  0.22855383  1  0.080191  0  0.110099  0.128792  0  1.003927  0
H  H48  1  0.80021490  0.28439993  0.69234441  1  0.102911  0  0.107811  0.126876  0  1.005942  0
H  H49  1  0.32344605  0.21559572  0.80764888  1  0.081203  0  0.107124  0.125378  0  1.006833  0
H  H50  1  0.19978679  0.71559900  0.30765536  1  0.102916  0  0.107791  0.12683  0  1.005971  0
H  H51  1  0.67655433  0.78440413  0.19235068  1  0.08118  0  0.107133  0.125394  0  1.006821  0
H  H52  1  0.72062743  0.36586548  0.71849643  1  0.086335  0  0.107417  0.126505  0  1.028343  0
H  H53  1  0.13615853  0.13408965  0.78145270  1  0.105313  0  0.107581  0.126202  0  1.028395  0
H  H54  1  0.27937204  0.63413436  0.28150349  1  0.086313  0  0.107429  0.126562  0  1.028299  0
H  H55  1  0.86384003  0.86591019  0.21854806  1  0.10532  0  0.107589  0.126204  0  1.02841  0
H  H56  1  0.68619665  0.32072347  0.62745317  1  0.100324  0  0.105749  0.129747  0  0.991236  0
H  H57  1  0.23798925  0.17922023  0.87250865  1  0.100548  0  0.105781  0.129701  0  0.991439  0
H  H58  1  0.31380504  0.67927545  0.37254709  1  0.100312  0  0.10572  0.12971  0  0.991264  0
H  H59  1  0.76200971  0.82077869  0.12749167  1  0.100562  0  0.105749  0.129673  0  0.99149  0
C  C60  1  0.46010995  0.74998083  0.74999569  1  1.689276  0  0.24488  0.69555  0  4.131351  0
C  C61  1  0.53989043  0.25001902  0.25000438  1  1.68927  0  0.244826  0.695509  0  4.131339  0
C  C62  1  0.32815494  0.74997199  0.75001125  1  0.097189  0  -0.022698  -0.206371  0  3.997691  0
C  C63  1  0.67184544  0.25002787  0.24998733  1  0.097142  0  -0.022711  -0.206394  0  3.997563  0
C  C64  1  0.33033268  0.85643328  0.77596887  1  0.497599  0  0.089477  0.146874  0  4.103959  0
C  C65  1  0.19790882  0.64351500  0.72402771  1  0.502908  0  0.089512  0.147143  0  4.103428  0
C  C66  1  0.66966860  0.14356657  0.22403034  1  0.497596  0  0.089473  0.146906  0  4.103913  0
C  C67  1  0.80209076  0.35648670  0.27597324  1  0.503067  0  0.089532  0.147122  0  4.103445  0
C  C68  1  0.20881668  0.85681458  0.77540784  1  0.524158  0  0.091947  0.153402  0  4.100082  0
C  C69  1  0.07655162  0.64313761  0.72454179  1  0.51606  0  0.090687  0.152286  0  4.100093  0
C  C70  1  0.79118268  0.14318341  0.22459155  1  0.524752  0  0.09194  0.153356  0  4.100142  0
C  C71  1  0.92344562  0.35686318  0.27545530  1  0.515962  0  0.090705  0.152342  0  4.09999  0
C  C72  1  0.07882003  0.74995911  0.74999154  1  0.136463  0  -0.023422  -0.204134  0  3.987795  0
C  C73  1  0.92117853  0.25004075  0.25000675  1  0.136517  0  -0.023453  -0.204114  0  3.987705  0
C  C74  1  0.94657896  0.74990202  0.75000267  1  1.665726  0  0.23569  0.689514  0  4.151941  0
C  C75  1  0.05342142  0.25009782  0.24999839  1  1.66486  0  0.235703  0.689494  0  4.1517  0
C  C76  1  0.56608051  0.55669800  0.65183078  1  1.636083  0  0.226274  0.664929  0  4.166235  0
C  C77  1  0.85757431  0.94325159  0.84815654  1  1.662571  0  0.227499  0.66664  0  4.16361  0
C  C78  1  0.43391755  0.44330092  0.34816940  1  1.635968  0  0.226223  0.664934  0  4.166137  0
C  C79  1  0.14242618  0.05675011  0.15184456  1  1.662652  0  0.227513  0.666578  0  4.163565  0
C  C80  1  0.53193873  0.52836542  0.57351196  1  0.104241  0  -0.01808  -0.199382  0  3.99816  0
C  C81  1  0.93007221  0.97158857  0.92649689  1  0.109903  0  -0.02006  -0.203718  0  4.00039  0
C  C82  1  0.46806124  0.47163536  0.42648705  1  0.104236  0  -0.018056  -0.199501  0  3.998312  0
C  C83  1  0.06992868  0.02841221  0.07350277  1  0.109874  0  -0.020096  -0.203779  0  4.000366  0
C  C84  1  0.63499283  0.54484994  0.54477673  1  0.534775  0  0.096698  0.164018  0  4.082932  0
C  C85  1  0.04538469  0.95507647  0.95521568  1  0.491286  0  0.096645  0.163237  0  4.083511  0
C  C86  1  0.36500584  0.45515177  0.45522308  1  0.534912  0  0.096753  0.164153  0  4.082914  0
C  C87  1  0.95461478  0.04492339  0.04478375  1  0.49133  0  0.096693  0.16329  0  4.083473  0
C  C88  1  0.60322702  0.51659399  0.47253374  1  0.558305  0  0.094851  0.15866  0  4.081212  0
C  C89  1  0.11418122  0.98349782  0.02746998  1  0.569209  0  0.095374  0.161732  0  4.080462  0
C  C90  1  0.39677245  0.48340586  0.52746518  1  0.558322  0  0.094845  0.158605  0  4.081131  0
C  C91  1  0.88581938  0.01650575  0.97252867  1  0.569213  0  0.095393  0.1617  0  4.080437  0
C  C92  1  0.00712337  0.06042834  0.63085308  1  1.399888  0  0.190913  0.328559  0  4.093229  0
C  C93  1  0.81584887  0.43952208  0.86914104  1  1.392671  0  0.189826  0.326612  0  4.087823  0
C  C94  1  0.99287610  0.93957151  0.36914684  1  1.400029  0  0.190906  0.328532  0  4.09318  0
C  C95  1  0.18415009  0.56047684  0.13085829  1  1.392673  0  0.189809  0.326561  0  4.087706  0
C  C96  1  0.09745962  0.28094659  0.62859559  1  0.232463  0  -0.131199  -0.274697  0  3.87927  0
C  C97  1  0.68796012  0.21901221  0.87142071  1  0.273324  0  -0.132029  -0.27517  0  3.880624  0
C  C98  1  0.90254036  0.71905419  0.37140343  1  0.232471  0  -0.131208  -0.274653  0  3.879369  0
C  C99  1  0.31203975  0.78098671  0.12857926  1  0.273357  0  -0.132036  -0.275195  0  3.880547  0
C  C100  1  0.14656057  0.15501248  0.55518639  1  0.255843  0  -0.131683  -0.286956  0  3.936685  0
C  C101  1  0.93638912  0.34498775  0.94485238  1  0.296672  0  -0.130164  -0.285509  0  3.934558  0
C  C102  1  0.85343930  0.84498645  0.44481308  1  0.25585  0  -0.131641  -0.28685  0  3.936658  0
C  C103  1  0.06361126  0.65501210  0.05514818  1  0.296653  0  -0.130156  -0.285485  0  3.934501  0
C  C104  1  0.59391976  0.07129433  0.67733559  1  1.37384  0  0.184186  0.324339  0  4.090321  0
C  C105  1  0.34532548  0.42868429  0.82268057  1  1.364032  0  0.182729  0.321803  0  4.094517  0
C  C106  1  0.40608204  0.92870645  0.32266472  1  1.373714  0  0.184116  0.324337  0  4.090362  0
C  C107  1  0.65467348  0.57131463  0.17731876  1  1.364009  0  0.182712  0.321826  0  4.094648  0
C  C108  1  0.46336204  0.17833484  0.68060792  1  0.263082  0  -0.131372  -0.282785  0  3.896472  0
C  C109  1  0.10445439  0.32166007  0.81939498  1  0.267318  0  -0.130484  -0.281275  0  3.897018  0
C  C110  1  0.53663743  0.82166501  0.31939200  1  0.262679  0  -0.131361  -0.282819  0  3.896496  0
C  C111  1  0.89554457  0.67833886  0.18060434  1  0.267286  0  -0.130462  -0.281158  0  3.89691  0
C  C112  1  0.70669556  0.29426115  0.67963932  1  0.212684  0  -0.13686  -0.276148  0  3.866398  0
C  C113  1  0.23272328  0.20567138  0.82031990  1  0.222879  0  -0.136159  -0.274195  0  3.866455  0
C  C114  1  0.29330624  0.70573963  0.32036148  1  0.212724  0  -0.136869  -0.276161  0  3.866416  0
C  C115  1  0.76727750  0.79432754  0.17968022  1  0.222912  0  -0.136132  -0.27417  0  3.866514  0
N  N116  1  0.08209886  0.16088628  0.60676926  1  -1.216714  0  -0.274638  0.03956  0  3.702733  0
N  N117  1  0.81448007  0.33907037  0.89322137  1  -1.203098  0  -0.275406  0.040618  0  3.699912  0
N  N118  1  0.91790203  0.83911449  0.39323089  1  -1.216737  0  -0.274629  0.039562  0  3.702761  0
N  N119  1  0.18552071  0.66092856  0.10677875  1  -1.203104  0  -0.275412  0.040688  0  3.699783  0
N  N120  1  0.58889258  0.17654603  0.67980400  1  -1.209827  0  -0.271789  0.048507  0  3.707983  0
N  N121  1  0.23256950  0.32342747  0.82021220  1  -1.214923  0  -0.272482  0.048955  0  3.707267  0
N  N122  1  0.41110830  0.82345474  0.32019566  1  -1.20972  0  -0.271685  0.04858  0  3.707937  0
N  N123  1  0.76742946  0.67657146  0.17978763  1  -1.214929  0  -0.272537  0.048854  0  3.707384  0
N  N124  1  0.60069826  0.80771668  0.54158333  1  0.837968  0  0.080768  0.723308  0  4.437097  0
N  N125  1  0.75134503  0.69222577  0.95840171  1  0.841993  0  0.082122  0.725868  0  4.436537  0
N  N126  1  0.39930212  0.19228317  0.45841624  1  0.837977  0  0.080775  0.72327  0  4.4372  0
N  N127  1  0.24865443  0.30777408  0.04159821  1  0.841986  0  0.08212  0.725861  0  4.436592  0
O  O128  1  0.54114327  0.83813086  0.72669456  1  -1.185371  0  -0.376877  -0.640646  0  2.307028  0
O  O129  1  0.47626244  0.66179907  0.77326425  1  -1.178221  0  -0.375481  -0.639366  0  2.307752  0
O  O130  1  0.45885864  0.16187177  0.27330628  1  -1.18535  0  -0.376834  -0.640634  0  2.307002  0
O  O131  1  0.52373845  0.33820170  0.22673690  1  -1.178207  0  -0.375474  -0.63934  0  2.307745  0
O  O132  1  0.92566206  0.83246071  0.72119351  1  -1.179036  0  -0.37718  -0.65035  0  2.255197  0
O  O133  1  0.87192718  0.66730850  0.77880482  1  -1.180731  0  -0.378003  -0.651188  0  2.255633  0
O  O134  1  0.07434054  0.16753821  0.27880690  1  -1.178183  0  -0.377166  -0.650311  0  2.255132  0
O  O135  1  0.12807331  0.33269320  0.22119628  1  -1.180702  0  -0.378045  -0.651248  0  2.255488  0
O  O136  1  0.63366751  0.67018290  0.68154044  1  -1.20842  0  -0.421325  -0.732255  0  2.459259  0
O  O137  1  0.78184211  0.82972360  0.81855016  1  -1.206415  0  -0.421167  -0.732122  0  2.457598  0
O  O138  1  0.36633185  0.32981510  0.31845994  1  -1.208142  0  -0.421321  -0.732226  0  2.459134  0
O  O139  1  0.21815787  0.17027717  0.18144985  1  -1.20646  0  -0.421111  -0.731994  0  2.457566  0
O  O140  1  0.53025662  0.46894699  0.68583233  1  -1.163893  0  -0.336423  -0.577187  0  2.13286  0
O  O141  1  0.87540991  0.03090248  0.81406644  1  -1.166101  0  -0.337642  -0.578031  0  2.131998  0
O  O142  1  0.46973911  0.53105100  0.31416696  1  -1.164079  0  -0.336406  -0.577182  0  2.132811  0
O  O143  1  0.12459098  0.96909830  0.18593371  1  -1.166134  0  -0.337618  -0.577987  0  2.132022  0
O  O144  1  0.94558672  0.06076420  0.67330664  1  -1.176131  0  -0.367856  -0.552862  0  2.397207  0
O  O145  1  0.71149095  0.43919777  0.82671855  1  -1.183462  0  -0.366976  -0.551302  0  2.392374  0
O  O146  1  0.05441286  0.93923750  0.32669331  1  -1.176117  0  -0.367879  -0.552862  0  2.397155  0
O  O147  1  0.28851073  0.56080115  0.17328172  1  -1.183486  0  -0.367012  -0.551344  0  2.392277  0
O  O148  1  0.69996540  0.06403189  0.67737521  1  -1.176646  0  -0.38464  -0.566928  0  2.341724  0
O  O149  1  0.45858789  0.43596552  0.82261081  1  -1.178462  0  -0.383488  -0.564889  0  2.344057  0
O  O150  1  0.30003589  0.93596796  0.32262550  1  -1.176631  0  -0.38462  -0.566932  0  2.341753  0
O  O151  1  0.54141107  0.56403341  0.17738901  1  -1.17846  0  -0.383431  -0.564838  0  2.344141  0
O  O152  1  0.53737564  0.81426958  0.58324743  1  -0.556143  0  -0.239276  -0.507491  0  1.978851  0
O  O153  1  0.63987218  0.68578021  0.91672392  1  -0.557797  0  -0.240509  -0.509098  0  1.977717  0
O  O154  1  0.46262485  0.18573212  0.41675317  1  -0.55615  0  -0.239265  -0.507453  0  1.978963  0
O  O155  1  0.36012830  0.31422150  0.08327618  1  -0.557785  0  -0.240521  -0.509118  0  1.977738  0
O  O156  1  0.54167428  0.77161944  0.47757895  1  -0.495931  0  -0.14916  -0.382678  0  1.971629  0
O  O157  1  0.79241644  0.72831068  0.02240571  1  -0.493982  0  -0.149003  -0.383117  0  1.971642  0
O  O158  1  0.45832468  0.22837948  0.52242137  1  -0.495939  0  -0.149178  -0.382678  0  1.971633  0
O  O159  1  0.20758212  0.27168917  0.97759456  1  -0.493973  0  -0.149003  -0.383124  0  1.971783  0
O  O160  1  0.73126750  0.84046074  0.57045371  1  -0.601036  0  -0.259153  -0.555662  0  2.012705  0
O  O161  1  0.82028990  0.65944103  0.92954674  1  -0.605784  0  -0.259483  -0.556023  0  2.01314  0
O  O162  1  0.26873105  0.15953911  0.42954556  1  -0.601074  0  -0.259175  -0.555664  0  2.012703  0
O  O163  1  0.17970815  0.34055789  0.07045294  1  -0.605802  0  -0.259462  -0.555991  0  2.013063  0
F  F164  1  0.45314090  0.96275997  0.80407109  1  -0.627521  0  -0.078278  -0.103745  0  1.417196  0
F  F165  1  0.18626272  0.53718141  0.69592409  1  -0.621516  0  -0.078034  -0.103675  0  1.416952  0
F  F166  1  0.54685948  0.03723988  0.19592947  1  -0.627527  0  -0.078282  -0.103762  0  1.41719  0
F  F167  1  0.81373827  0.46282122  0.30407561  1  -0.621561  0  -0.078051  -0.103666  0  1.416984  0
F  F168  1  0.22031097  0.96382028  0.80191464  1  -0.617947  0  -0.077791  -0.099779  0  1.428165  0
F  F169  1  0.95454403  0.53610887  0.69808398  1  -0.622288  0  -0.077781  -0.099464  0  1.428091  0
F  F170  1  0.77968838  0.03617772  0.19808475  1  -0.618591  0  -0.077754  -0.09975  0  1.428216  0
F  F171  1  0.04545533  0.46388912  0.30191639  1  -0.622258  0  -0.077759  -0.099475  0  1.427997  0
F  F172  1  0.76765504  0.58682778  0.58746466  1  -0.619862  0  -0.081767  -0.10425  0  1.384597  0
F  F173  1  0.09337488  0.91312861  0.91251189  1  -0.62143  0  -0.081171  -0.103394  0  1.384395  0
F  F174  1  0.23234352  0.41317207  0.41253461  1  -0.619898  0  -0.081789  -0.104288  0  1.384617  0
F  F175  1  0.90662640  0.08687124  0.08748782  1  -0.621414  0  -0.081184  -0.103391  0  1.384399  0
F  F176  1  0.70603085  0.53178147  0.44681501  1  -0.625816  0  -0.081797  -0.110447  0  1.382722  0
F  F177  1  0.22741275  0.96816579  0.05319855  1  -0.622161  0  -0.080998  -0.110025  0  1.383953  0
F  F178  1  0.29396901  0.46821746  0.55318446  1  -0.625759  0  -0.081791  -0.110435  0  1.382708  0
F  F179  1  0.77258541  0.03183499  0.94680166  1  -0.622194  0  -0.081016  -0.110008  0  1.383943  0
