# generated using pymatgen
data_Zr3H20C42(Cl3O8)2
_symmetry_space_group_name_H-M   'P 1'
_cell_length_a   19.25015681
_cell_length_b   19.25020945
_cell_length_c   19.25017931
_cell_angle_alpha   59.99987482
_cell_angle_beta   60.00000923
_cell_angle_gamma   60.00002155
_symmetry_Int_Tables_number   1
_chemical_formula_structural   Zr3H20C42(Cl3O8)2
_chemical_formula_sum   'Zr6 H40 C84 Cl12 O32'
_cell_volume   5044.16404830
_cell_formula_units_Z   2
loop_
 _symmetry_equiv_pos_site_id
 _symmetry_equiv_pos_as_xyz
  1  'x, y, z'
loop_
 _atom_site_type_symbol
 _atom_site_label
 _atom_site_symmetry_multiplicity
 _atom_site_fract_x
 _atom_site_fract_y
 _atom_site_fract_z
 _atom_site_occupancy
 _atom_site_pbe_bader_charge
 _atom_site_pbe_bader_spin_density
 _atom_site_pbe_cm5_charge
 _atom_site_pbe_ddec_charge
 _atom_site_pbe_ddec_spin_density
 _atom_site_pbe_ddec_sum_bond_order
 _atom_site_pbe_magmom
Zr  Zr0  1  0.90813088  0.40813123  0.59186802  1  2.633771  0  1.626483  2.372962  0  2.755184  0
Zr  Zr1  1  0.09186511  0.59186629  0.40813437  1  2.637961  0  1.626436  2.372894  0  2.755184  0
Zr  Zr2  1  0.09186841  0.40812790  0.59187218  1  2.6379  0  1.626459  2.372887  0  2.755055  0
Zr  Zr3  1  0.90812737  0.59186941  0.40813001  1  2.633949  0  1.626473  2.372921  0  2.755066  0
Zr  Zr4  1  0.90813576  0.59186159  0.59186291  1  2.637887  0  1.626505  2.372988  0  2.755186  0
Zr  Zr5  1  0.09186118  0.40813687  0.40813952  1  2.633633  0  1.626498  2.372994  0  2.755097  0
H  H6  1  0.92773072  0.42773365  0.71680034  1  0.589419  0  0.331472  0.422763  0  0.857753  0
H  H7  1  0.92773114  0.71679947  0.42773574  1  0.620328  0  0.33147  0.422777  0  0.857805  0
H  H8  1  0.21680046  0.42773127  0.42773355  1  0.589435  0  0.331477  0.422789  0  0.857733  0
H  H9  1  0.92773448  0.42773112  0.42773353  1  0.617729  0  0.331484  0.422801  0  0.857609  0
H  H10  1  0.31806064  0.61287432  0.17990331  1  0.103856  0  0.109209  0.126193  0  0.999948  0
H  H11  1  0.67989868  0.38916233  0.81806325  1  0.114859  0  0.109238  0.12626  0  0.999908  0
H  H12  1  0.67751526  0.61150544  0.82070888  1  0.093603  0  0.111113  0.117828  0  0.98455  0
H  H13  1  0.55331731  0.60772181  0.94761190  1  0.121848  0  0.083496  0.091427  0  1.12172  0
H  H14  1  0.32070732  0.39026669  0.17751979  1  0.089149  0  0.11118  0.117969  0  0.984595  0
H  H15  1  0.44760982  0.39134504  0.05332018  1  0.149963  0  0.083526  0.091505  0  1.121662  0
H  H16  1  0.11287076  0.81806411  0.38915922  1  0.106447  0  0.109237  0.126226  0  0.999904  0
H  H17  1  0.88915899  0.17990278  0.61287280  1  0.15073  0  0.109227  0.126212  0  0.999941  0
H  H18  1  0.11150383  0.17751561  0.39026892  1  0.095094  0  0.111143  0.117893  0  0.984524  0
H  H19  1  0.10772288  0.05331645  0.39134773  1  0.116472  0  0.083509  0.091443  0  1.121687  0
H  H20  1  0.89026712  0.82070780  0.61150643  1  0.118342  0  0.111158  0.117926  0  0.984539  0
H  H21  1  0.89134638  0.94760886  0.60772664  1  0.118347  0  0.083536  0.091526  0  1.121652  0
H  H22  1  0.31805781  0.17990168  0.38916661  1  0.114997  0  0.109206  0.126159  0  0.999928  0
H  H23  1  0.67990071  0.81805629  0.61287499  1  0.103484  0  0.10922  0.126192  0  0.999963  0
H  H24  1  0.67751203  0.82070935  0.39026910  1  0.089244  0  0.111141  0.117899  0  0.984479  0
H  H25  1  0.55331429  0.94761251  0.39134639  1  0.150134  0  0.083521  0.091481  0  1.12169  0
H  H26  1  0.32070854  0.17751170  0.61151140  1  0.094024  0  0.111165  0.117955  0  0.98449  0
H  H27  1  0.44761204  0.05331431  0.60772781  1  0.121711  0  0.083515  0.091492  0  1.121674  0
H  H28  1  0.88916337  0.61287453  0.81805780  1  0.106485  0  0.109227  0.126199  0  0.999971  0
H  H29  1  0.11287283  0.38916631  0.17990145  1  0.150713  0  0.109209  0.126154  0  0.99997  0
H  H30  1  0.89026474  0.61150640  0.17751634  1  0.095075  0  0.111192  0.117968  0  0.984583  0
H  H31  1  0.89134185  0.60772581  0.05331778  1  0.116364  0  0.083507  0.091461  0  1.121716  0
H  H32  1  0.11150244  0.39026541  0.82071374  1  0.118062  0  0.111172  0.117933  0  0.984552  0
H  H33  1  0.10772208  0.39134483  0.94761404  1  0.11836  0  0.083514  0.09148  0  1.121686  0
H  H34  1  0.88915990  0.81806129  0.17990549  1  0.114829  0  0.109207  0.126191  0  0.999968  0
H  H35  1  0.11287208  0.17989953  0.81806490  1  0.103835  0  0.109219  0.126199  0  0.999932  0
H  H36  1  0.89026651  0.17751560  0.82070987  1  0.089271  0  0.111154  0.117892  0  0.984515  0
H  H37  1  0.89134357  0.05331692  0.94761269  1  0.150015  0  0.083531  0.091523  0  1.121744  0
H  H38  1  0.11150544  0.82070777  0.17751821  1  0.094237  0  0.111142  0.117893  0  0.98451  0
H  H39  1  0.10772153  0.94761046  0.05331773  1  0.121588  0  0.083535  0.091466  0  1.121698  0
H  H40  1  0.31805852  0.38916133  0.61287617  1  0.106799  0  0.10922  0.126198  0  0.999981  0
H  H41  1  0.67990052  0.61287087  0.38916124  1  0.15084  0  0.10922  0.126207  0  0.999893  0
H  H42  1  0.67751673  0.39026468  0.61150727  1  0.095047  0  0.111165  0.117912  0  0.984506  0
H  H43  1  0.55331610  0.39134317  0.60772784  1  0.116328  0  0.083534  0.091497  0  1.121747  0
H  H44  1  0.32070616  0.61150566  0.39027111  1  0.118279  0  0.111175  0.117937  0  0.984518  0
H  H45  1  0.44760819  0.60772188  0.39135112  1  0.118461  0  0.083538  0.091435  0  1.12174  0
C  C46  1  0.76452447  0.50125462  0.73138855  1  1.53797  0  0.237543  0.64136  0  4.097249  0
C  C47  1  0.00282836  0.73138890  0.50125504  1  1.549214  0  0.237555  0.64131  0  4.097472  0
C  C48  1  0.23138871  0.50282937  0.26452627  1  1.538224  0  0.237496  0.641219  0  4.097361  0
C  C49  1  0.00125533  0.26452303  0.50283129  1  1.553904  0  0.237544  0.641369  0  4.097228  0
C  C50  1  0.00283113  0.26451884  0.73139112  1  1.538887  0  0.237572  0.64141  0  4.097249  0
C  C51  1  0.76451909  0.50283026  0.50125768  1  1.553905  0  0.237565  0.641397  0  4.097415  0
C  C52  1  0.00125593  0.73138714  0.26452230  1  1.537853  0  0.237565  0.641329  0  4.097304  0
C  C53  1  0.23138636  0.50125635  0.50283518  1  1.549107  0  0.237579  0.641366  0  4.097333  0
C  C54  1  0.00125303  0.50282969  0.73139042  1  1.549191  0  0.237555  0.641332  0  4.09743  0
C  C55  1  0.23138693  0.26452121  0.50125859  1  1.538358  0  0.237601  0.641374  0  4.097412  0
C  C56  1  0.00283141  0.50125540  0.26452453  1  1.553926  0  0.237576  0.641393  0  4.097341  0
C  C57  1  0.76452194  0.73138608  0.50283214  1  1.538247  0  0.237647  0.641431  0  4.097381  0
C  C58  1  0.30943029  0.50219332  0.18778633  1  0.000763  0  -0.016172  -0.023519  0  3.995261  0
C  C59  1  0.68778462  0.50058981  0.80942997  1  -0.050295  0  -0.016119  -0.023526  0  3.995249  0
C  C60  1  0.34678931  0.56392599  0.15152120  1  0.062733  0  -0.089005  -0.15634  0  3.973239  0
C  C61  1  0.42006059  0.56498192  0.07981215  1  -0.002844  0  0.021508  0.106609  0  3.921992  0
C  C62  1  0.65151792  0.43776248  0.84678983  1  0.074352  0  -0.089008  -0.156421  0  3.973225  0
C  C63  1  0.57981024  0.43514291  0.92006085  1  -0.012218  0  0.021462  0.10665  0  3.922103  0
C  C64  1  0.65058135  0.56170642  0.84790790  1  0.008576  0  -0.082071  -0.08198  0  3.986712  0
C  C65  1  0.57947548  0.55877126  0.92060132  1  -0.03207  0  -0.096423  -0.124189  0  3.983608  0
C  C66  1  0.34790725  0.43979979  0.15058534  1  -0.0187  0  -0.082085  -0.082104  0  3.986904  0
C  C67  1  0.42060008  0.44114686  0.07947853  1  -0.04052  0  -0.096524  -0.124344  0  3.983703  0
C  C68  1  0.46134899  0.50246790  0.03903586  1  -0.001929  0  0.001478  0.030709  0  3.883791  0
C  C69  1  0.53903404  0.49714264  0.96135076  1  -0.003283  0  0.001478  0.03065  0  3.883938  0
C  C70  1  0.00219201  0.80943210  0.50058765  1  0.049277  0  -0.016145  -0.023548  0  3.995291  0
C  C71  1  0.00058851  0.18778549  0.50219256  1  0.000727  0  -0.016084  -0.023496  0  3.995222  0
C  C72  1  0.06392268  0.84679412  0.43775855  1  0.010832  0  -0.08903  -0.156337  0  3.973218  0
C  C73  1  0.06497788  0.92006555  0.43514076  1  0.024509  0  0.021511  0.106583  0  3.922198  0
C  C74  1  0.93775981  0.15152161  0.56392515  1  -0.029226  0  -0.089008  -0.156356  0  3.973253  0
C  C75  1  0.93513885  0.07981374  0.56498256  1  -0.010832  0  0.021484  0.106657  0  3.922018  0
C  C76  1  0.06170466  0.15058171  0.43980078  1  0.03967  0  -0.082064  -0.082025  0  3.986613  0
C  C77  1  0.05877038  0.07947479  0.44114955  1  -0.077895  0  -0.096472  -0.124229  0  3.983476  0
C  C78  1  0.93980058  0.84790794  0.56170491  1  -0.048565  0  -0.082094  -0.082065  0  3.986854  0
C  C79  1  0.94114530  0.92060137  0.55877373  1  -0.067551  0  -0.096507  -0.124335  0  3.983669  0
C  C80  1  0.00246486  0.96135188  0.49714425  1  0.025686  0  0.001471  0.030705  0  3.883904  0
C  C81  1  0.99713975  0.03903658  0.50246922  1  0.012945  0  0.00144  0.030627  0  3.883861  0
C  C82  1  0.30943059  0.18778301  0.50059143  1  -0.050263  0  -0.016127  -0.023498  0  3.99531  0
C  C83  1  0.68778335  0.80942934  0.50219597  1  0.00014  0  -0.016136  -0.023565  0  3.995341  0
C  C84  1  0.34679157  0.15151999  0.43776320  1  0.073955  0  -0.089001  -0.156255  0  3.973285  0
C  C85  1  0.42006528  0.07981436  0.43514170  1  -0.011808  0  0.021518  0.106607  0  3.92207  0
C  C86  1  0.65151949  0.84679051  0.56392642  1  0.063109  0  -0.089033  -0.156341  0  3.973399  0
C  C87  1  0.57981355  0.92006392  0.56498004  1  -0.002737  0  0.021494  0.106617  0  3.922066  0
C  C88  1  0.65058111  0.84790656  0.43980260  1  -0.017847  0  -0.082106  -0.082056  0  3.986688  0
C  C89  1  0.57947494  0.92060053  0.44114891  1  -0.040928  0  -0.096461  -0.124272  0  3.983573  0
C  C90  1  0.34790626  0.15058129  0.56171024  1  0.00823  0  -0.082116  -0.082152  0  3.986764  0
C  C91  1  0.42059966  0.07947559  0.55877644  1  -0.032109  0  -0.096519  -0.124341  0  3.98357  0
C  C92  1  0.46134961  0.03903487  0.49714731  1  0.022427  0  0.00149  0.030734  0  3.883735  0
C  C93  1  0.53903411  0.96134934  0.50246940  1  -0.027534  0  0.001477  0.030732  0  3.88372  0
C  C94  1  0.00058417  0.50219381  0.80943279  1  0.049373  0  -0.016158  -0.023674  0  3.99543  0
C  C95  1  0.00219201  0.50058718  0.18778709  1  -1.9e-05  0  -0.016061  -0.023441  0  3.995165  0
C  C96  1  0.93775998  0.56392706  0.84679076  1  0.010609  0  -0.089003  -0.156253  0  3.973305  0
C  C97  1  0.93514162  0.56498114  0.92006330  1  0.024518  0  0.021511  0.106649  0  3.922077  0
C  C98  1  0.06392420  0.43776175  0.15152007  1  -0.028875  0  -0.08901  -0.156245  0  3.973326  0
C  C99  1  0.06497868  0.43514171  0.07981288  1  -0.01101  0  0.021517  0.106549  0  3.922274  0
C  C100  1  0.93979951  0.56170719  0.15058482  1  0.040205  0  -0.082142  -0.082171  0  3.986791  0
C  C101  1  0.94114516  0.55877468  0.07947791  1  -0.078183  0  -0.096482  -0.124267  0  3.983601  0
C  C102  1  0.06170266  0.43980066  0.84790893  1  -0.048065  0  -0.082082  -0.082037  0  3.986817  0
C  C103  1  0.05877079  0.44114695  0.92060217  1  -0.067913  0  -0.096499  -0.124293  0  3.983608  0
C  C104  1  0.99714452  0.50246773  0.96135087  1  0.025865  0  0.001485  0.030687  0  3.883823  0
C  C105  1  0.00246621  0.49714660  0.03903569  1  0.013293  0  0.001454  0.030719  0  3.883878  0
C  C106  1  0.00058645  0.80943070  0.18778818  1  -0.050201  0  -0.016094  -0.023569  0  3.995285  0
C  C107  1  0.00219027  0.18778413  0.80943544  1  0.000493  0  -0.016136  -0.023598  0  3.995585  0
C  C108  1  0.93775807  0.84679253  0.15152281  1  0.074303  0  -0.088994  -0.156311  0  3.973211  0
C  C109  1  0.93513976  0.92006236  0.07981318  1  -0.012243  0  0.021514  0.10669  0  3.922074  0
C  C110  1  0.06392464  0.15151719  0.84679469  1  0.063  0  -0.088958  -0.156251  0  3.97331  0
C  C111  1  0.06497892  0.07981058  0.92006770  1  -0.002797  0  0.021483  0.106567  0  3.922273  0
C  C112  1  0.93979968  0.15058184  0.84791104  1  -0.018474  0  -0.082077  -0.081985  0  3.986742  0
C  C113  1  0.94114633  0.07947409  0.92060394  1  -0.040639  0  -0.096488  -0.124358  0  3.983591  0
C  C114  1  0.06170517  0.84790742  0.15058546  1  0.007847  0  -0.082111  -0.082035  0  3.986675  0
C  C115  1  0.05877114  0.92059972  0.07947832  1  -0.031782  0  -0.096486  -0.124269  0  3.983588  0
C  C116  1  0.99714095  0.96134984  0.03903872  1  0.022535  0  0.001454  0.030647  0  3.883947  0
C  C117  1  0.00246560  0.03903433  0.96135457  1  -0.027784  0  0.001454  0.030721  0  3.88383  0
C  C118  1  0.30942890  0.50058881  0.50219601  1  0.04884  0  -0.016156  -0.02367  0  3.995466  0
C  C119  1  0.68778299  0.50219129  0.50058948  1  0.000464  0  -0.016083  -0.023591  0  3.995689  0
C  C120  1  0.34678876  0.43776042  0.56392946  1  0.010767  0  -0.088977  -0.156262  0  3.973252  0
C  C121  1  0.42006007  0.43514137  0.56498556  1  0.024595  0  0.021497  0.106643  0  3.922149  0
C  C122  1  0.65151792  0.56392332  0.43776204  1  -0.029363  0  -0.088976  -0.156237  0  3.973274  0
C  C123  1  0.57981021  0.56497873  0.43514213  1  -0.010954  0  0.02144  0.106515  0  3.922197  0
C  C124  1  0.65058122  0.43979918  0.56170769  1  0.04018  0  -0.082085  -0.082025  0  3.986659  0
C  C125  1  0.57947340  0.44114591  0.55877489  1  -0.078077  0  -0.096452  -0.124245  0  3.983564  0
C  C126  1  0.34790537  0.56170604  0.43980365  1  -0.048538  0  -0.082069  -0.081965  0  3.986765  0
C  C127  1  0.42059749  0.55877169  0.44115301  1  -0.067562  0  -0.096539  -0.124281  0  3.983669  0
C  C128  1  0.46134896  0.49714168  0.50247137  1  0.025684  0  0.001445  0.030568  0  3.884022  0
C  C129  1  0.53903379  0.50246546  0.49714591  1  0.01317  0  0.001453  0.030738  0  3.883855  0
Cl  Cl130  1  0.45040560  0.65046798  0.05069213  1  -0.218659  0  4.7e-05  -0.080992  0  1.508406  0
Cl  Cl131  1  0.55069065  0.34843136  0.95040632  1  -0.218771  0  4.5e-05  -0.081029  0  1.508378  0
Cl  Cl132  1  0.15046098  0.95041151  0.34842798  1  -0.207861  0  3.4e-05  -0.081007  0  1.508452  0
Cl  Cl133  1  0.84842634  0.05069550  0.65046721  1  -0.208347  0  6.5e-05  -0.081017  0  1.508312  0
Cl  Cl134  1  0.45040900  0.05070129  0.34842731  1  -0.219004  0  5.8e-05  -0.08101  0  1.508407  0
Cl  Cl135  1  0.55069792  0.95040611  0.65046578  1  -0.218804  0  3.6e-05  -0.081031  0  1.50845  0
Cl  Cl136  1  0.84843102  0.65046720  0.95040449  1  -0.207763  0  2.5e-05  -0.081057  0  1.50848  0
Cl  Cl137  1  0.15046301  0.34843148  0.05069741  1  -0.208246  0  5e-05  -0.081  0  1.508539  0
Cl  Cl138  1  0.84842724  0.95040660  0.05069687  1  -0.218785  0  6.5e-05  -0.081019  0  1.50838  0
Cl  Cl139  1  0.15046259  0.05069356  0.95041227  1  -0.218807  0  5.6e-05  -0.080981  0  1.508494  0
Cl  Cl140  1  0.45040661  0.34842608  0.65046872  1  -0.207862  0  6.8e-05  -0.080998  0  1.508349  0
Cl  Cl141  1  0.55069058  0.65046487  0.34843329  1  -0.208298  0  6.7e-05  -0.08098  0  1.508506  0
O  O142  1  0.79522545  0.44189641  0.70124851  1  -1.181807  0  -0.356242  -0.616081  0  2.275888  0
O  O143  1  0.06162346  0.70124890  0.44189773  1  -1.183151  0  -0.356275  -0.616139  0  2.276082  0
O  O144  1  0.20124772  0.56162654  0.29522723  1  -1.180817  0  -0.356259  -0.616081  0  2.275913  0
O  O145  1  0.94189759  0.29522541  0.56162814  1  -1.182804  0  -0.356278  -0.616144  0  2.2759  0
O  O146  1  0.06162806  0.29521928  0.70125103  1  -1.181362  0  -0.356309  -0.616159  0  2.275907  0
O  O147  1  0.79522030  0.56162674  0.44189986  1  -1.182616  0  -0.356305  -0.616184  0  2.275922  0
O  O148  1  0.94189699  0.70124763  0.29522443  1  -1.181782  0  -0.356245  -0.616048  0  2.275974  0
O  O149  1  0.20124616  0.44189779  0.56163103  1  -1.183259  0  -0.356233  -0.616055  0  2.275975  0
O  O150  1  0.94190040  0.56162439  0.70124955  1  -1.183146  0  -0.356231  -0.616107  0  2.276207  0
O  O151  1  0.20124812  0.29522148  0.44190416  1  -1.182302  0  -0.356231  -0.616127  0  2.276201  0
O  O152  1  0.06162435  0.44190186  0.29522388  1  -1.182733  0  -0.356234  -0.61615  0  2.276203  0
O  O153  1  0.79522201  0.70124810  0.56162544  1  -1.180775  0  -0.356243  -0.61616  0  2.276243  0
O  O154  1  0.20121531  0.29461788  0.56042795  1  -1.177694  0  -0.353158  -0.618454  0  2.275694  0
O  O155  1  0.94373481  0.56042438  0.29462097  1  -1.189474  0  -0.353148  -0.618444  0  2.275614  0
O  O156  1  0.79461845  0.70121533  0.44373754  1  -1.177643  0  -0.353162  -0.618425  0  2.275664  0
O  O157  1  0.06042043  0.44373550  0.70121945  1  -1.183599  0  -0.353127  -0.618356  0  2.275586  0
O  O158  1  0.94373894  0.29461540  0.70121882  1  -1.177595  0  -0.353081  -0.618428  0  2.275671  0
O  O159  1  0.20121403  0.56042560  0.44374410  1  -1.183389  0  -0.353123  -0.618431  0  2.275679  0
O  O160  1  0.06042494  0.70121451  0.29461604  1  -1.177757  0  -0.353136  -0.618424  0  2.275687  0
O  O161  1  0.79461625  0.44373856  0.56042464  1  -1.189422  0  -0.353091  -0.618427  0  2.275776  0
O  O162  1  0.06042129  0.29461910  0.44374164  1  -1.189389  0  -0.353057  -0.618412  0  2.275716  0
O  O163  1  0.79462133  0.56042014  0.70121552  1  -1.17776  0  -0.353082  -0.618405  0  2.275778  0
O  O164  1  0.94373702  0.70121767  0.56042203  1  -1.183483  0  -0.353036  -0.618291  0  2.275703  0
O  O165  1  0.20121743  0.44373800  0.29462448  1  -1.177403  0  -0.353016  -0.618267  0  2.275715  0
O  O166  1  0.94828979  0.44828729  0.44829196  1  -1.247728  0  -0.694912  -1.070654  0  2.365618  0
O  O167  1  0.15512985  0.44828847  0.44829043  1  -1.219763  0  -0.694903  -1.07071  0  2.365794  0
O  O168  1  0.94828761  0.65512926  0.44829250  1  -1.250806  0  -0.694921  -1.070711  0  2.36587  0
O  O169  1  0.94828687  0.44828990  0.65513024  1  -1.2198  0  -0.694913  -1.07067  0  2.365828  0
O  O170  1  0.03819300  0.53819818  0.53820052  1  -1.197912  0  -0.790517  -1.149094  0  2.121901  0
O  O171  1  0.88540578  0.53819620  0.53819930  1  -1.193751  0  -0.790524  -1.149091  0  2.121884  0
O  O172  1  0.03819742  0.53819481  0.38540754  1  -1.193987  0  -0.790551  -1.149185  0  2.122019  0
O  O173  1  0.03819525  0.38540547  0.53819854  1  -1.193621  0  -0.790518  -1.149011  0  2.121753  0
