# generated using pymatgen
data_KHC14(O2F5)2
_symmetry_space_group_name_H-M   'P 1'
_cell_length_a   6.59482384
_cell_length_b   7.39389124
_cell_length_c   16.00738167
_cell_angle_alpha   97.27306963
_cell_angle_beta   92.32375043
_cell_angle_gamma   103.58100965
_symmetry_Int_Tables_number   1
_chemical_formula_structural   KHC14(O2F5)2
_chemical_formula_sum   'K2 H2 C28 O8 F20'
_cell_volume   750.61156240
_cell_formula_units_Z   2
loop_
 _symmetry_equiv_pos_site_id
 _symmetry_equiv_pos_as_xyz
  1  'x, y, z'
loop_
 _atom_site_type_symbol
 _atom_site_label
 _atom_site_symmetry_multiplicity
 _atom_site_fract_x
 _atom_site_fract_y
 _atom_site_fract_z
 _atom_site_occupancy
 _atom_site_hle17_bader_spin_density
 _atom_site_hle17_ddec_charge
 _atom_site_hle17_ddec_spin_density
 _atom_site_hle17_ddec_sum_bond_order
 _atom_site_hle17_magmom
 _atom_site_hse06_10hf_bader_spin_density
 _atom_site_hse06_10hf_ddec_charge
 _atom_site_hse06_10hf_ddec_spin_density
 _atom_site_hse06_10hf_ddec_sum_bond_order
 _atom_site_hse06_10hf_magmom
 _atom_site_hse06_bader_spin_density
 _atom_site_hse06_ddec_charge
 _atom_site_hse06_ddec_spin_density
 _atom_site_hse06_ddec_sum_bond_order
 _atom_site_hse06_magmom
 _atom_site_pbe_bader_spin_density
 _atom_site_pbe_cm5_charge
 _atom_site_pbe_ddec_charge
 _atom_site_pbe_ddec_spin_density
 _atom_site_pbe_ddec_sum_bond_order
 _atom_site_pbe_magmom
K  K0  1  0.71217716  0.31231627  0.50147070  1  0  0.952672  0  0.406347  0  0  0.912905  0  0.572753  0  0  0.925587  0  0.551047  0  0  0.751932  0.903146  0  0.588405  0
K  K1  1  0.28782216  0.68766555  0.49853268  1  0  0.95266  0  0.406381  0  0  0.912908  0  0.572776  0  0  0.92557  0  0.551099  0  0  0.751958  0.90315  0  0.588427  0
H  H2  1  0.74665669  0.84620457  0.44765428  1  0  0.390956  0  0.911469  0  0  0.358873  0  0.992138  0  0  0.373296  0  0.97789  0  0  0.296645  0.348847  0  1.001913  0
H  H3  1  0.25333829  0.15378422  0.55234571  1  0  0.390964  0  0.911509  0  0  0.358848  0  0.992224  0  0  0.373274  0  0.977973  0  0  0.29663  0.348821  0  1.002  0
C  C4  1  0.81944130  0.82137827  0.57984525  1  0  0.725534  0  3.859263  0  0  0.679942  0  4.159761  0  0  0.714693  0  4.147613  0  0  0.222081  0.656323  0  4.167543  0
C  C5  1  0.18057409  0.17862472  0.42015773  1  0  0.725746  0  3.858814  0  0  0.680056  0  4.159485  0  0  0.714807  0  4.147338  0  0  0.222084  0.656438  0  4.167265  0
C  C6  1  0.80935501  0.87747381  0.67340070  1  0  -0.224793  0  3.714526  0  0  -0.236257  0  3.986659  0  0  -0.243508  0  4.000208  0  0  -0.023867  -0.23163  0  3.977911  0
C  C7  1  0.19065231  0.12253331  0.32660054  1  0  -0.224948  0  3.714451  0  0  -0.236468  0  3.986705  0  0  -0.243715  0  4.000252  0  0  -0.023941  -0.231841  0  3.977956  0
C  C8  1  0.78175921  0.05353258  0.70723456  1  0  0.240562  0  3.759974  0  0  0.204523  0  4.066085  0  0  0.216942  0  4.072409  0  0  0.101676  0.195869  0  4.062276  0
C  C9  1  0.21824882  0.94647735  0.29276560  1  0  0.240546  0  3.760076  0  0  0.204523  0  4.066222  0  0  0.216946  0  4.072539  0  0  0.101682  0.195869  0  4.062416  0
C  C10  1  0.77662390  0.10690732  0.79357702  1  0  0.096766  0  3.825908  0  0  0.055645  0  4.144031  0  0  0.060662  0  4.152445  0  0  0.074492  0.051773  0  4.138977  0
C  C11  1  0.22337992  0.89310398  0.20642255  1  0  0.096788  0  3.82629  0  0  0.055593  0  4.144461  0  0  0.06061  0  4.152876  0  0  0.074601  0.05172  0  4.139406  0
C  C12  1  0.79420299  0.98104837  0.84970006  1  0  0.160598  0  3.821343  0  0  0.118966  0  4.13918  0  0  0.129476  0  4.145161  0  0  0.090152  0.111643  0  4.135659  0
C  C13  1  0.20579093  0.01896565  0.15030079  1  0  0.160472  0  3.821974  0  0  0.119026  0  4.139556  0  0  0.129535  0  4.145537  0  0  0.090186  0.111703  0  4.136036  0
C  C14  1  0.81860400  0.80345221  0.81828180  1  0  0.090091  0  3.818375  0  0  0.04803  0  4.139866  0  0  0.052732  0  4.149098  0  0  0.071583  0.044379  0  4.134246  0
C  C15  1  0.18139726  0.19656047  0.18172343  1  0  0.08993  0  3.819113  0  0  0.047908  0  4.140471  0  0  0.052617  0  4.149701  0  0  0.071517  0.044255  0  4.134851  0
C  C16  1  0.82869272  0.75489567  0.73173940  1  0  0.244232  0  3.758934  0  0  0.20367  0  4.069755  0  0  0.215594  0  4.077256  0  0  0.102701  0.195422  0  4.064965  0
C  C17  1  0.17131155  0.24511143  0.26826118  1  0  0.244332  0  3.759075  0  0  0.203828  0  4.069887  0  0  0.215741  0  4.077399  0  0  0.102758  0.195585  0  4.065095  0
C  C18  1  0.66997385  0.64113972  0.35099631  1  0  0.705691  0  3.824775  0  0  0.655017  0  4.131263  0  0  0.691154  0  4.116406  0  0  0.230218  0.630461  0  4.140881  0
C  C19  1  0.33002309  0.35884488  0.64900408  1  0  0.705213  0  3.825051  0  0  0.654469  0  4.131647  0  0  0.690609  0  4.116806  0  0  0.230075  0.629914  0  4.141255  0
C  C20  1  0.69123468  0.58455156  0.25903607  1  0  -0.233533  0  3.733732  0  0  -0.243078  0  4.007897  0  0  -0.251884  0  4.022914  0  0  -0.032122  -0.237334  0  3.997873  0
C  C21  1  0.30876137  0.41544144  0.74096293  1  0  -0.233548  0  3.73376  0  0  -0.242941  0  4.007785  0  0  -0.251747  0  4.022799  0  0  -0.032101  -0.237197  0  3.99776  0
C  C22  1  0.70398003  0.71090231  0.19998269  1  0  0.231334  0  3.791478  0  0  0.190928  0  4.102928  0  0  0.202472  0  4.112514  0  0  0.094728  0.182926  0  4.096906  0
C  C23  1  0.29602623  0.28909499  0.80001670  1  0  0.231387  0  3.791407  0  0  0.191043  0  4.102713  0  0  0.202584  0  4.1123  0  0  0.094787  0.18304  0  4.096689  0
C  C24  1  0.71682737  0.65626431  0.11416531  1  0  0.102501  0  3.815201  0  0  0.060306  0  4.134645  0  0  0.065897  0  4.141728  0  0  0.076271  0.055956  0  4.130597  0
C  C25  1  0.28317012  0.34373432  0.88583342  1  0  0.102252  0  3.815257  0  0  0.060263  0  4.134509  0  0  0.065854  0  4.141591  0  0  0.076271  0.055915  0  4.130458  0
C  C26  1  0.71888920  0.47093046  0.08533303  1  0  0.171067  0  3.799395  0  0  0.130632  0  4.112526  0  0  0.14205  0  4.117149  0  0  0.09578  0.122655  0  4.110044  0
C  C27  1  0.28111359  0.52907101  0.91466594  1  0  0.171155  0  3.799105  0  0  0.130613  0  4.112572  0  0  0.142031  0  4.117193  0  0  0.095793  0.122635  0  4.110091  0
C  C28  1  0.70569017  0.34140251  0.14228777  1  0  0.101895  0  3.817551  0  0  0.058397  0  4.139603  0  0  0.063942  0  4.146627  0  0  0.075211  0.054255  0  4.13507  0
C  C29  1  0.29431194  0.65859055  0.85771006  1  0  0.102821  0  3.816063  0  0  0.05836  0  4.139543  0  0  0.063902  0  4.146578  0  0  0.075253  0.054217  0  4.135011  0
C  C30  1  0.69204713  0.39876316  0.22776185  1  0  0.228393  0  3.786069  0  0  0.186831  0  4.098797  0  0  0.199059  0  4.108206  0  0  0.096522  0.179095  0  4.092334  0
C  C31  1  0.30794811  0.60122703  0.77223260  1  0  0.228435  0  3.785646  0  0  0.186848  0  4.098615  0  0  0.199052  0  4.108038  0  0  0.096497  0.179112  0  4.092153  0
O  O32  1  0.92341199  0.70568826  0.55565231  1  0  -0.686201  0  1.929921  0  0  -0.656128  0  2.166018  0  0  -0.67714  0  2.153377  0  0  -0.442418  -0.641253  0  2.174219  0
O  O33  1  0.07660676  0.29432177  0.44435175  1  0  -0.686321  0  1.929791  0  0  -0.65621  0  2.165943  0  0  -0.677226  0  2.1533  0  0  -0.442429  -0.641333  0  2.174145  0
O  O34  1  0.71544040  0.89888332  0.53074561  1  0  -0.675563  0  2.003789  0  0  -0.631405  0  2.232269  0  0  -0.65566  0  2.219214  0  0  -0.378288  -0.614434  0  2.240753  0
O  O35  1  0.28456025  0.10110973  0.46925533  1  0  -0.675568  0  2.003635  0  0  -0.631377  0  2.232201  0  0  -0.655633  0  2.219144  0  0  -0.378254  -0.614409  0  2.240685  0
O  O36  1  0.56596982  0.52862194  0.39372399  1  0  -0.643897  0  1.959046  0  0  -0.618251  0  2.204091  0  0  -0.63829  0  2.192649  0  0  -0.394987  -0.604083  0  2.211448  0
O  O37  1  0.43403578  0.47136694  0.60627489  1  0  -0.643783  0  1.95904  0  0  -0.618081  0  2.204109  0  0  -0.63813  0  2.192679  0  0  -0.395005  -0.603913  0  2.211462  0
O  O38  1  0.76756120  0.81481774  0.37983034  1  0  -0.546664  0  2.081626  0  0  -0.502071  0  2.303738  0  0  -0.524851  0  2.288617  0  0  -0.312197  -0.486332  0  2.313694  0
O  O39  1  0.23242929  0.18516540  0.62016925  1  0  -0.546467  0  2.081767  0  0  -0.501775  0  2.303896  0  0  -0.524539  0  2.288737  0  0  -0.312025  -0.486042  0  2.313861  0
F  F40  1  0.76226106  0.18458244  0.65742830  1  0  -0.176963  0  1.2688  0  0  -0.132513  0  1.450085  0  0  -0.141321  0  1.439392  0  0  -0.108245  -0.126086  0  1.457398  0
F  F41  1  0.23774317  0.81542466  0.34257039  1  0  -0.176874  0  1.268858  0  0  -0.132454  0  1.450142  0  0  -0.141257  0  1.439448  0  0  -0.108211  -0.126028  0  1.457455  0
F  F42  1  0.75444130  0.27959436  0.82340926  1  0  -0.140547  0  1.291489  0  0  -0.095199  0  1.466925  0  0  -0.103573  0  1.459224  0  0  -0.082029  -0.089156  0  1.472307  0
F  F43  1  0.24556129  0.72041833  0.17658724  1  0  -0.140555  0  1.291741  0  0  -0.095172  0  1.467157  0  0  -0.103544  0  1.459456  0  0  -0.082091  -0.089128  0  1.472539  0
F  F44  1  0.78761079  0.03039397  0.93286022  1  0  -0.12028  0  1.26336  0  0  -0.078117  0  1.429504  0  0  -0.084957  0  1.417777  0  0  -0.072944  -0.073134  0  1.437582  0
F  F45  1  0.21236118  0.96961144  0.06713983  1  0  -0.120216  0  1.263405  0  0  -0.078124  0  1.429539  0  0  -0.084965  0  1.417811  0  0  -0.073006  -0.073141  0  1.437617  0
F  F46  1  0.83107683  0.67935927  0.87206112  1  0  -0.136727  0  1.281233  0  0  -0.092926  0  1.45509  0  0  -0.101027  0  1.447108  0  0  -0.082343  -0.087058  0  1.46067  0
F  F47  1  0.16890550  0.32065044  0.12794681  1  0  -0.136653  0  1.281372  0  0  -0.092896  0  1.455209  0  0  -0.100998  0  1.447225  0  0  -0.082319  -0.087028  0  1.460791  0
F  F48  1  0.85318442  0.58075785  0.70643866  1  0  -0.163656  0  1.288254  0  0  -0.112627  0  1.463016  0  0  -0.121571  0  1.453803  0  0  -0.074445  -0.10606  0  1.469124  0
F  F49  1  0.14681987  0.41924925  0.29356254  1  0  -0.163616  0  1.288223  0  0  -0.112651  0  1.46299  0  0  -0.121588  0  1.453776  0  0  -0.074457  -0.106086  0  1.469097  0
F  F50  1  0.69695825  0.89049684  0.22395548  1  0  -0.158039  0  1.302921  0  0  -0.109282  0  1.482481  0  0  -0.118678  0  1.474367  0  0  -0.077402  -0.10237  0  1.487844  0
F  F51  1  0.30305671  0.10950474  0.77604429  1  0  -0.158044  0  1.302745  0  0  -0.10935  0  1.482438  0  0  -0.118751  0  1.474328  0  0  -0.07744  -0.102437  0  1.487801  0
F  F52  1  0.72532948  0.78035566  0.05902218  1  0  -0.119361  0  1.269391  0  0  -0.084384  0  1.445932  0  0  -0.091337  0  1.435388  0  0  -0.078913  -0.079335  0  1.453294  0
F  F53  1  0.27465777  0.21964428  0.94097836  1  0  -0.119161  0  1.26909  0  0  -0.084379  0  1.445858  0  0  -0.091333  0  1.435314  0  0  -0.078929  -0.07933  0  1.453218  0
F  F54  1  0.73263732  0.41718868  0.00295310  1  0  -0.126453  0  1.267594  0  0  -0.0811  0  1.432984  0  0  -0.088815  0  1.421869  0  0  -0.071817  -0.075474  0  1.440631  0
F  F55  1  0.26737073  0.58281564  0.99704423  1  0  -0.126468  0  1.267375  0  0  -0.08107  0  1.432898  0  0  -0.088785  0  1.421783  0  0  -0.071822  -0.075444  0  1.440545  0
F  F56  1  0.70763676  0.16253661  0.11413801  1  0  -0.129744  0  1.290157  0  0  -0.087061  0  1.464718  0  0  -0.094387  0  1.454828  0  0  -0.078749  -0.081679  0  1.471463  0
F  F57  1  0.29236718  0.83745787  0.88585744  1  0  -0.130248  0  1.289918  0  0  -0.087072  0  1.464699  0  0  -0.094399  0  1.454814  0  0  -0.078786  -0.08169  0  1.471445  0
F  F58  1  0.68554224  0.26888428  0.28037806  1  0  -0.16002  0  1.272552  0  0  -0.104245  0  1.441231  0  0  -0.116547  0  1.435913  0  0  -0.069235  -0.097309  0  1.446164  0
F  F59  1  0.31443823  0.73110158  0.71961656  1  0  -0.160089  0  1.272515  0  0  -0.104281  0  1.441301  0  0  -0.116532  0  1.435955  0  0  -0.069264  -0.097346  0  1.446235  0
