# generated using pymatgen
data_Zn2H26C37(N4F)2
_symmetry_space_group_name_H-M   'P 1'
_cell_length_a   15.40971845
_cell_length_b   17.69683989
_cell_length_c   19.12696904
_cell_angle_alpha   106.86683359
_cell_angle_beta   116.17899523
_cell_angle_gamma   96.77233098
_symmetry_Int_Tables_number   1
_chemical_formula_structural   Zn2H26C37(N4F)2
_chemical_formula_sum   'Zn4 H52 C74 N16 F4'
_cell_volume   4291.97061131
_cell_formula_units_Z   2
loop_
 _symmetry_equiv_pos_site_id
 _symmetry_equiv_pos_as_xyz
  1  'x, y, z'
loop_
 _atom_site_type_symbol
 _atom_site_label
 _atom_site_symmetry_multiplicity
 _atom_site_fract_x
 _atom_site_fract_y
 _atom_site_fract_z
 _atom_site_occupancy
 _atom_site_pbe_bader_charge
 _atom_site_pbe_bader_spin_density
 _atom_site_pbe_cm5_charge
 _atom_site_pbe_ddec_charge
 _atom_site_pbe_ddec_spin_density
 _atom_site_pbe_ddec_sum_bond_order
 _atom_site_pbe_magmom
Zn  Zn0  1  0.61472821  0.10440124  0.98651837  1  1.185171  0  0.736797  0.604368  0  2.458665  0
Zn  Zn1  1  0.40354300  0.94767302  0.01540984  1  1.074538  0  0.71427  0.575083  0  2.401573  0
Zn  Zn2  1  0.63898127  0.99637013  0.10637052  1  1.180887  0  0.739829  0.621615  0  2.456319  0
Zn  Zn3  1  0.36929990  0.05640480  0.89960107  1  1.101647  0  0.725539  0.605339  0  2.319892  0
H  H4  1  0.80514970  0.07590596  0.95254277  1  0.095179  0  0.12432  0.112956  0  0.984931  0
H  H5  1  0.32149331  0.83935672  0.58514553  1  0.034411  0  0.094747  0.091382  0  1.013149  0
H  H6  1  0.64458391  0.94429663  0.72932376  1  0.039938  0  0.095487  0.093537  0  1.010807  0
H  H7  1  0.65107652  0.90768468  0.59756276  1  0.032624  0  0.099144  0.098739  0  1.003599  0
H  H8  1  0.60781984  0.79501735  0.44972805  1  0.027613  0  0.096891  0.099279  0  1.012107  0
H  H9  1  0.39438098  0.94448324  0.29585742  1  0.058638  0  0.099784  0.100452  0  1.002528  0
H  H10  1  0.37451212  0.91695684  0.40789535  1  0.065474  0  0.098892  0.099702  0  1.005426  0
H  H11  1  0.15083455  0.44902041  0.62200850  1  0.055872  0  0.101677  0.100653  0  1.003885  0
H  H12  1  0.22784682  0.57733901  0.74689749  1  0.031941  0  0.094794  0.089567  0  1.042282  0
H  H13  1  0.15969089  0.71592259  0.58748674  1  0.045777  0  0.098375  0.096606  0  1.010382  0
H  H14  1  0.08186179  0.58795072  0.46263425  1  0.056766  0  0.101672  0.101646  0  1.005216  0
H  H15  1  0.36315861  0.89942851  0.15269949  1  0.057945  0  0.118007  0.107103  0  1.008697  0
H  H16  1  0.04267923  0.47108886  0.36165931  1  0.097779  0  0.111922  0.138263  0  0.990438  0
H  H17  1  0.67411966  0.84090462  0.01076849  1  0.112802  0  0.112876  0.100201  0  1.031836  0
H  H18  1  0.99526897  0.37088866  0.52809614  1  0.063749  0  0.108531  0.133518  0  1.00144  0
H  H19  1  0.37107056  0.60902055  0.86467140  1  0.03753  0  0.092979  0.091211  0  1.041528  0
H  H20  1  0.69343556  0.71777834  0.01929398  1  0.053599  0  0.099904  0.099522  0  1.00605  0
H  H21  1  0.29829529  0.45976752  0.82179852  1  0.03748  0  0.096437  0.096125  0  1.004983  0
H  H22  1  0.71647279  0.58340964  0.02134627  1  0.056121  0  0.101871  0.101771  0  0.992482  0
H  H23  1  0.32069142  0.32752790  0.83321805  1  0.025052  0  0.09774  0.096246  0  1.008557  0
H  H24  1  0.64261605  0.43718799  0.99038402  1  0.071292  0  0.099467  0.102558  0  1.006158  0
H  H25  1  0.18869604  0.84234790  0.98004528  1  0.062154  0  0.102493  0.106842  0  1.024978  0
H  H26  1  0.73749884  0.13753728  0.28353960  1  0.132725  0  0.115189  0.108388  0  1.012954  0
H  H27  1  0.32128243  0.95273307  0.70047708  1  0.101617  0  0.123338  0.111622  0  0.984108  0
H  H28  1  0.06475807  0.90167091  0.75903262  1  0.096292  0  0.107932  0.116771  0  0.996236  0
H  H29  1  0.94602682  0.96001710  0.79859663  1  0.066137  0  0.10518  0.105006  0  0.983681  0
H  H30  1  0.00356839  0.93170397  0.11720095  1  0.11291  0  0.107941  0.136059  0  0.996852  0
H  H31  1  0.87738327  0.98932204  0.89376483  1  0.039144  0  0.099545  0.101876  0  1.014015  0
H  H32  1  0.35330973  0.74551759  0.90951617  1  0.098598  0  0.11243  0.096416  0  1.049993  0
H  H33  1  0.62991497  0.95632958  0.85492166  1  0.101767  0  0.115279  0.104652  0  1.024554  0
H  H34  1  0.28220213  0.83145486  0.71499472  1  0.083517  0  0.111863  0.096369  0  1.039836  0
H  H35  1  0.64912384  0.28631068  0.95134181  1  0.084104  0  0.119251  0.107326  0  0.992522  0
H  H36  1  0.04123375  0.53855905  0.81617233  1  0.013712  0  0.083554  0.106578  0  1.005246  0
H  H37  1  0.19905632  0.13428578  0.93131884  1  0.045476  0  0.095211  0.076543  0  0.997907  0
H  H38  1  0.01926263  0.61855278  0.88169945  1  0.003975  0  0.086782  0.113243  0  0.998902  0
H  H39  1  0.91913955  0.55322027  0.77922498  1  0.015507  0  0.090519  0.118656  0  0.997913  0
H  H40  1  0.98795221  0.69156358  0.78089488  1  0.045685  0  0.090564  0.083482  0  0.977904  0
H  H41  1  0.00829752  0.61156142  0.71449469  1  0.041529  0  0.090678  0.083197  0  0.976355  0
H  H42  1  0.18319652  0.64048486  0.83298296  1  0.028857  0  0.094699  0.09121  0  1.003789  0
H  H43  1  0.16349136  0.71984023  0.89882739  1  0.04918  0  0.096408  0.094812  0  1.004661  0
H  H44  1  0.67948896  0.75464358  0.18664615  1  -0.020322  0  0.077813  0.09989  0  1.017719  0
H  H45  1  0.70038102  0.68191238  0.23539888  1  -0.000166  0  0.080282  0.10388  0  1.007017  0
H  H46  1  0.59636996  0.65340408  0.13234215  1  0.067044  0  0.084549  0.117155  0  1.012288  0
H  H47  1  0.53305005  0.67951347  0.23477605  1  0.008589  0  0.087442  0.077991  0  0.971431  0
H  H48  1  0.31692131  0.03665494  0.12570632  1  0.089939  0  0.097959  0.085414  0  0.999235  0
H  H49  1  0.51963375  0.75445556  0.19006590  1  0.029919  0  0.083835  0.072479  0  1.008853  0
H  H50  1  0.69166912  0.84679096  0.32166381  1  0.02162  0  0.086759  0.078953  0  1.014395  0
H  H51  1  0.68215003  0.77470632  0.36642825  1  0.008951  0  0.089275  0.085426  0  0.982532  0
H  H52  1  0.72862639  0.27867246  0.13063995  1  0.106113  0  0.113919  0.104767  0  1.018175  0
H  H53  1  0.34232884  0.23491251  0.90466766  1  0.085445  0  0.119996  0.108391  0  0.995979  0
H  H54  1  0.68750518  0.94401287  0.28013356  1  0.091948  0  0.119171  0.107243  0  1.002003  0
H  H55  1  0.32825663  0.80561861  0.45343759  1  0.073282  0  0.10046  0.100113  0  1.00003  0
C  C56  1  0.80214968  0.04818827  0.99549970  1  0.435337  0  0.015777  -0.032009  0  3.996432  0
C  C57  1  0.71835651  0.23333998  0.15624830  1  0.434702  0  0.011024  -0.037968  0  3.939238  0
C  C58  1  0.41774875  0.23450772  0.91576336  1  0.395561  0  0.009081  -0.047102  0  3.978952  0
C  C59  1  0.18135033  0.74692177  0.80370516  1  0.324254  0  0.098113  0.100774  0  3.890931  0
C  C60  1  0.60840169  0.93531645  0.23799154  1  0.408239  0  0.011966  -0.046316  0  3.967785  0
C  C61  1  0.49281082  0.29491591  0.92326285  1  0.049274  0  -0.036148  -0.040551  0  4.087427  0
C  C62  1  0.52295379  0.90915541  0.24409677  1  0.01762  0  -0.030423  -0.025615  0  4.074209  0
C  C63  1  0.77184705  0.23704763  0.23960963  1  0.008912  0  -0.033463  0.002554  0  4.056508  0
C  C64  1  0.22994874  0.10188361  0.04442309  1  -0.013886  0  -0.281837  -0.490802  0  3.505908  0
C  C65  1  0.39790761  0.83608887  0.51409635  1  -0.058976  0  -0.094977  -0.133348  0  4.012902  0
C  C66  1  0.39417533  0.85560454  0.58844692  1  -0.041131  0  -0.097299  -0.134776  0  4.009071  0
C  C67  1  0.21316055  0.73425029  0.74425989  1  -0.027488  0  -0.030787  -0.097785  0  4.049446  0
C  C68  1  0.48204307  0.89819028  0.66750818  1  -0.011958  0  -0.013018  0.079685  0  4.050928  0
C  C69  1  0.57481414  0.91196649  0.66903906  1  -0.071796  0  -0.097029  -0.131647  0  3.998573  0
C  C70  1  0.57872242  0.89122839  0.59469622  1  -0.019025  0  -0.093234  -0.129029  0  4.003037  0
C  C71  1  0.59405556  0.83066734  0.98883553  1  0.394076  0  0.00609  -0.047351  0  3.9589  0
C  C72  1  0.48984537  0.85696389  0.51562999  1  0.011745  0  -0.010726  0.067933  0  4.004296  0
C  C73  1  0.56086564  0.82818983  0.41591257  1  -0.031769  0  -0.097852  -0.198977  0  3.973095  0
C  C74  1  0.57049752  0.84005841  0.35004600  1  -0.007438  0  -0.009427  0.078022  0  3.937801  0
C  C75  1  0.51253203  0.88579777  0.30825149  1  -0.006846  0  -0.01125  0.026152  0  3.997621  0
C  C76  1  0.44002010  0.90996849  0.32834631  1  -0.049807  0  -0.095743  -0.127092  0  4.026434  0
C  C77  1  0.42857170  0.89452148  0.39133647  1  -0.054482  0  -0.09857  -0.139519  0  4.025161  0
C  C78  1  0.51778307  0.75635090  0.95198917  1  0.029588  0  -0.031707  -0.027302  0  4.052297  0
C  C79  1  0.49220505  0.85643716  0.43902171  1  -0.022771  0  -0.014726  0.066464  0  4.034372  0
C  C80  1  0.15061910  0.50741203  0.61363651  1  -0.033516  0  -0.090561  -0.122967  0  3.993131  0
C  C81  1  0.19458391  0.58045488  0.68474132  1  -0.033359  0  -0.093748  -0.135166  0  3.996803  0
C  C82  1  0.19382943  0.65706346  0.67712017  1  0.050617  0  -0.007461  0.100513  0  4.015347  0
C  C83  1  0.39589160  0.95930659  0.75016113  1  0.35857  0  0.013285  -0.041505  0  3.960543  0
C  C84  1  0.15927608  0.65741347  0.59565477  1  0.000799  0  -0.091503  -0.128326  0  3.987263  0
C  C85  1  0.11504171  0.58460214  0.52474562  1  -0.063  0  -0.089838  -0.120927  0  3.994215  0
C  C86  1  0.10334126  0.50750944  0.53167708  1  -0.072619  0  -0.012289  0.058378  0  3.995249  0
C  C87  1  0.00247023  0.42666689  0.37422253  1  -0.00616  0  -0.109998  -0.284452  0  4.004775  0
C  C88  1  0.92004479  0.36348967  0.30625916  1  0.421293  0  0.097838  0.266004  0  4.042661  0
C  C89  1  0.47677691  0.93439049  0.74428438  1  0.047958  0  -0.032394  -0.037378  0  4.068151  0
C  C90  1  0.86027888  0.30151900  0.31223216  1  0.088416  0  -0.023349  -0.136871  0  4.049658  0
C  C91  1  0.89702060  0.30750748  0.39590932  1  0.395009  0  0.098318  0.268515  0  4.049889  0
C  C92  1  0.97807501  0.36976218  0.46610594  1  0.073663  0  -0.111289  -0.285591  0  4.010078  0
C  C93  1  0.03130807  0.43282532  0.45687547  1  0.019832  0  -0.005335  0.118373  0  4.028691  0
C  C94  1  0.52950775  0.67372043  0.94257379  1  -0.000416  0  -0.011254  0.084144  0  4.060943  0
C  C95  1  0.43033678  0.78195255  0.93691632  1  0.363706  0  0.013155  -0.03208  0  3.931146  0
C  C96  1  0.48385961  0.37326579  0.91409426  1  0.003307  0  -0.011844  0.087076  0  4.067351  0
C  C97  1  0.37380082  0.45499506  0.85884561  1  -0.107785  0  -0.095853  -0.135231  0  4.025604  0
C  C98  1  0.38632630  0.38131976  0.86569299  1  0.005747  0  -0.096015  -0.133932  0  4.010339  0
C  C99  1  0.56712951  0.44130845  0.95222142  1  -0.084591  0  -0.092946  -0.191393  0  3.947625  0
C  C100  1  0.57464497  0.26103712  0.94077892  1  0.396103  0  0.009237  -0.046931  0  3.975245  0
C  C101  1  0.55676366  0.51786371  0.94609295  1  0.007438  0  -0.009694  0.080956  0  4.017614  0
C  C102  1  0.45786120  0.52599174  0.89994551  1  0.025052  0  -0.0111  0.076327  0  4.024068  0
C  C103  1  0.44708652  0.60402207  0.89910983  1  -0.005206  0  -0.094736  -0.188133  0  3.949927  0
C  C104  1  0.62760455  0.66394515  0.98503267  1  -0.055819  0  -0.092378  -0.131255  0  4.005311  0
C  C105  1  0.64072847  0.58883206  0.98665670  1  -0.058823  0  -0.090807  -0.133011  0  4.0155  0
C  C106  1  0.13155877  0.86699448  0.86626500  1  0.319152  0  0.093181  0.159306  0  4.000961  0
C  C107  1  0.55397000  0.96248281  0.82881708  1  0.405537  0  0.007038  -0.042613  0  3.949646  0
C  C108  1  0.93109994  0.96536757  0.00764469  1  0.076009  0  -0.005716  0.141136  0  4.073019  0
C  C109  1  0.06526581  0.90061182  0.03617186  1  0.373588  0  0.099932  0.254755  0  4.043569  0
C  C110  1  0.00054156  0.93204766  0.05936924  1  0.050386  0  -0.102884  -0.265176  0  3.966708  0
C  C111  1  0.44335269  0.91447540  0.17364460  1  0.423289  0  0.008259  -0.058622  0  3.98251  0
C  C112  1  0.93073154  0.96497824  0.93485372  1  -0.048528  0  -0.094685  -0.204589  0  3.951535  0
C  C113  1  0.99739601  0.93276331  0.91123206  1  0.057849  0  -0.000754  0.106326  0  4.023965  0
C  C114  1  0.06727049  0.89856925  0.96250984  1  0.021023  0  -0.011275  -0.012026  0  4.007163  0
C  C115  1  0.13468515  0.86634965  0.93926548  1  0.016959  0  -0.08777  -0.19744  0  3.976649  0
C  C116  1  0.06342526  0.90128835  0.81534501  1  0.01129  0  -0.089125  -0.151132  0  3.994353  0
C  C117  1  0.99817071  0.93327127  0.83751288  1  -0.082497  0  -0.082061  -0.106437  0  3.981349  0
C  C118  1  0.24597190  0.81436051  0.74778457  1  0.517308  0  0.015303  -0.031815  0  4.043722  0
C  C119  1  0.82403735  0.98516035  0.08148784  1  1.007163  0  0.20115  0.325058  0  4.091649  0
C  C120  1  0.85965830  0.99827048  0.02882928  1  0.035594  0  -0.039527  -0.153638  0  4.090878  0
C  C121  1  0.14298913  0.68789199  0.83276676  1  0.000753  0  -0.15828  -0.214835  0  4.010245  0
C  C122  1  0.72290281  0.16140849  0.23450382  1  0.41077  0  0.009234  -0.043098  0  3.942736  0
C  C123  1  0.02902519  0.64474638  0.78051447  1  -0.031916  0  -0.162398  -0.084714  0  3.952037  0
C  C124  1  0.00021319  0.58546431  0.81612284  1  -0.026642  0  -0.24292  -0.353563  0  3.980405  0
C  C125  1  0.63697270  0.80047198  0.32127371  1  -0.002158  0  -0.161352  -0.19239  0  3.967196  0
C  C126  1  0.57596229  0.73195831  0.23212286  1  0.003106  0  -0.166267  -0.090262  0  3.957846  0
C  C127  1  0.64156586  0.70376894  0.19475286  1  -0.054482  0  -0.248679  -0.352248  0  3.984201  0
C  C128  1  0.23533328  0.10348740  0.97344244  1  0.252485  0  -0.024048  0.040711  0  4.086007  0
C  C129  1  0.29410051  0.05445653  0.07161027  1  0.203538  0  -0.030469  0.030282  0  4.083082  0
N  N130  1  0.73867575  0.06145920  0.02529048  1  -0.784945  0  -0.270199  -0.161006  0  3.5389  0
N  N131  1  0.55537281  0.89531645  0.99623119  1  -0.789615  0  -0.287356  -0.20993  0  3.578942  0
N  N132  1  0.42393538  0.99874781  0.83164995  1  -0.783184  0  -0.281882  -0.159645  0  3.644136  0
N  N133  1  0.45386704  0.86472423  0.96332863  1  -0.779223  0  -0.285463  -0.164717  0  3.616779  0
N  N134  1  0.52179323  0.00175351  0.88066551  1  -0.798649  0  -0.282094  -0.202295  0  3.591092  0
N  N135  1  0.23254821  0.87217176  0.80116574  1  -0.707286  0  -0.241891  -0.27515  0  3.269  0
N  N136  1  0.75239388  0.02141340  0.07976999  1  -0.813049  0  -0.278125  -0.284447  0  3.512027  0
N  N137  1  0.54896317  0.18595605  0.94174954  1  -0.784504  0  -0.274167  -0.176183  0  3.559624  0
N  N138  1  0.47867728  0.94087190  0.12944676  1  -0.823976  0  -0.284577  -0.172772  0  3.593483  0
N  N139  1  0.64895676  0.11619372  0.15429349  1  -0.801016  0  -0.287883  -0.196691  0  3.585456  0
N  N140  1  0.29442359  0.05779200  0.95671458  1  -0.802262  0  -0.315743  -0.215991  0  3.667944  0
N  N141  1  0.33246830  0.02711953  0.01925585  1  -0.815587  0  -0.323479  -0.232166  0  3.707512  0
N  N142  1  0.64599448  0.16087261  0.10625080  1  -0.791539  0  -0.284854  -0.186521  0  3.59425  0
N  N143  1  0.45199089  0.17015261  0.92701788  1  -0.815228  0  -0.280702  -0.183269  0  3.587202  0
N  N144  1  0.58082629  0.95358089  0.16887548  1  -0.779374  0  -0.274753  -0.179485  0  3.563519  0
N  N145  1  0.19286047  0.83082452  0.83586218  1  -0.827878  0  -0.139992  0.058908  0  3.708235  0
F  F146  1  0.89510900  0.36201882  0.22767538  1  -0.631983  0  -0.104304  -0.149111  0  1.330186  0
F  F147  1  0.84718198  0.24953162  0.40999699  1  -0.635733  0  -0.104119  -0.148589  0  1.328589  0
F  F148  1  0.13251382  0.86935345  0.08689502  1  -0.643167  0  -0.1154  -0.163531  0  1.304593  0
F  F149  1  0.85094151  0.93983972  0.12950890  1  -0.644603  0  -0.092453  -0.148107  0  1.338348  0
