# generated using pymatgen
data_CoH20C32N4O7
_symmetry_space_group_name_H-M   'P 1'
_cell_length_a   9.90994436
_cell_length_b   13.01651603
_cell_length_c   14.55015924
_cell_angle_alpha   107.58905152
_cell_angle_beta   97.99823564
_cell_angle_gamma   103.29927798
_symmetry_Int_Tables_number   1
_chemical_formula_structural   CoH20C32N4O7
_chemical_formula_sum   'Co2 H40 C64 N8 O14'
_cell_volume   1696.52648047
_cell_formula_units_Z   2
loop_
 _symmetry_equiv_pos_site_id
 _symmetry_equiv_pos_as_xyz
  1  'x, y, z'
loop_
 _atom_site_type_symbol
 _atom_site_label
 _atom_site_symmetry_multiplicity
 _atom_site_fract_x
 _atom_site_fract_y
 _atom_site_fract_z
 _atom_site_occupancy
 _atom_site_pbe_bader_charge
 _atom_site_pbe_bader_spin_density
 _atom_site_pbe_cm5_charge
 _atom_site_pbe_ddec_charge
 _atom_site_pbe_ddec_spin_density
 _atom_site_pbe_ddec_sum_bond_order
 _atom_site_pbe_magmom
Co  Co0  1  0.52763982  0.52049051  0.15399556  1  1.287836  0.003237  0.787414  0.846468  0.006909  3.14698  0.003
Co  Co1  1  0.47236392  0.47968170  0.84586749  1  1.288483  0.03964  0.789228  0.84888  0.084867  3.147432  0.039
H  H2  1  0.81405144  0.67346357  0.25011200  1  0.09276  0.000441  0.119158  0.093658  0.000182  1.01136  0.0
H  H3  1  0.91976329  0.87785297  0.34390998  1  0.099413  0.000381  0.113106  0.136339  2.2e-05  1.004697  0.0
H  H4  1  0.49377871  0.91276372  0.29917688  1  0.110207  -0.00012  0.118128  0.137399  -0.000333  0.972095  0.0
H  H5  1  0.40577090  0.70611321  0.20344919  1  0.092951  0.000134  0.119216  0.094621  -0.000117  1.016919  0.0
H  H6  1  0.06121347  0.30085889  0.44610791  1  0.085295  0.000166  0.10357  0.106232  0.000282  1.01406  0.0
H  H7  1  0.06881349  0.48602736  0.56755042  1  0.090631  -6.6e-05  0.099627  0.108627  -7e-05  1.051705  0.0
H  H8  1  0.75430415  0.31533224  0.68964284  1  0.076761  -6e-06  0.106228  0.11778  -3.2e-05  1.022083  0.0
H  H9  1  0.73969423  0.13118964  0.56236556  1  0.108234  0.001227  0.110189  0.113748  0.00166  0.991627  0.001
H  H10  1  0.18493868  0.55622800  0.72779786  1  0.086744  -5.5e-05  0.101499  0.120776  1e-05  1.067997  0.0
H  H11  1  0.34847661  0.75091452  0.79292708  1  0.094835  -0.000494  0.103663  0.104893  -0.000806  1.014046  0.0
H  H12  1  0.99356739  0.88612274  0.81778567  1  0.114249  -0.000537  0.110256  0.112445  -0.000726  0.99695  -0.001
H  H13  1  0.82577879  0.69008836  0.74601571  1  0.077935  2.7e-05  0.107307  0.123233  6.1e-05  0.996049  0.0
H  H14  1  0.52212951  0.12777765  0.94900602  1  0.152052  -0.001179  0.113872  0.141381  -0.001176  1.014412  -0.001
H  H15  1  0.63497895  0.32553660  0.05894892  1  0.10249  -0.000767  0.118477  0.088298  -0.000567  1.010788  -0.001
H  H16  1  0.24633079  0.36936220  0.11026256  1  0.102121  -0.000654  0.116555  0.087667  -0.000406  1.035509  -0.001
H  H17  1  0.11857576  0.17178053  0.00611699  1  0.088591  -0.000277  0.114856  0.133404  -0.000286  0.982335  0.0
H  H18  1  0.69006456  0.43576429  0.42306357  1  0.086314  -1.6e-05  0.11492  0.119288  -3.7e-05  0.995269  0.0
H  H19  1  0.32711728  0.56458134  0.40713921  1  0.126252  4.5e-05  0.107841  0.107475  5.1e-05  1.065679  0.0
H  H20  1  0.93095334  0.53621795  0.16191917  1  0.098077  1.9e-05  0.105667  0.105824  4.4e-05  1.033055  0.0
H  H21  1  0.18076603  0.54133462  0.15284708  1  0.10452  3e-06  0.108336  0.110186  1.3e-05  1.040861  0.0
H  H22  1  0.18611017  0.32645555  0.74962017  1  0.093242  0.000499  0.119198  0.094006  0.000218  1.011513  0.0
H  H23  1  0.08092317  0.12210212  0.65570606  1  0.105649  0.000516  0.112851  0.136348  0.000194  1.005466  0.0
H  H24  1  0.50724392  0.08790152  0.70021879  1  0.108351  5.4e-05  0.117344  0.136412  -7.1e-05  0.973162  0.0
H  H25  1  0.59466593  0.29422659  0.79623867  1  0.129084  0.00024  0.119368  0.09461  -0.0  1.017313  0.0
H  H26  1  0.93937343  0.69936295  0.55443239  1  0.086041  9.8e-05  0.103611  0.106299  0.000175  1.013543  0.0
H  H27  1  0.93087995  0.51409530  0.43264935  1  0.092377  7.4e-05  0.099998  0.109218  5.2e-05  1.051052  0.0
H  H28  1  0.24515996  0.68439269  0.31009454  1  0.077143  -5e-06  0.106139  0.117551  -7.1e-05  1.022226  0.0
H  H29  1  0.26035750  0.86869243  0.43757507  1  0.105296  0.001059  0.110223  0.11398  0.001344  0.992386  0.001
H  H30  1  0.81406474  0.44330775  0.27186850  1  0.117084  5.6e-05  0.101851  0.12101  -2.5e-05  1.067908  0.0
H  H31  1  0.65098496  0.24842436  0.20729531  1  0.088793  0.000461  0.103884  0.105396  0.000684  1.012282  0.0
H  H32  1  0.00660474  0.11399688  0.18237421  1  0.115419  0.000304  0.110331  0.11277  0.000364  0.997173  0.001
H  H33  1  0.17384052  0.31017210  0.25363657  1  0.07958  -7.4e-05  0.107951  0.123718  -0.000128  0.994724  0.0
H  H34  1  0.47751309  0.87231005  0.05075325  1  0.151943  0.000964  0.114261  0.141529  0.000832  1.012974  0.001
H  H35  1  0.36473954  0.67470956  0.94043429  1  0.100273  0.000559  0.119096  0.089126  0.000315  1.009688  0.0
H  H36  1  0.75366546  0.63063714  0.88999211  1  0.105206  0.000603  0.11685  0.088326  0.000288  1.035205  0.001
H  H37  1  0.88159790  0.82798548  0.99489483  1  0.08884  0.000133  0.114912  0.133092  3.8e-05  0.982413  0.0
H  H38  1  0.30959423  0.56413880  0.57664673  1  0.085329  1e-05  0.114738  0.119232  1.5e-05  0.995318  0.0
H  H39  1  0.67263108  0.43541255  0.59260115  1  0.130835  -2.6e-05  0.108349  0.10816  -4.1e-05  1.064793  0.0
H  H40  1  0.06897242  0.46365420  0.83781634  1  0.095443  -2e-05  0.106035  0.106417  -2.5e-05  1.032836  0.0
H  H41  1  0.81924256  0.45862520  0.84689671  1  0.108832  2e-06  0.108553  0.110296  4e-06  1.04067  0.0
C  C42  1  0.74724695  0.72968863  0.26301770  1  0.439494  -0.007983  0.036144  0.083222  -0.008079  3.96362  -0.006
C  C43  1  0.80522775  0.84306394  0.31600250  1  0.000615  0.033047  -0.085167  -0.209355  0.032383  3.889527  0.02
C  C44  1  0.71470595  0.91435797  0.33296982  1  0.621383  -0.00735  0.12985  0.307237  -0.007729  4.072486  -0.009
C  C45  1  0.56713153  0.86163061  0.29011965  1  -0.025065  0.038504  -0.079578  -0.19831  0.038688  3.90598  0.024
C  C46  1  0.51785450  0.74785447  0.23769307  1  0.421399  -0.004219  0.033894  0.071179  -0.005064  3.988867  -0.005
C  C47  1  0.88608468  0.09652332  0.41730145  1  1.377646  -0.006233  0.229773  0.453493  -0.004877  4.181338  -0.006
C  C48  1  0.99529204  0.30490247  0.50046172  1  -0.021572  -0.00066  -0.081596  -0.071985  -0.00063  3.972112  0.0
C  C49  1  0.00071959  0.40826568  0.56884698  1  -0.047065  -0.001789  -0.110143  -0.218931  -0.001936  4.015478  -0.001
C  C50  1  0.91339795  0.41088043  0.63680839  1  0.353706  -0.000907  0.080913  0.249806  -0.000919  4.039557  0.0
C  C51  1  0.82223684  0.31084079  0.63663708  1  -0.04587  -0.000124  -0.105886  -0.207671  -0.000381  4.003392  0.0
C  C52  1  0.81462483  0.20893471  0.56602421  1  -0.020004  0.002544  -0.076896  -0.068851  0.003327  3.977466  0.002
C  C53  1  0.90059914  0.20502749  0.49694610  1  0.01568  0.003188  -0.013027  -0.02416  0.003211  3.984118  0.002
C  C54  1  0.99568677  0.61250906  0.73222274  1  0.377533  -0.007855  0.083504  0.261075  -0.007784  4.040514  -0.004
C  C55  1  0.14223524  0.62780300  0.74500754  1  0.049278  -0.004233  -0.115925  -0.236402  -0.004424  4.036932  -0.002
C  C56  1  0.23376253  0.73665786  0.78274280  1  -0.115546  -0.002469  -0.078822  -0.067721  -0.002799  3.980951  -0.001
C  C57  1  0.18134577  0.83006174  0.81111180  1  -0.005748  -0.016124  -0.015045  -0.030891  -0.016548  3.968048  -0.01
C  C58  1  0.03369253  0.81306717  0.79769298  1  -0.070182  -0.005969  -0.067702  -0.050282  -0.006714  3.954911  -0.004
C  C59  1  0.94064930  0.70464111  0.75773207  1  0.034935  -0.000771  -0.102294  -0.20484  -0.000875  3.984515  -0.001
C  C60  1  0.28454491  0.94442982  0.85648020  1  1.369595  0.00692  0.232843  0.462751  0.004976  4.153909  0.006
C  C61  1  0.30736604  0.13101550  0.96390795  1  0.519869  0.003723  0.125709  0.305445  0.003333  4.064303  0.006
C  C62  1  0.45779624  0.17889287  0.98338653  1  0.048627  -0.028441  -0.08576  -0.21195  -0.029136  3.881446  -0.019
C  C63  1  0.52022435  0.28969755  0.04332380  1  0.392084  0.004811  0.034973  0.091551  0.004771  3.973184  0.004
C  C64  1  0.30320583  0.31372941  0.07216257  1  0.364378  0.003756  0.025343  0.06051  0.004029  4.001807  0.003
C  C65  1  0.23276057  0.20393789  0.01385670  1  0.032804  -0.023876  -0.085031  -0.203635  -0.02508  3.906894  -0.016
C  C66  1  0.51516671  0.50366734  0.30663869  1  1.447332  -6.5e-05  0.220278  0.524141  -4.8e-05  4.089099  0.0
C  C67  1  0.50884054  0.50065996  0.40578557  1  -0.033514  -0.000108  -0.003527  -0.018237  -0.000116  3.982504  0.0
C  C68  1  0.60797040  0.46446386  0.45715743  1  0.041213  -2.5e-05  -0.065029  -0.069867  -3.9e-05  3.909819  0.0
C  C69  1  0.40131756  0.53606327  0.44848449  1  0.009363  1.1e-05  -0.068353  -0.075737  1.5e-05  3.921846  0.0
C  C70  1  0.96163963  0.52067224  0.09120528  1  -0.069937  6e-06  -0.077563  -0.07723  3.6e-05  3.937574  0.0
C  C71  1  0.10154428  0.52417526  0.08615541  1  0.012169  -2.5e-05  -0.080679  -0.091863  -1e-05  3.943176  0.0
C  C72  1  0.14100017  0.50354223  0.99483257  1  -0.025441  -0.000148  -0.008832  -0.028358  -0.000146  3.947973  0.0
C  C73  1  0.29202079  0.50708358  0.99063777  1  1.544177  -0.000206  0.237875  0.574673  -0.000281  4.1436  0.0
C  C74  1  0.25310762  0.27038309  0.73685460  1  0.4438  -0.007241  0.036075  0.083896  -0.007347  3.963536  -0.006
C  C75  1  0.19539877  0.15698311  0.68386031  1  -0.000847  0.032949  -0.087342  -0.212617  0.032495  3.889242  0.02
C  C76  1  0.28603619  0.08580049  0.66666727  1  0.564688  -0.004921  0.130401  0.310114  -0.005128  4.071336  -0.007
C  C77  1  0.43358825  0.13879104  0.70933325  1  0.013978  0.031496  -0.081966  -0.201879  0.031642  3.911291  0.019
C  C78  1  0.48259551  0.25242823  0.76199754  1  0.381849  -0.006258  0.032123  0.069651  -0.006869  3.991762  -0.006
C  C79  1  0.11463483  0.90390797  0.58266608  1  1.382711  -0.006318  0.229466  0.453137  -0.004944  4.185209  -0.006
C  C80  1  0.00501999  0.69520681  0.49990322  1  -0.025394  -0.000599  -0.080862  -0.071768  -0.000596  3.969918  -0.001
C  C81  1  0.99906627  0.59182282  0.43134633  1  -0.047359  0.005685  -0.109065  -0.217995  0.005716  4.014084  0.003
C  C82  1  0.08612315  0.58907330  0.36318227  1  0.354243  0.004077  0.082137  0.250504  0.003602  4.038225  0.001
C  C83  1  0.17751290  0.68901991  0.36329009  1  -0.04439  0.005336  -0.104924  -0.206304  0.005196  4.00281  0.004
C  C84  1  0.18548208  0.79094928  0.43395715  1  -0.010731  0.002393  -0.076465  -0.069389  0.003099  3.976216  0.002
C  C85  1  0.09994344  0.79499263  0.50336293  1  0.015092  0.018228  -0.011707  -0.020214  0.018294  3.976186  0.012
C  C86  1  0.00361617  0.38737091  0.26767537  1  0.377135  0.011383  0.084933  0.262018  0.010844  4.037952  0.006
C  C87  1  0.85696524  0.37182165  0.25490260  1  0.022106  0.007914  -0.114499  -0.234465  0.007997  4.033122  0.005
C  C88  1  0.76572920  0.26287482  0.21743666  1  -0.111702  0.002743  -0.078172  -0.067806  0.002971  3.977313  0.001
C  C89  1  0.81847073  0.16957170  0.18929899  1  0.023764  0.02193  -0.014336  -0.027581  0.021794  3.960153  0.014
C  C90  1  0.96619702  0.18688799  0.20237925  1  -0.069593  0.005955  -0.067283  -0.051117  0.006327  3.95294  0.004
C  C91  1  0.05894906  0.29540606  0.24207017  1  0.038631  0.002096  -0.101554  -0.203477  0.002232  3.982308  0.001
C  C92  1  0.71561064  0.05492445  0.14524401  1  1.335461  -0.007401  0.231712  0.461094  -0.005956  4.154136  -0.007
C  C93  1  0.69258970  0.86890562  0.03654644  1  0.525318  -0.00527  0.126629  0.30437  -0.005438  4.059908  -0.008
C  C94  1  0.54196503  0.82125034  0.01650772  1  0.045663  0.037083  -0.084432  -0.208042  0.036854  3.876251  0.024
C  C95  1  0.47952581  0.71052051  0.95635690  1  0.404356  -0.007489  0.035012  0.089785  -0.007669  3.96896  -0.007
C  C96  1  0.69679511  0.68626520  0.92810164  1  0.362128  -0.00667  0.025929  0.060496  -0.007142  3.999455  -0.006
C  C97  1  0.76731048  0.79589412  0.98680251  1  0.034953  0.033422  -0.082675  -0.200028  0.033695  3.90385  0.021
C  C98  1  0.48469243  0.49643892  0.69316287  1  1.448627  -0.000311  0.220246  0.523355  -0.000313  4.088848  0.0
C  C99  1  0.49087853  0.49929885  0.59394962  1  -0.051528  1.9e-05  -0.003993  -0.018305  -1.3e-05  3.980927  0.0
C  C100  1  0.39169471  0.53544198  0.54255105  1  -0.005639  -0.000104  -0.064501  -0.069244  -0.000115  3.909593  0.0
C  C101  1  0.59837598  0.46386609  0.55123735  1  -0.018646  -9.3e-05  -0.068502  -0.075716  -0.000103  3.920583  0.0
C  C102  1  0.03832625  0.47920564  0.90854465  1  -0.007664  -7.8e-05  -0.077255  -0.077176  -0.000103  3.935741  0.0
C  C103  1  0.89842306  0.47573407  0.91359642  1  -0.056389  -7.4e-05  -0.08045  -0.091075  -8e-05  3.942516  0.0
C  C104  1  0.85896740  0.49636791  0.00492021  1  -0.024813  -0.000108  -0.00881  -0.028814  -0.000139  3.949669  0.0
C  C105  1  0.70799957  0.49297495  0.00915804  1  1.540572  -0.000218  0.238598  0.575034  -0.000305  4.143482  0.0
N  N106  1  0.60575583  0.68162030  0.22380428  1  -1.205037  0.026507  -0.345519  -0.212588  0.02599  3.622689  0.021
N  N107  1  0.75326512  0.02443115  0.38850629  1  -1.186403  0.188723  -0.314852  -0.41198  0.180712  3.232972  0.137
N  N108  1  0.22937581  0.02574063  0.90580169  1  -1.181148  -0.190169  -0.317333  -0.419308  -0.187016  3.201121  -0.137
N  N109  1  0.44558533  0.35905673  0.08565503  1  -1.202859  -0.017018  -0.350846  -0.239769  -0.017116  3.632736  -0.014
N  N110  1  0.39452761  0.31861144  0.77617707  1  -1.204418  0.024995  -0.346028  -0.214043  0.024605  3.620564  0.02
N  N111  1  0.24742073  0.97580355  0.61077408  1  -1.194313  0.186663  -0.319658  -0.419821  0.17896  3.238382  0.135
N  N112  1  0.77067784  0.97400994  0.09483055  1  -1.173803  0.200528  -0.316253  -0.416768  0.191724  3.196258  0.145
N  N113  1  0.55428633  0.64105562  0.91426979  1  -1.206608  0.027463  -0.349096  -0.237182  0.027091  3.627939  0.022
O  O114  1  0.98709058  0.08169391  0.37656839  1  -1.047365  0.172479  -0.268986  -0.428713  0.164512  1.982983  0.141
O  O115  1  0.89736929  0.50767209  0.70129198  1  -1.108188  -0.0072  -0.144824  -0.210753  -0.0071  2.642518  -0.006
O  O116  1  0.41066423  0.95968576  0.84632381  1  -1.048062  -0.164403  -0.263791  -0.427785  -0.1608  2.006736  -0.136
O  O117  1  0.62355825  0.49608232  0.26799940  1  -1.020188  -7.2e-05  -0.249313  -0.415332  -0.000135  2.269057  0.0
O  O118  1  0.41238437  0.51701506  0.25105978  1  -1.030956  -0.000118  -0.255293  -0.429465  -0.000149  2.297654  0.0
O  O119  1  0.38275225  0.54919733  0.07279210  1  -1.125268  -0.000253  -0.286158  -0.517413  -0.000332  2.553772  0.0
O  O120  1  0.31409675  0.47115610  0.90385911  1  -1.072685  -0.000491  -0.27301  -0.481954  -0.000391  2.523983  0.0
O  O121  1  0.01275096  0.91936489  0.62218674  1  -1.049598  0.170953  -0.27039  -0.430166  0.163187  1.984011  0.14
O  O122  1  0.10172267  0.49225320  0.29855105  1  -1.103374  0.017181  -0.144994  -0.209485  0.016766  2.643494  0.016
O  O123  1  0.59086445  0.03914983  0.15807117  1  -1.056646  0.155246  -0.263481  -0.429483  0.147782  2.015557  0.129
O  O124  1  0.37630392  0.50400846  0.73182071  1  -1.021004  -0.000955  -0.249252  -0.415018  -0.000744  2.26801  -0.001
O  O125  1  0.58758432  0.48325785  0.74877750  1  -1.028587  -0.001168  -0.254279  -0.428539  -0.001051  2.297081  -0.001
O  O126  1  0.61733831  0.45100221  0.92696963  1  -1.124458  -0.000614  -0.286514  -0.517258  -0.00048  2.554261  -0.001
O  O127  1  0.68588868  0.52890784  0.09592277  1  -1.074266  -0.000223  -0.273501  -0.482541  -0.000179  2.522998  0.0
