# generated using pymatgen
data_CdH10C12N4O9
_symmetry_space_group_name_H-M   'P 1'
_cell_length_a   7.94475188
_cell_length_b   10.14659155
_cell_length_c   10.28095051
_cell_angle_alpha   107.46000379
_cell_angle_beta   90.65477366
_cell_angle_gamma   114.01308713
_symmetry_Int_Tables_number   1
_chemical_formula_structural   CdH10C12N4O9
_chemical_formula_sum   'Cd2 H20 C24 N8 O18'
_cell_volume   713.63281054
_cell_formula_units_Z   2
loop_
 _symmetry_equiv_pos_site_id
 _symmetry_equiv_pos_as_xyz
  1  'x, y, z'
loop_
 _atom_site_type_symbol
 _atom_site_label
 _atom_site_symmetry_multiplicity
 _atom_site_fract_x
 _atom_site_fract_y
 _atom_site_fract_z
 _atom_site_occupancy
 _atom_site_hle17_bader_spin_density
 _atom_site_hle17_ddec_charge
 _atom_site_hle17_ddec_spin_density
 _atom_site_hle17_ddec_sum_bond_order
 _atom_site_hle17_magmom
 _atom_site_hse06_10hf_bader_spin_density
 _atom_site_hse06_10hf_ddec_charge
 _atom_site_hse06_10hf_ddec_spin_density
 _atom_site_hse06_10hf_ddec_sum_bond_order
 _atom_site_hse06_10hf_magmom
 _atom_site_hse06_bader_spin_density
 _atom_site_hse06_ddec_charge
 _atom_site_hse06_ddec_spin_density
 _atom_site_hse06_ddec_sum_bond_order
 _atom_site_hse06_magmom
 _atom_site_pbe_bader_spin_density
 _atom_site_pbe_cm5_charge
 _atom_site_pbe_ddec_charge
 _atom_site_pbe_ddec_spin_density
 _atom_site_pbe_ddec_sum_bond_order
 _atom_site_pbe_magmom
Cd  Cd0  1  0.32363562  0.06160876  0.43683319  1  0  1.264031  0  1.585702  0  0  1.092294  0  2.036884  0  0  1.151049  0  1.974008  0  0  0.77646  1.046781  0  2.083179  0
Cd  Cd1  1  0.67636267  0.93839133  0.56316645  1  0  1.264035  0  1.585712  0  0  1.092286  0  2.036918  0  0  1.151049  0  1.974026  0  0  0.776454  1.046771  0  2.083214  0
H  H2  1  0.52691172  0.17982726  0.14628236  1  0  0.297691  0  0.880837  0  0  0.273586  0  0.948731  0  0  0.283159  0  0.940392  0  0  0.325642  0.267  0  0.954478  0
H  H3  1  0.47309169  0.82017058  0.85371766  1  0  0.297721  0  0.880729  0  0  0.273636  0  0.948635  0  0  0.283212  0  0.940289  0  0  0.325647  0.267048  0  0.954383  0
H  H4  1  0.35725111  0.21054187  0.73054082  1  0  0.444737  0  0.845033  0  0  0.414631  0  0.905741  0  0  0.425238  0  0.89019  0  0  0.304567  0.406991  0  0.916952  0
H  H5  1  0.64274968  0.78945823  0.26946178  1  0  0.444731  0  0.845038  0  0  0.414623  0  0.905754  0  0  0.42523  0  0.890203  0  0  0.304564  0.406982  0  0.916968  0
H  H6  1  0.17360401  0.04578951  0.69196690  1  0  0.439927  0  0.859534  0  0  0.405447  0  0.927923  0  0  0.416467  0  0.912209  0  0  0.292836  0.397556  0  0.939183  0
H  H7  1  0.82639805  0.95421060  0.30803475  1  0  0.439939  0  0.859531  0  0  0.405453  0  0.927928  0  0  0.416474  0  0.912213  0  0  0.292834  0.397563  0  0.939187  0
H  H8  1  0.52857321  0.94352360  0.25854242  1  0  0.422566  0  0.880083  0  0  0.390813  0  0.945639  0  0  0.401726  0  0.929858  0  0  0.287152  0.383034  0  0.956843  0
H  H9  1  0.47142819  0.05647765  0.74145858  1  0  0.422582  0  0.88006  0  0  0.390831  0  0.945615  0  0  0.401745  0  0.929833  0  0  0.287157  0.383053  0  0.956817  0
H  H10  1  0.33029902  0.88519601  0.16963385  1  0  0.430345  0  0.859534  0  0  0.398204  0  0.924054  0  0  0.409266  0  0.907867  0  0  0.294997  0.39033  0  0.935575  0
H  H11  1  0.66970424  0.11480639  0.83036654  1  0  0.430321  0  0.859564  0  0  0.398191  0  0.924067  0  0  0.409252  0  0.90788  0  0  0.294992  0.390316  0  0.935588  0
H  H12  1  0.99142426  0.08145780  0.91015735  1  0  0.353232  0  0.857649  0  0  0.327189  0  0.927839  0  0  0.336878  0  0.919493  0  0  0.324957  0.32044  0  0.933515  0
H  H13  1  0.00857849  0.91854117  0.08984105  1  0  0.353368  0  0.857691  0  0  0.327265  0  0.927933  0  0  0.336986  0  0.919557  0  0  0.325001  0.3205  0  0.933628  0
H  H14  1  0.14975057  0.54568116  0.05158552  1  0  0.33458  0  0.899991  0  0  0.308092  0  0.970539  0  0  0.318443  0  0.961917  0  0  0.314148  0.300881  0  0.976527  0
H  H15  1  0.85025026  0.45431895  0.94841222  1  0  0.334649  0  0.900011  0  0  0.308154  0  0.970551  0  0  0.318505  0  0.961926  0  0  0.314182  0.300943  0  0.97654  0
H  H16  1  0.30405538  0.51337104  0.43124500  1  0  0.129791  0  0.924791  0  0  0.137517  0  0.986442  0  0  0.141988  0  0.982695  0  0  0.114512  0.134406  0  0.989143  0
H  H17  1  0.69594850  0.48663251  0.56875184  1  0  0.129799  0  0.924809  0  0  0.13752  0  0.986461  0  0  0.141991  0  0.982713  0  0  0.114504  0.134409  0  0.989165  0
H  H18  1  0.84720659  0.58978886  0.29722393  1  0  0.126871  0  0.947408  0  0  0.128608  0  1.019765  0  0  0.133472  0  1.01465  0  0  0.113945  0.125126  0  1.023104  0
H  H19  1  0.15278929  0.41020893  0.70277015  1  0  0.126856  0  0.947489  0  0  0.128631  0  1.019802  0  0  0.133494  0  1.014694  0  0  0.113959  0.125151  0  1.023142  0
H  H20  1  0.78867377  0.12843997  0.21070870  1  0  0.123653  0  0.956876  0  0  0.129835  0  1.02573  0  0  0.133949  0  1.022121  0  0  0.111573  0.126974  0  1.028498  0
H  H21  1  0.21132956  0.87156015  0.78929199  1  0  0.123625  0  0.956887  0  0  0.129813  0  1.025747  0  0  0.133927  0  1.02214  0  0  0.111568  0.126951  0  1.028514  0
C  C22  1  0.20391093  0.73883525  0.41943187  1  0  0.671098  0  3.915388  0  0  0.618579  0  4.205524  0  0  0.654573  0  4.19877  0  0  0.20896  0.593789  0  4.209385  0
C  C23  1  0.79608670  0.26116598  0.58056712  1  0  0.671066  0  3.915292  0  0  0.618552  0  4.205414  0  0  0.654546  0  4.198658  0  0  0.208909  0.593764  0  4.209268  0
C  C24  1  0.08827390  0.56868481  0.36678023  1  0  -0.055011  0  3.759828  0  0  -0.026716  0  3.993378  0  0  -0.036174  0  4.017834  0  0  -0.016685  -0.020796  0  3.976915  0
C  C25  1  0.91172702  0.43131302  0.63321489  1  0  -0.054995  0  3.759901  0  0  -0.026699  0  3.993455  0  0  -0.036157  0  4.01791  0  0  -0.01668  -0.020774  0  3.976983  0
C  C26  1  0.13091451  0.20470837  0.34522672  1  0  0.644989  0  3.917671  0  0  0.592192  0  4.211752  0  0  0.626175  0  4.207563  0  0  0.200321  0.569226  0  4.213237  0
C  C27  1  0.86908435  0.79529286  0.65477618  1  0  0.645005  0  3.917566  0  0  0.592233  0  4.211593  0  0  0.626218  0  4.207406  0  0  0.200348  0.569267  0  4.21308  0
C  C28  1  0.05274891  0.31021114  0.32551222  1  0  -0.073792  0  3.772854  0  0  -0.04884  0  4.016227  0  0  -0.05899  0  4.042206  0  0  -0.023122  -0.042258  0  3.999761  0
C  C29  1  0.94725318  0.68978897  0.67448651  1  0  -0.073753  0  3.772806  0  0  -0.048747  0  4.016089  0  0  -0.058907  0  4.042082  0  0  -0.023083  -0.042166  0  3.999625  0
C  C30  1  0.16200002  0.46869056  0.37977541  1  0  -0.062931  0  3.672131  0  0  -0.105136  0  3.926692  0  0  -0.103623  0  3.947067  0  0  -0.07402  -0.105918  0  3.913825  0
C  C31  1  0.83800266  0.53131069  0.62022367  1  0  -0.062943  0  3.672167  0  0  -0.105163  0  3.926707  0  0  -0.103649  0  3.947084  0  0  -0.074017  -0.105945  0  3.913839  0
C  C32  1  0.90518281  0.51128203  0.30356498  1  0  -0.119273  0  3.664086  0  0  -0.159976  0  3.926204  0  0  -0.159498  0  3.943877  0  0  -0.074473  -0.157974  0  3.912104  0
C  C33  1  0.09481557  0.48871578  0.69643205  1  0  -0.119258  0  3.664337  0  0  -0.160031  0  3.926429  0  0  -0.159555  0  3.944099  0  0  -0.074497  -0.158034  0  3.912336  0
C  C34  1  0.79700035  0.35303668  0.24889268  1  0  0.192836  0  3.77043  0  0  0.184329  0  4.030904  0  0  0.187155  0  4.054437  0  0  0.09723  0.182483  0  4.014675  0
C  C35  1  0.20299684  0.64695884  0.75110464  1  0  0.192753  0  3.770443  0  0  0.184389  0  4.030791  0  0  0.187217  0  4.054322  0  0  0.097269  0.182542  0  4.014562  0
C  C36  1  0.38768879  0.35741577  0.10917925  1  0  -0.170943  0  3.782609  0  0  -0.167686  0  4.055416  0  0  -0.186006  0  4.0738  0  0  0.084629  -0.155908  0  4.044189  0
C  C37  1  0.61230823  0.64258431  0.89082134  1  0  -0.171027  0  3.782812  0  0  -0.167604  0  4.055488  0  0  -0.185912  0  4.07385  0  0  0.084687  -0.155825  0  4.044263  0
C  C38  1  0.25012535  0.20230658  0.03485071  1  0  0.560693  0  3.832273  0  0  0.509092  0  4.124233  0  0  0.540913  0  4.122305  0  0  0.240144  0.487849  0  4.124711  0
C  C39  1  0.74987491  0.79769010  0.96515379  1  0  0.560747  0  3.832384  0  0  0.509065  0  4.124387  0  0  0.540884  0  4.122463  0  0  0.240133  0.487822  0  4.124866  0
C  C40  1  0.04190109  0.30826785  0.97808342  1  0  0.772214  0  3.814426  0  0  0.696947  0  4.120161  0  0  0.733246  0  4.115288  0  0  0.358293  0.672119  0  4.123534  0
C  C41  1  0.95809972  0.69173225  0.02191724  1  0  0.772309  0  3.814204  0  0  0.697  0  4.119965  0  0  0.733307  0  4.115081  0  0  0.358305  0.672174  0  4.123335  0
C  C42  1  0.35314222  0.48819217  0.10834640  1  0  0.575041  0  3.847827  0  0  0.522577  0  4.141392  0  0  0.553186  0  4.142571  0  0  0.246693  0.501775  0  4.140881  0
C  C43  1  0.64685892  0.51181591  0.89165856  1  0  0.575114  0  3.847557  0  0  0.522525  0  4.141226  0  0  0.553131  0  4.142406  0  0  0.246724  0.501724  0  4.140713  0
C  C44  1  0.87067431  0.25146370  0.25731003  1  0  -0.120457  0  3.641125  0  0  -0.158195  0  3.898854  0  0  -0.158189  0  3.917454  0  0  -0.077072  -0.158923  0  3.887613  0
C  C45  1  0.12932903  0.74853642  0.74268969  1  0  -0.120412  0  3.64103  0  0  -0.15821  0  3.898701  0  0  -0.158204  0  3.917308  0  0  -0.077077  -0.158932  0  3.887455  0
N  N46  1  0.61284601  0.29626723  0.18281712  1  0  -0.141048  0  3.40781  0  0  -0.08005  0  3.641626  0  0  -0.096065  0  3.655121  0  0  -0.216293  -0.069496  0  3.632644  0
N  N47  1  0.38715239  0.70373058  0.81717796  1  0  -0.140998  0  3.407477  0  0  -0.08016  0  3.641423  0  0  -0.09618  0  3.654915  0  0  -0.216297  -0.069605  0  3.632444  0
N  N48  1  0.55453411  0.39464525  0.17200600  1  0  -0.018616  0  3.138525  0  0  -0.020154  0  3.41859  0  0  -0.005058  0  3.427077  0  0  -0.145843  -0.030248  0  3.412997  0
N  N49  1  0.44546492  0.60535142  0.82799362  1  0  -0.018558  0  3.138321  0  0  -0.020104  0  3.418393  0  0  -0.005006  0  3.426878  0  0  -0.145854  -0.030199  0  3.412803  0
N  N50  1  0.08672082  0.18917939  0.96972862  1  0  -0.523437  0  3.246959  0  0  -0.462652  0  3.494606  0  0  -0.487998  0  3.494166  0  0  -0.382552  -0.44499  0  3.494107  0
N  N51  1  0.91327736  0.81082298  0.03027461  1  0  -0.523581  0  3.247044  0  0  -0.462709  0  3.49472  0  0  -0.488092  0  3.494241  0  0  -0.382586  -0.445031  0  3.494247  0
N  N52  1  0.17821454  0.45243407  0.04457406  1  0  -0.539103  0  3.282958  0  0  -0.480077  0  3.534907  0  0  -0.506862  0  3.537202  0  0  -0.389413  -0.462056  0  3.533643  0
N  N53  1  0.82178442  0.54756488  0.95542526  1  0  -0.539189  0  3.282974  0  0  -0.4801  0  3.534933  0  0  -0.506901  0  3.537253  0  0  -0.389413  -0.462084  0  3.533675  0
O  O54  1  0.12372639  0.82086860  0.40362933  1  0  -0.648344  0  2.012569  0  0  -0.581234  0  2.264203  0  0  -0.612063  0  2.253115  0  0  -0.331266  -0.558899  0  2.272525  0
O  O55  1  0.87627260  0.17913035  0.59636513  1  0  -0.648327  0  2.01251  0  0  -0.58121  0  2.264123  0  0  -0.612039  0  2.253037  0  0  -0.331236  -0.558874  0  2.272445  0
O  O56  1  0.37123569  0.78879838  0.47314365  1  0  -0.67873  0  2.071162  0  0  -0.610413  0  2.337281  0  0  -0.640748  0  2.324442  0  0  -0.337714  -0.587913  0  2.344834  0
O  O57  1  0.62876128  0.21120169  0.52686278  1  0  -0.678728  0  2.071109  0  0  -0.610419  0  2.337238  0  0  -0.640752  0  2.324399  0  0  -0.337706  -0.58792  0  2.344789  0
O  O58  1  0.03949240  0.05965582  0.28864426  1  0  -0.677936  0  2.004286  0  0  -0.614591  0  2.239947  0  0  -0.641223  0  2.229002  0  0  -0.327422  -0.594639  0  2.247418  0
O  O59  1  0.96051141  0.94034772  0.71136134  1  0  -0.677963  0  2.004176  0  0  -0.614654  0  2.239833  0  0  -0.641281  0  2.22888  0  0  -0.327457  -0.594704  0  2.247309  0
O  O60  1  0.88596377  0.28763258  0.92733371  1  0  -0.587438  0  1.952525  0  0  -0.528891  0  2.168563  0  0  -0.551974  0  2.159953  0  0  -0.274818  -0.513307  0  2.174732  0
O  O61  1  0.11403831  0.71236753  0.07266502  1  0  -0.587485  0  1.952456  0  0  -0.528912  0  2.168505  0  0  -0.551988  0  2.159878  0  0  -0.274814  -0.513328  0  2.174673  0
O  O62  1  0.46563283  0.62457570  0.15823747  1  0  -0.541924  0  1.981747  0  0  -0.501804  0  2.211812  0  0  -0.522424  0  2.204456  0  0  -0.283991  -0.488143  0  2.21674  0
O  O63  1  0.53436068  0.37541752  0.84175619  1  0  -0.542061  0  1.981379  0  0  -0.501878  0  2.21144  0  0  -0.522506  0  2.204107  0  0  -0.284116  -0.488216  0  2.216366  0
O  O64  1  0.30384703  0.10074068  0.67431836  1  0  -0.858236  0  1.911163  0  0  -0.78496  0  2.102608  0  0  -0.809861  0  2.068437  0  0  -0.566484  -0.767082  0  2.126781  0
O  O65  1  0.69615688  0.89926058  0.32568462  1  0  -0.85826  0  1.911205  0  0  -0.784965  0  2.102633  0  0  -0.80987  0  2.068463  0  0  -0.566468  -0.767086  0  2.126806  0
O  O66  1  0.43594594  0.97739849  0.23142546  1  0  -0.836999  0  1.873993  0  0  -0.777299  0  2.071891  0  0  -0.799968  0  2.03631  0  0  -0.579325  -0.761226  0  2.096795  0
O  O67  1  0.56405731  0.02260391  0.76857590  1  0  -0.837018  0  1.873977  0  0  -0.777324  0  2.071876  0  0  -0.799993  0  2.036293  0  0  -0.579349  -0.761251  0  2.096779  0
O  O68  1  0.29008108  0.26543167  0.41974153  1  0  -0.61376  0  1.959668  0  0  -0.54851  0  2.200102  0  0  -0.578767  0  2.190584  0  0  -0.318331  -0.526839  0  2.205908  0
O  O69  1  0.70992278  0.73457187  0.58025726  1  0  -0.613737  0  1.959677  0  0  -0.54849  0  2.200095  0  0  -0.57875  0  2.190586  0  0  -0.318326  -0.526818  0  2.205901  0
O  O70  1  0.27422469  0.08650377  0.02664210  1  0  -0.516293  0  1.899589  0  0  -0.472747  0  2.116278  0  0  -0.491384  0  2.108073  0  0  -0.278244  -0.460147  0  2.121542  0
O  O71  1  0.72576992  0.91349402  0.97335390  1  0  -0.516348  0  1.899597  0  0  -0.47279  0  2.116319  0  0  -0.491436  0  2.108116  0  0  -0.27825  -0.460189  0  2.121587  0
