# generated using pymatgen
data_Cd2H29C30(NO2)5
_symmetry_space_group_name_H-M   'P 1'
_cell_length_a   10.24178606
_cell_length_b   10.89325201
_cell_length_c   12.76637737
_cell_angle_alpha   63.86537409
_cell_angle_beta   77.20447367
_cell_angle_gamma   63.97803820
_symmetry_Int_Tables_number   1
_chemical_formula_structural   Cd2H29C30(NO2)5
_chemical_formula_sum   'Cd2 H29 C30 N5 O10'
_cell_volume   1148.35166722
_cell_formula_units_Z   1
loop_
 _symmetry_equiv_pos_site_id
 _symmetry_equiv_pos_as_xyz
  1  'x, y, z'
loop_
 _atom_site_type_symbol
 _atom_site_label
 _atom_site_symmetry_multiplicity
 _atom_site_fract_x
 _atom_site_fract_y
 _atom_site_fract_z
 _atom_site_occupancy
 _atom_site_pbe_bader_charge
 _atom_site_pbe_bader_spin_density
 _atom_site_pbe_cm5_charge
 _atom_site_pbe_ddec_charge
 _atom_site_pbe_ddec_spin_density
 _atom_site_pbe_ddec_sum_bond_order
 _atom_site_pbe_magmom
Cd  Cd0  1  0.77193873  0.98649688  0.24860844  1  1.295381  0  0.783189  0.907719  0  2.195619  0
Cd  Cd1  1  0.09766692  0.99311319  0.04132262  1  1.312206  0  0.773877  1.028422  0  2.101418  0
H  H2  1  0.57688378  0.98174179  0.02934287  1  0.140633  0  0.111821  0.129654  0  1.007348  0
H  H3  1  0.92660340  0.93119993  0.77264739  1  0.092751  0  0.103559  0.116559  0  1.003432  0
H  H4  1  0.89064992  0.36203007  0.28379350  1  0.074538  0  0.104364  0.10898  0  1.025329  0
H  H5  1  0.14945063  0.66437989  0.48664553  1  0.063935  0  0.141131  0.109317  0  0.971416  0
H  H6  1  0.07919600  0.83060155  0.35917094  1  0.186238  0  0.136178  0.122152  0  1.012685  0
H  H7  1  0.33195824  0.43952015  0.42738840  1  0.085186  0  0.107561  0.152998  0  0.967359  0
H  H8  1  0.26116012  0.29994400  0.48053489  1  0.070799  0  0.105942  0.15407  0  0.991836  0
H  H9  1  0.21211903  0.42142951  0.55286625  1  0.023182  0  0.097517  0.128965  0  1.006195  0
H  H10  1  0.32954436  0.32543131  0.28121895  1  0.093845  0  0.105588  0.114152  0  1.018596  0
H  H11  1  0.25703964  0.00629748  0.21804889  1  0.087348  0  0.105222  0.11297  0  1.020095  0
H  H12  1  0.54519754  0.86819607  0.75563152  1  0.058309  0  0.104421  0.104542  0  1.009629  0
H  H13  1  0.73789286  0.78189345  0.16574675  1  0.107523  0  0.098974  0.150104  0  1.040433  0
H  H14  1  0.75178466  0.59664436  0.22706628  1  0.043332  0  0.103665  0.151408  0  0.974709  0
H  H15  1  0.86796692  0.65092535  0.10691389  1  0.035092  0  0.094606  0.136637  0  0.997041  0
H  H16  1  0.58237115  0.16698698  0.41152755  1  0.110925  0  0.104027  0.161854  0  1.002464  0
H  H17  1  0.56008953  0.15019771  0.56026776  1  0.037562  0  0.095766  0.137548  0  0.992742  0
H  H18  1  0.49554578  0.05248121  0.51792034  1  0.042398  0  0.096429  0.135881  0  0.986684  0
H  H19  1  0.07529000  0.54659000  0.69914370  1  0.046361  0  0.100548  0.138992  0  0.990516  0
H  H20  1  0.01750717  0.65082198  0.78714861  1  0.068266  0  0.107814  0.157618  0  0.983221  0
H  H21  1  0.15139102  0.67630921  0.67451945  1  0.056517  0  0.103965  0.142977  0  0.976725  0
H  H22  1  0.29006185  0.73301775  0.06414602  1  0.647559  0  0.277062  0.373768  0  0.974856  0
H  H23  1  0.16212785  0.67581850  0.12730597  1  0.595182  0  0.305551  0.384166  0  0.912709  0
H  H24  1  0.84238915  0.27631473  0.86061242  1  0.080701  0  0.120279  0.044777  0  0.992192  0
H  H25  1  0.63056751  0.45304836  0.81200034  1  0.060839  0  0.111951  0.12047  0  0.987139  0
H  H26  1  0.65719046  0.62220846  0.76205141  1  0.053193  0  0.099909  0.109782  0  0.999855  0
H  H27  1  0.54538397  0.57422218  0.88927556  1  0.127385  0  0.112658  0.142331  0  0.987955  0
H  H28  1  0.88079273  0.44112810  0.03525334  1  0.093082  0  0.109771  0.128058  0  1.022941  0
H  H29  1  0.68705379  0.53775889  0.04090442  1  0.079973  0  0.113229  0.135211  0  0.968606  0
H  H30  1  0.79346252  0.62391105  0.92701893  1  0.073892  0  0.097319  0.104676  0  1.038939  0
C  C31  1  0.84909023  0.98571538  0.96762376  1  1.554202  0  0.1997  0.57363  0  4.230669  0
C  C32  1  0.10760807  0.51611178  0.39039469  1  0.382916  0  0.105846  0.16331  0  3.968788  0
C  C33  1  0.76115704  0.95823581  0.90673906  1  -0.036626  0  -0.022997  -0.033318  0  3.994068  0
C  C34  1  0.72758624  0.96379169  0.53054788  1  0.44681  0  0.108344  0.237614  0  4.001764  0
C  C35  1  0.30780612  0.15685447  0.25186772  1  -0.057754  0  -0.017498  -0.01645  0  3.976012  0
C  C36  1  0.06205101  0.18331058  0.24591819  1  0.026098  0  -0.024586  -0.040867  0  4.006828  0
C  C37  1  0.62303254  0.95854249  0.95120944  1  -0.019316  0  -0.072637  -0.106285  0  3.889188  0
C  C38  1  0.81972504  0.92912191  0.80610614  1  -0.021434  0  -0.087265  -0.156983  0  3.939799  0
C  C39  1  0.00798769  0.30853641  0.27331607  1  -0.026484  0  -0.081193  -0.137684  0  3.919752  0
C  C40  1  0.47014906  0.07557584  0.24513667  1  1.568173  0  0.189924  0.560407  0  4.239264  0
C  C41  1  0.10195689  0.36116324  0.28880458  1  0.004212  0  -0.014311  0.091218  0  4.060618  0
C  C42  1  0.05492297  0.73965073  0.43206190  1  0.666694  0  0.06644  -0.016747  0  3.863964  0
C  C43  1  0.23465611  0.41482922  0.46679559  1  -0.052028  0  -0.22542  -0.426528  0  3.983789  0
C  C44  1  0.04638826  0.49347204  0.31606889  1  0.035102  0  -0.033547  -0.178014  0  4.041482  0
C  C45  1  0.25225364  0.28512268  0.27522876  1  -0.014523  0  -0.081761  -0.1465  0  3.920703  0
C  C46  1  0.92384179  0.62798672  0.26884013  1  0.448912  0  0.10589  0.230432  0  4.007822  0
C  C47  1  0.21242998  0.10556521  0.23711743  1  -0.057862  0  -0.076482  -0.100879  0  3.912819  0
C  C48  1  0.74121582  0.90115557  0.74812626  1  -0.067702  0  -0.01148  0.091823  0  4.077949  0
C  C49  1  0.60573879  0.89594488  0.79618810  1  -0.014679  0  -0.081909  -0.153639  0  3.951623  0
C  C50  1  0.54773925  0.92207598  0.89783893  1  -0.050997  0  -0.0146  -0.016921  0  3.977916  0
C  C51  1  0.81497396  0.66670609  0.18744413  1  -0.034714  0  -0.235534  -0.432127  0  3.940391  0
C  C52  1  0.40930688  0.90086400  0.95228017  1  1.592325  0  0.20905  0.587345  0  4.207586  0
C  C53  1  0.95418059  0.13469219  0.23102732  1  1.530853  0  0.198496  0.564089  0  4.201142  0
C  C54  1  0.79809433  0.87869306  0.63894296  1  0.073811  0  -0.033565  -0.173239  0  4.052476  0
C  C55  1  0.58370268  0.09081922  0.50328572  1  -0.048175  0  -0.236399  -0.437207  0  3.95892  0
C  C56  1  0.93116855  0.77586881  0.61779513  1  0.346547  0  0.097193  0.145457  0  3.985084  0
C  C57  1  0.05036714  0.65624150  0.69798744  1  -0.021171  0  -0.226974  -0.423636  0  3.986719  0
C  C58  1  0.86985705  0.31956971  0.91278156  1  1.395119  0  0.174089  0.300266  0  4.121805  0
C  C59  1  0.64331436  0.52903796  0.83990936  1  0.225933  0  -0.125781  -0.275163  0  3.905342  0
C  C60  1  0.78408513  0.51724988  0.98320895  1  0.241334  0  -0.132691  -0.269178  0  3.878965  0
N  N61  1  0.91466890  0.72718602  0.30831597  1  -0.712814  0  -0.246186  -0.296768  0  3.333352  0
N  N62  1  0.81252018  0.91726322  0.44851376  1  -0.728173  0  -0.242814  -0.287108  0  3.328258  0
N  N63  1  0.02467619  0.65696026  0.38379797  1  -0.823166  0  -0.151475  0.08031  0  3.763382  0
N  N64  1  0.93476797  0.80226236  0.50225695  1  -0.794766  0  -0.151796  0.076879  0  3.768586  0
N  N65  1  0.76941236  0.44950157  0.91260323  1  -1.201901  0  -0.274986  0.042754  0  3.703877  0
O  O66  1  0.00479127  0.01107664  0.21361721  1  -1.17442  0  -0.354617  -0.627104  0  2.422661  0
O  O67  1  0.78982821  0.02818884  0.05050144  1  -1.194338  0  -0.334875  -0.583406  0  2.317929  0
O  O68  1  0.31700268  0.99764327  0.99182279  1  -1.152551  0  -0.335342  -0.557922  0  2.225277  0
O  O69  1  0.82082605  0.20527597  0.24061732  1  -1.153492  0  -0.306038  -0.503627  0  2.136103  0
O  O70  1  0.39554699  0.78897646  0.95573276  1  -1.175732  0  -0.326853  -0.568996  0  2.140858  0
O  O71  1  0.52498211  0.94494996  0.24966314  1  -1.173838  0  -0.343892  -0.568472  0  2.092624  0
O  O72  1  0.98123862  0.96476973  0.93014315  1  -1.149362  0  -0.340681  -0.580237  0  2.235398  0
O  O73  1  0.54531001  0.14825739  0.23803557  1  -1.136433  0  -0.343283  -0.551944  0  2.243748  0
O  O74  1  0.98623394  0.25053285  0.96630210  1  -1.160144  0  -0.314212  -0.471179  0  2.339987  0
O  O75  1  0.21608394  0.72767663  0.13217155  1  -1.228579  0  -0.585183  -0.754165  0  2.014192  0
