# generated using pymatgen
data_ZnH14C18SN4O5
_symmetry_space_group_name_H-M   'P 1'
_cell_length_a   10.26284289
_cell_length_b   10.10180488
_cell_length_c   10.58842278
_cell_angle_alpha   109.19362003
_cell_angle_beta   108.89824581
_cell_angle_gamma   103.94314029
_symmetry_Int_Tables_number   1
_chemical_formula_structural   ZnH14C18SN4O5
_chemical_formula_sum   'Zn2 H28 C36 S2 N8 O10'
_cell_volume   903.64108920
_cell_formula_units_Z   2
loop_
 _symmetry_equiv_pos_site_id
 _symmetry_equiv_pos_as_xyz
  1  'x, y, z'
loop_
 _atom_site_type_symbol
 _atom_site_label
 _atom_site_symmetry_multiplicity
 _atom_site_fract_x
 _atom_site_fract_y
 _atom_site_fract_z
 _atom_site_occupancy
 _atom_site_hle17_bader_spin_density
 _atom_site_hle17_ddec_charge
 _atom_site_hle17_ddec_spin_density
 _atom_site_hle17_ddec_sum_bond_order
 _atom_site_hle17_magmom
 _atom_site_hse06_10hf_bader_spin_density
 _atom_site_hse06_10hf_ddec_charge
 _atom_site_hse06_10hf_ddec_spin_density
 _atom_site_hse06_10hf_ddec_sum_bond_order
 _atom_site_hse06_10hf_magmom
 _atom_site_hse06_bader_spin_density
 _atom_site_hse06_ddec_charge
 _atom_site_hse06_ddec_spin_density
 _atom_site_hse06_ddec_sum_bond_order
 _atom_site_hse06_magmom
 _atom_site_pbe_bader_spin_density
 _atom_site_pbe_cm5_charge
 _atom_site_pbe_ddec_charge
 _atom_site_pbe_ddec_spin_density
 _atom_site_pbe_ddec_sum_bond_order
 _atom_site_pbe_magmom
Zn  Zn0  1  0.09783654  0.24600544  0.23816031  1  0  1.057254  0  1.8015  0  0  0.873253  0  2.260118  0  0  0.920581  0  2.204641  0  0  0.690439  0.839738  0  2.298906  0
Zn  Zn1  1  0.90216337  0.75399418  0.76184048  1  0  1.057239  0  1.801517  0  0  0.873234  0  2.260141  0  0  0.920564  0  2.20467  0  0  0.690427  0.839722  0  2.298928  0
H  H2  1  0.29875377  0.87215256  0.11531692  1  0  0.112642  0  0.940642  0  0  0.126334  0  0.996958  0  0  0.129125  0  0.995472  0  0  0.107451  0.12405  0  0.99847  0
H  H3  1  0.70124390  0.12784934  0.88468106  1  0  0.112679  0  0.940678  0  0  0.126369  0  0.996988  0  0  0.129161  0  0.9955  0  0  0.10747  0.124089  0  0.998496  0
H  H4  1  0.51805333  0.79802310  0.07415678  1  0  0.107818  0  0.962105  0  0  0.11428  0  1.030374  0  0  0.116725  0  1.030232  0  0  0.100205  0.11292  0  1.029838  0
H  H5  1  0.48194303  0.20197539  0.92584068  1  0  0.107843  0  0.962074  0  0  0.114295  0  1.030352  0  0  0.116739  0  1.030212  0  0  0.10019  0.112935  0  1.029815  0
H  H6  1  0.94796655  0.43418509  0.09923298  1  0  0.110987  0  0.945186  0  0  0.121033  0  1.002906  0  0  0.123378  0  1.002317  0  0  0.122221  0.119357  0  1.003374  0
H  H7  1  0.05203600  0.56581338  0.90076826  1  0  0.110999  0  0.94516  0  0  0.121028  0  1.002892  0  0  0.123371  0  1.002309  0  0  0.122217  0.119348  0  1.00336  0
H  H8  1  0.09563679  0.74314574  0.19138305  1  0  0.125244  0  0.97282  0  0  0.130538  0  1.041836  0  0  0.134669  0  1.038288  0  0  0.120297  0.127596  0  1.044342  0
H  H9  1  0.90436373  0.25685275  0.80861946  1  0  0.12525  0  0.972742  0  0  0.130516  0  1.041797  0  0  0.134648  0  1.038248  0  0  0.120299  0.127578  0  1.044305  0
H  H10  1  0.38194664  0.58437421  0.43905354  1  0  0.110708  0  0.970518  0  0  0.113371  0  1.045778  0  0  0.116714  0  1.041357  0  0  0.133579  0.110918  0  1.048838  0
H  H11  1  0.61805576  0.41562654  0.56094837  1  0  0.110725  0  0.970542  0  0  0.113348  0  1.045844  0  0  0.11669  0  1.041429  0  0  0.133589  0.110895  0  1.0489  0
H  H12  1  0.56062430  0.77408355  0.40808096  1  0  0.10208  0  0.970823  0  0  0.11113  0  1.035243  0  0  0.11318  0  1.035438  0  0  0.107314  0.109604  0  1.035307  0
H  H13  1  0.43937766  0.22591606  0.59192046  1  0  0.102151  0  0.97074  0  0  0.111188  0  1.035161  0  0  0.113235  0  1.035364  0  0  0.107345  0.109659  0  1.035229  0
H  H14  1  0.76268689  0.03186263  0.54905288  1  0  0.110026  0  0.938085  0  0  0.121504  0  0.997165  0  0  0.123999  0  0.996773  0  0  0.111003  0.119912  0  0.997252  0
H  H15  1  0.23731508  0.96813698  0.45094854  1  0  0.110006  0  0.938133  0  0  0.121488  0  0.997211  0  0  0.123981  0  0.996822  0  0  0.111012  0.119895  0  0.997301  0
H  H16  1  0.97086321  0.08912423  0.41840001  1  0  0.098336  0  0.985481  0  0  0.107017  0  1.048773  0  0  0.10888  0  1.048678  0  0  0.114832  0.105612  0  1.048945  0
H  H17  1  0.02913598  0.91087883  0.58160352  1  0  0.098273  0  0.985448  0  0  0.106977  0  1.04873  0  0  0.10884  0  1.048634  0  0  0.11481  0.105572  0  1.048905  0
H  H18  1  0.12707276  0.17493896  0.72127472  1  0  0.12537  0  0.996433  0  0  0.130968  0  1.063216  0  0  0.134704  0  1.060476  0  0  0.121049  0.128361  0  1.065046  0
H  H19  1  0.87292637  0.82506407  0.27872407  1  0  0.125423  0  0.996333  0  0  0.131016  0  1.063121  0  0  0.134749  0  1.060389  0  0  0.12108  0.128406  0  1.064949  0
H  H20  1  0.36719830  0.47608684  0.59953827  1  0  0.105751  0  0.977466  0  0  0.107774  0  1.054853  0  0  0.111482  0  1.049665  0  0  0.129993  0.105033  0  1.058432  0
H  H21  1  0.63280217  0.52391163  0.40046045  1  0  0.105729  0  0.977435  0  0  0.107758  0  1.054819  0  0  0.111467  0  1.049627  0  0  0.129988  0.105013  0  1.058406  0
H  H22  1  0.56813829  0.50882828  0.79703764  1  0  0.110454  0  0.97672  0  0  0.118855  0  1.042238  0  0  0.121333  0  1.041685  0  0  0.1067  0.116849  0  1.043171  0
H  H23  1  0.43186205  0.49117248  0.20296269  1  0  0.110459  0  0.976727  0  0  0.118851  0  1.042261  0  0  0.121332  0  1.041705  0  0  0.106701  0.116847  0  1.043192  0
H  H24  1  0.76384596  0.63109722  0.05428112  1  0  0.120914  0  0.936773  0  0  0.135492  0  0.988159  0  0  0.138135  0  0.987128  0  0  0.116086  0.133599  0  0.988878  0
H  H25  1  0.23615437  0.36890354  0.94571921  1  0  0.120914  0  0.936791  0  0  0.135489  0  0.988178  0  0  0.138132  0  0.987147  0  0  0.116076  0.133593  0  0.988899  0
H  H26  1  0.07358102  0.12867142  0.94645490  1  0  0.415414  0  0.894568  0  0  0.383379  0  0.961614  0  0  0.394645  0  0.945131  0  0  0.280106  0.375359  0  0.973344  0
H  H27  1  0.92641991  0.87132820  0.05354621  1  0  0.415402  0  0.894586  0  0  0.383373  0  0.961621  0  0  0.394638  0  0.945138  0  0  0.280112  0.375352  0  0.97335  0
H  H28  1  0.91163016  0.07140998  0.92966030  1  0  0.412668  0  0.890329  0  0  0.381903  0  0.958106  0  0  0.392562  0  0.942333  0  0  0.284892  0.374229  0  0.969522  0
H  H29  1  0.08837077  0.92858964  0.07033985  1  0  0.412694  0  0.890275  0  0  0.38193  0  0.958066  0  0  0.392591  0  0.942283  0  0  0.284907  0.374254  0  0.969486  0
C  C30  1  0.36114237  0.19655041  0.25850815  1  0  0.659858  0  3.945004  0  0  0.605434  0  4.243936  0  0  0.640526  0  4.235386  0  0  0.197535  0.581633  0  4.248907  0
C  C31  1  0.63885695  0.80345035  0.74149281  1  0  0.659861  0  3.944815  0  0  0.605458  0  4.243739  0  0  0.640549  0  4.235186  0  0  0.197539  0.581665  0  4.2487  0
C  C32  1  0.45009380  0.10958861  0.21811045  1  0  -0.15657  0  3.740188  0  0  -0.137436  0  4.008759  0  0  -0.144479  0  4.029771  0  0  -0.03055  -0.133458  0  3.995531  0
C  C33  1  0.54990594  0.89041328  0.78188911  1  0  -0.156528  0  3.740156  0  0  -0.137428  0  4.00875  0  0  -0.14447  0  4.029762  0  0  -0.030537  -0.133446  0  3.995524  0
C  C34  1  0.40928366  0.95341730  0.14934960  1  0  -0.074621  0  3.742239  0  0  -0.105306  0  4.00448  0  0  -0.104332  0  4.022607  0  0  -0.097719  -0.105329  0  3.9918  0
C  C35  1  0.59071608  0.04658459  0.85064996  1  0  -0.074724  0  3.742272  0  0  -0.105398  0  4.004515  0  0  -0.104425  0  4.022638  0  0  -0.097754  -0.105429  0  3.991844  0
C  C36  1  0.52547535  0.91362515  0.12708474  1  0  -0.080339  0  3.751789  0  0  -0.109547  0  4.016787  0  0  -0.108777  0  4.035452  0  0  -0.099015  -0.109273  0  4.002532  0
C  C37  1  0.47451955  0.08637221  0.87291192  1  0  -0.080315  0  3.751721  0  0  -0.109496  0  4.01673  0  0  -0.108724  0  4.035395  0  0  -0.098962  -0.109223  0  4.002481  0
C  C38  1  0.65249857  0.04006331  0.17658156  1  0  -0.147018  0  3.731391  0  0  -0.127671  0  3.997463  0  0  -0.134215  0  4.017347  0  0  -0.024959  -0.123062  0  3.983157  0
C  C39  1  0.34749925  0.95993631  0.82341575  1  0  -0.146959  0  3.731346  0  0  -0.127653  0  3.997458  0  0  -0.134198  0  4.017341  0  0  -0.024947  -0.123044  0  3.983157  0
C  C40  1  0.79347324  0.04580236  0.16515785  1  0  0.657877  0  3.963055  0  0  0.603197  0  4.264737  0  0  0.637949  0  4.255908  0  0  0.19969  0.579438  0  4.269851  0
C  C41  1  0.20652666  0.95419726  0.83484200  1  0  0.657922  0  3.962851  0  0  0.603244  0  4.264542  0  0  0.637995  0  4.255713  0  0  0.199729  0.579489  0  4.269654  0
C  C42  1  0.05935393  0.51216326  0.18446371  1  0  0.016074  0  3.731747  0  0  -0.017205  0  3.991028  0  0  -0.015107  0  4.011448  0  0  0.002463  -0.018512  0  3.977062  0
C  C43  1  0.94064568  0.48783294  0.81553497  1  0  0.015963  0  3.731803  0  0  -0.017281  0  3.991087  0  0  -0.015186  0  4.011509  0  0  0.002448  -0.018581  0  3.977115  0
C  C44  1  0.13022368  0.66484442  0.23069529  1  0  -0.071572  0  3.663163  0  0  -0.110607  0  3.922128  0  0  -0.110299  0  3.940773  0  0  -0.001482  -0.110605  0  3.909611  0
C  C45  1  0.86977725  0.33515520  0.76930581  1  0  -0.071482  0  3.663207  0  0  -0.110489  0  3.92217  0  0  -0.110182  0  3.940815  0  0  -0.001434  -0.110501  0  3.909664  0
C  C46  1  0.28318007  0.58217574  0.35754822  1  0  0.168897  0  3.629164  0  0  0.103973  0  3.902018  0  0  0.118384  0  3.912923  0  0  0.14592  0.094735  0  3.894362  0
C  C47  1  0.71682187  0.41782386  0.64245129  1  0  0.168855  0  3.629151  0  0  0.103969  0  3.90203  0  0  0.118379  0  3.912934  0  0  0.145885  0.094729  0  3.894369  0
C  C48  1  0.38734034  0.85583556  0.42136595  1  0  0.16757  0  3.784541  0  0  0.15913  0  4.033352  0  0  0.163212  0  4.056773  0  0  0.097115  0.156281  0  4.018422  0
C  C49  1  0.61266119  0.14416292  0.57863593  1  0  0.167592  0  3.784578  0  0  0.159104  0  4.033454  0  0  0.163185  0  4.056876  0  0  0.097127  0.15626  0  4.018513  0
C  C50  1  0.53476383  0.87326557  0.44967983  1  0  -0.113217  0  3.721107  0  0  -0.133554  0  3.973832  0  0  -0.136842  0  3.995633  0  0  -0.081524  -0.131308  0  3.959346  0
C  C51  1  0.46523902  0.12673632  0.55032352  1  0  -0.11326  0  3.721024  0  0  -0.133563  0  3.973751  0  0  -0.13685  0  3.995547  0  0  -0.081548  -0.131312  0  3.959257  0
C  C52  1  0.64806277  0.01769715  0.52868794  1  0  -0.10692  0  3.708772  0  0  -0.129557  0  3.963244  0  0  -0.131973  0  3.983634  0  0  -0.079425  -0.128362  0  3.949854  0
C  C53  1  0.35193626  0.98230020  0.47131187  1  0  -0.106913  0  3.708764  0  0  -0.129566  0  3.963203  0  0  -0.13198  0  3.98359  0  0  -0.079427  -0.128366  0  3.949814  0
C  C54  1  0.07516694  0.18327870  0.50090608  1  0  -0.002351  0  3.757494  0  0  -0.033288  0  4.018636  0  0  -0.031695  0  4.038914  0  0  -0.008264  -0.034284  0  4.005302  0
C  C55  1  0.92482821  0.81672206  0.49908889  1  0  -0.002309  0  3.757954  0  0  -0.033278  0  4.019073  0  0  -0.031685  0  4.03936  0  0  -0.008293  -0.034279  0  4.005747  0
C  C56  1  0.14777350  0.22550266  0.65016148  1  0  -0.072517  0  3.66653  0  0  -0.112801  0  3.92574  0  0  -0.111804  0  3.944336  0  0  -0.003848  -0.113523  0  3.913483  0
C  C57  1  0.85222691  0.77449813  0.34984644  1  0  -0.072569  0  3.666952  0  0  -0.112838  0  3.926151  0  0  -0.111844  0  3.944751  0  0  -0.003853  -0.113545  0  3.91389  0
C  C58  1  0.27812615  0.38207406  0.58782662  1  0  0.161661  0  3.621368  0  0  0.101422  0  3.891422  0  0  0.115137  0  3.902331  0  0  0.139921  0.092799  0  3.883487  0
C  C59  1  0.72187374  0.61792555  0.41217227  1  0  0.161726  0  3.621291  0  0  0.101466  0  3.891357  0  0  0.115192  0  3.902258  0  0  0.139957  0.092844  0  3.883423  0
C  C60  1  0.38920905  0.42965459  0.85409332  1  0  0.170573  0  3.787013  0  0  0.160025  0  4.038546  0  0  0.164747  0  4.061164  0  0  0.094383  0.156533  0  4.023622  0
C  C61  1  0.61079084  0.57034503  0.14590557  1  0  0.170525  0  3.787023  0  0  0.159962  0  4.038576  0  0  0.164687  0  4.061195  0  0  0.094347  0.156473  0  4.023659  0
C  C62  1  0.53776510  0.50390351  0.88534976  1  0  -0.13156  0  3.731422  0  0  -0.152228  0  3.984723  0  0  -0.15542  0  4.005422  0  0  -0.087375  -0.150615  0  3.971653  0
C  C63  1  0.46223524  0.49609725  0.11465152  1  0  -0.131532  0  3.731315  0  0  -0.152188  0  3.984607  0  0  -0.155384  0  4.005305  0  0  -0.087342  -0.150573  0  3.971535  0
C  C64  1  0.64856201  0.57379333  0.03103537  1  0  -0.117062  0  3.718937  0  0  -0.136727  0  3.967298  0  0  -0.138291  0  3.985484  0  0  -0.081359  -0.135667  0  3.955621  0
C  C65  1  0.35143685  0.42620628  0.96896321  1  0  -0.117112  0  3.71885  0  0  -0.136777  0  3.967205  0  0  -0.138338  0  3.985391  0  0  -0.081388  -0.135713  0  3.955527  0
S  S66  1  0.63024868  0.20688761  0.25337035  1  0  0.15951  0  2.646361  0  0  0.153148  0  2.967946  0  0  0.153151  0  2.976718  0  0  0.095421  0.154185  0  2.961764  0
S  S67  1  0.36975075  0.79311086  0.74662711  1  0  0.159474  0  2.646281  0  0  0.153138  0  2.967892  0  0  0.15314  0  2.976664  0  0  0.095412  0.154179  0  2.961712  0
N  N68  1  0.15546981  0.46249650  0.26392872  1  0  -0.362874  0  3.288188  0  0  -0.281791  0  3.580694  0  0  -0.301699  0  3.593053  0  0  -0.350266  -0.268225  0  3.571784  0
N  N69  1  0.84453273  0.53750197  0.73607158  1  0  -0.362823  0  3.288157  0  0  -0.281778  0  3.580686  0  0  -0.301685  0  3.593044  0  0  -0.350279  -0.268215  0  3.571773  0
N  N70  1  0.27232638  0.70768246  0.34037152  1  0  -0.095008  0  3.614745  0  0  -0.005611  0  3.826812  0  0  -0.020264  0  3.85297  0  0  -0.226261  0.003721  0  3.809683  0
N  N71  1  0.72767558  0.29231715  0.65962990  1  0  -0.095021  0  3.614836  0  0  -0.005608  0  3.826904  0  0  -0.020261  0  3.85306  0  0  -0.226251  0.003729  0  3.809769  0
N  N72  1  0.15711668  0.28098210  0.46339052  1  0  -0.36629  0  3.245945  0  0  -0.294294  0  3.532675  0  0  -0.312723  0  3.546435  0  0  -0.341861  -0.282345  0  3.523488  0
N  N73  1  0.84288308  0.71901981  0.53661189  1  0  -0.366307  0  3.245876  0  0  -0.29427  0  3.532589  0  0  -0.312712  0  3.546356  0  0  -0.341837  -0.282323  0  3.523405  0
N  N74  1  0.27671831  0.35228847  0.70476413  1  0  -0.088948  0  3.593727  0  0  0.001594  0  3.80357  0  0  -0.013195  0  3.829218  0  0  -0.225388  0.011285  0  3.786291  0
N  N75  1  0.72328158  0.64771114  0.29523571  1  0  -0.088942  0  3.593683  0  0  0.001593  0  3.803543  0  0  -0.013198  0  3.82919  0  0  -0.225415  0.011267  0  3.786282  0
O  O76  1  0.00421389  0.16484670  0.98347225  1  0  -0.838061  0  1.849959  0  0  -0.781987  0  2.043196  0  0  -0.802547  0  2.009516  0  0  -0.589962  -0.767632  0  2.067064  0
O  O77  1  0.99578646  0.83515406  0.01652903  1  0  -0.83807  0  1.849944  0  0  -0.78201  0  2.043187  0  0  -0.802564  0  2.009515  0  0  -0.589982  -0.767656  0  2.067055  0
O  O78  1  0.21904311  0.11863551  0.20541634  1  0  -0.663221  0  2.100714  0  0  -0.577963  0  2.361287  0  0  -0.607797  0  2.346672  0  0  -0.320054  -0.556856  0  2.371006  0
O  O79  1  0.78095870  0.88136638  0.79458574  1  0  -0.663239  0  2.100527  0  0  -0.577965  0  2.361044  0  0  -0.607808  0  2.346441  0  0  -0.320041  -0.556862  0  2.370765  0
O  O80  1  0.42406032  0.33813520  0.33919079  1  0  -0.625477  0  1.931397  0  0  -0.574273  0  2.166114  0  0  -0.597459  0  2.156726  0  0  -0.321911  -0.558484  0  2.172133  0
O  O81  1  0.57594211  0.66186557  0.66081397  1  0  -0.625464  0  1.931398  0  0  -0.574296  0  2.166157  0  0  -0.597466  0  2.156748  0  0  -0.321928  -0.558508  0  2.172173  0
O  O82  1  0.81725410  0.92475450  0.12942836  1  0  -0.630332  0  1.98763  0  0  -0.572238  0  2.214488  0  0  -0.596401  0  2.204588  0  0  -0.316031  -0.554904  0  2.221263  0
O  O83  1  0.18274581  0.07524513  0.87057338  1  0  -0.630401  0  1.987548  0  0  -0.572301  0  2.214405  0  0  -0.596464  0  2.204507  0  0  -0.316077  -0.554967  0  2.221183  0
O  O84  1  0.88176620  0.17816323  0.19600700  1  0  -0.64373  0  2.06811  0  0  -0.570652  0  2.340717  0  0  -0.597879  0  2.324566  0  0  -0.331378  -0.551286  0  2.350598  0
O  O85  1  0.11823180  0.82183413  0.80399250  1  0  -0.643729  0  2.068038  0  0  -0.570633  0  2.34063  0  0  -0.597862  0  2.324482  0  0  -0.331356  -0.551266  0  2.350511  0
