# generated using pymatgen
data_CdNiH12(C7N4)2
_symmetry_space_group_name_H-M   'P 1'
_cell_length_a   7.33481233
_cell_length_b   7.36011162
_cell_length_c   8.79593888
_cell_angle_alpha   114.72030820
_cell_angle_beta   105.62729850
_cell_angle_gamma   89.97757501
_symmetry_Int_Tables_number   1
_chemical_formula_structural   CdNiH12(C7N4)2
_chemical_formula_sum   'Cd1 Ni1 H12 C14 N8'
_cell_volume   411.95479536
_cell_formula_units_Z   1
loop_
 _symmetry_equiv_pos_site_id
 _symmetry_equiv_pos_as_xyz
  1  'x, y, z'
loop_
 _atom_site_type_symbol
 _atom_site_label
 _atom_site_symmetry_multiplicity
 _atom_site_fract_x
 _atom_site_fract_y
 _atom_site_fract_z
 _atom_site_occupancy
 _atom_site_hle17_bader_spin_density
 _atom_site_hle17_ddec_charge
 _atom_site_hle17_ddec_spin_density
 _atom_site_hle17_ddec_sum_bond_order
 _atom_site_hle17_magmom
 _atom_site_hse06_10hf_bader_spin_density
 _atom_site_hse06_10hf_ddec_charge
 _atom_site_hse06_10hf_ddec_spin_density
 _atom_site_hse06_10hf_ddec_sum_bond_order
 _atom_site_hse06_10hf_magmom
 _atom_site_hse06_bader_spin_density
 _atom_site_hse06_ddec_charge
 _atom_site_hse06_ddec_spin_density
 _atom_site_hse06_ddec_sum_bond_order
 _atom_site_hse06_magmom
 _atom_site_pbe_bader_spin_density
 _atom_site_pbe_cm5_charge
 _atom_site_pbe_ddec_charge
 _atom_site_pbe_ddec_spin_density
 _atom_site_pbe_ddec_sum_bond_order
 _atom_site_pbe_magmom
Cd  Cd0  1  0.50000395  0.00000492  0.00000262  1  0  1.079304  0  1.95264  0  0  0.877838  0  2.437808  0  0  0.925456  0  2.395189  0  0  0.836913  0.844617  0  2.4667  0
Ni  Ni1  1  0.99999999  0.49999333  0.99999616  1  0  0.117847  0  3.423678  0  0  0.14248  0  3.87135  0  0  0.15196  0  3.820264  0  0  0.408778  0.144304  0  3.9012  0
H  H2  1  0.82192068  0.88931213  0.77939895  1  0  0.095208  0  0.930516  0  0  0.102903  0  0.994709  0  0  0.104501  0  0.994559  0  0  0.117538  0.101777  0  0.994841  0
H  H3  1  0.17808669  0.11065885  0.22060208  1  0  0.095393  0  0.930496  0  0  0.103151  0  0.994609  0  0  0.10475  0  0.994453  0  0  0.117612  0.102017  0  0.994748  0
H  H4  1  0.51679985  0.61419917  0.22845077  1  0  0.114711  0  0.933808  0  0  0.125709  0  0.99345  0  0  0.127601  0  0.993255  0  0  0.111337  0.124372  0  0.993596  0
H  H5  1  0.48318988  0.38594434  0.77155090  1  0  0.114703  0  0.933827  0  0  0.125707  0  0.993452  0  0  0.127598  0  0.993259  0  0  0.111259  0.124368  0  0.993598  0
H  H6  1  0.21127499  0.65491144  0.30984474  1  0  0.084848  0  0.986718  0  0  0.087873  0  1.062983  0  0  0.092748  0  1.057579  0  0  0.094214  0.083984  0  1.067288  0
H  H7  1  0.78871716  0.34518818  0.69016257  1  0  0.085082  0  0.986517  0  0  0.087988  0  1.062908  0  0  0.092872  0  1.057499  0  0  0.094275  0.084095  0  1.06721  0
H  H8  1  0.22725579  0.81325929  0.62662217  1  0  0.07932  0  0.976583  0  0  0.079781  0  1.057165  0  0  0.083286  0  1.053192  0  0  0.106766  0.077279  0  1.059953  0
H  H9  1  0.77275905  0.18675695  0.37338627  1  0  0.079321  0  0.976343  0  0  0.079743  0  1.056967  0  0  0.083243  0  1.053005  0  0  0.106819  0.077241  0  1.059753  0
H  H10  1  0.88142557  0.58399778  0.38856543  1  0  0.282929  0  0.920584  0  0  0.281807  0  0.974293  0  0  0.285361  0  0.971969  0  0  0.283574  0.279279  0  0.976004  0
H  H11  1  0.11868148  0.19572187  0.61143397  1  0  0.283369  0  0.919672  0  0  0.281423  0  0.974549  0  0  0.284974  0  0.972237  0  0  0.283657  0.278912  0  0.976232  0
H  H12  1  0.11905534  0.41610838  0.61213725  1  0  0.283132  0  0.920636  0  0  0.281699  0  0.974855  0  0  0.28528  0  0.972485  0  0  0.28348  0.279168  0  0.976562  0
H  H13  1  0.88081674  0.80367427  0.38784495  1  0  0.283271  0  0.920273  0  0  0.281349  0  0.975149  0  0  0.28493  0  0.972789  0  0  0.283283  0.278826  0  0.976833  0
C  C14  1  0.68864218  0.83590640  0.67233388  1  0  0.04403  0  3.667903  0  0  0.007649  0  3.914826  0  0  0.012349  0  3.935066  0  0  0.045512  0.004676  0  3.900864  0
C  C15  1  0.31134487  0.16404967  0.32765600  1  0  0.043757  0  3.667873  0  0  0.007358  0  3.914909  0  0  0.012065  0  3.935134  0  0  0.045319  0.00439  0  3.900951  0
C  C16  1  0.69327428  0.74907876  0.49861415  1  0  0.223731  0  3.790719  0  0  0.234512  0  4.03905  0  0  0.233822  0  4.062822  0  0  0.087402  0.234644  0  4.022957  0
C  C17  1  0.30672696  0.25097241  0.50138855  1  0  0.223329  0  3.791394  0  0  0.234053  0  4.03979  0  0  0.233363  0  4.063558  0  0  0.087244  0.234186  0  4.023698  0
C  C18  1  0.51866172  0.68268291  0.36548824  1  0  -0.094815  0  3.673835  0  0  -0.121467  0  3.91874  0  0  -0.119896  0  3.939677  0  0  -0.066949  -0.122111  0  3.904251  0
C  C19  1  0.48132103  0.31743043  0.63451370  1  0  -0.094658  0  3.673972  0  0  -0.121172  0  3.918671  0  0  -0.119606  0  3.939611  0  0  -0.066847  -0.121819  0  3.904186  0
C  C20  1  0.34949046  0.70531111  0.41077289  1  0  -0.09806  0  3.752001  0  0  -0.104969  0  4.002531  0  0  -0.113393  0  4.026651  0  0  -0.083291  -0.099341  0  3.986345  0
C  C21  1  0.65051486  0.29476114  0.58924271  1  0  -0.09826  0  3.751597  0  0  -0.105123  0  4.002204  0  0  -0.113557  0  4.026308  0  0  -0.083328  -0.099487  0  3.986024  0
C  C22  1  0.35744238  0.79328086  0.58686562  1  0  0.108344  0  3.717598  0  0  0.076411  0  3.966207  0  0  0.082321  0  3.986509  0  0  0.035855  0.072694  0  3.952097  0
C  C23  1  0.64254652  0.20670085  0.41313710  1  0  0.108536  0  3.717827  0  0  0.076707  0  3.966425  0  0  0.082619  0  3.98673  0  0  0.035949  0.072994  0  3.952302  0
C  C24  1  0.15486554  0.64893672  0.94996224  1  0  0.075603  0  3.508667  0  0  0.043624  0  3.840626  0  0  0.051943  0  3.843719  0  0  0.020106  0.035578  0  3.838361  0
C  C25  1  0.84551642  0.69935258  0.05060526  1  0  0.074861  0  3.508403  0  0  0.042676  0  3.840778  0  0  0.050998  0  3.843849  0  0  0.019775  0.034446  0  3.838772  0
C  C26  1  0.84513535  0.35104796  0.05002843  1  0  0.075711  0  3.508649  0  0  0.043704  0  3.840678  0  0  0.052024  0  3.843777  0  0  0.020099  0.035664  0  3.838402  0
C  C27  1  0.15448902  0.30064564  0.94939351  1  0  0.074881  0  3.508051  0  0  0.042663  0  3.840489  0  0  0.050993  0  3.843565  0  0  0.019666  0.03441  0  3.838515  0
N  N28  1  0.52459913  0.85719443  0.71492629  1  0  -0.329387  0  3.31229  0  0  -0.24816  0  3.574725  0  0  -0.268653  0  3.597463  0  0  -0.33167  -0.233911  0  3.558634  0
N  N29  1  0.47541478  0.14273111  0.28507628  1  0  -0.329302  0  3.312582  0  0  -0.248174  0  3.57509  0  0  -0.268671  0  3.59783  0  0  -0.331613  -0.233926  0  3.558996  0
N  N30  1  0.25794382  0.73944566  0.91741204  1  0  -0.437085  0  2.953798  0  0  -0.372718  0  3.244305  0  0  -0.390789  0  3.254777  0  0  -0.364076  -0.359951  0  3.237492  0
N  N31  1  0.74257957  0.82258673  0.08332832  1  0  -0.436731  0  2.952513  0  0  -0.372166  0  3.24272  0  0  -0.390253  0  3.253272  0  0  -0.363974  -0.359343  0  3.235888  0
N  N32  1  0.74204313  0.26052862  0.08256373  1  0  -0.437078  0  2.953929  0  0  -0.372739  0  3.244552  0  0  -0.390815  0  3.255027  0  0  -0.364071  -0.359968  0  3.237725  0
N  N33  1  0.25746225  0.17741105  0.91669936  1  0  -0.436744  0  2.952217  0  0  -0.372192  0  3.242512  0  0  -0.390288  0  3.253069  0  0  -0.363934  -0.359351  0  3.235667  0
N  N34  1  0.87494421  0.73240990  0.46495684  1  0  -0.669459  0  2.980445  0  0  -0.655018  0  3.197637  0  0  -0.66563  0  3.198942  0  0  -0.618226  -0.647402  0  3.196708  0
N  N35  1  0.12504994  0.26780620  0.53503494  1  0  -0.669642  0  2.980173  0  0  -0.654909  0  3.197741  0  0  -0.665505  0  3.199028  0  0  -0.618452  -0.647309  0  3.196818  0
