# generated using pymatgen
data_HgH8C12S(IN2)2
_symmetry_space_group_name_H-M   'P 1'
_cell_length_a   5.87055253
_cell_length_b   13.69140901
_cell_length_c   20.54440801
_cell_angle_alpha   104.59239310
_cell_angle_beta   90.00007972
_cell_angle_gamma   89.99987376
_symmetry_Int_Tables_number   1
_chemical_formula_structural   HgH8C12S(IN2)2
_chemical_formula_sum   'Hg4 H32 C48 S4 I8 N16'
_cell_volume   1598.01417021
_cell_formula_units_Z   4
loop_
 _symmetry_equiv_pos_site_id
 _symmetry_equiv_pos_as_xyz
  1  'x, y, z'
loop_
 _atom_site_type_symbol
 _atom_site_label
 _atom_site_symmetry_multiplicity
 _atom_site_fract_x
 _atom_site_fract_y
 _atom_site_fract_z
 _atom_site_occupancy
 _atom_site_hle17_bader_spin_density
 _atom_site_hle17_ddec_charge
 _atom_site_hle17_ddec_spin_density
 _atom_site_hle17_ddec_sum_bond_order
 _atom_site_hle17_magmom
 _atom_site_hse06_10hf_bader_spin_density
 _atom_site_hse06_10hf_ddec_charge
 _atom_site_hse06_10hf_ddec_spin_density
 _atom_site_hse06_10hf_ddec_sum_bond_order
 _atom_site_hse06_10hf_magmom
 _atom_site_hse06_bader_spin_density
 _atom_site_hse06_ddec_charge
 _atom_site_hse06_ddec_spin_density
 _atom_site_hse06_ddec_sum_bond_order
 _atom_site_hse06_magmom
 _atom_site_pbe_bader_spin_density
 _atom_site_pbe_cm5_charge
 _atom_site_pbe_ddec_charge
 _atom_site_pbe_ddec_spin_density
 _atom_site_pbe_ddec_sum_bond_order
 _atom_site_pbe_magmom
Hg  Hg0  1  0.71586711  0.95873598  0.68041153  1  0  0.521788  0  2.235162  0  0  0.388432  0  2.730519  0  0  0.430944  0  2.708388  0  0  0.387545  0.359982  0  2.744868  0
Hg  Hg1  1  0.21588203  0.54126592  0.81958484  1  0  0.521769  0  2.235315  0  0  0.388395  0  2.730686  0  0  0.430905  0  2.708554  0  0  0.387572  0.359948  0  2.745058  0
Hg  Hg2  1  0.28414294  0.04127005  0.31958929  1  0  0.5218  0  2.235272  0  0  0.388448  0  2.730648  0  0  0.430962  0  2.708513  0  0  0.387562  0.360002  0  2.745  0
Hg  Hg3  1  0.78412120  0.45872857  0.18041714  1  0  0.521807  0  2.235263  0  0  0.388436  0  2.730639  0  0  0.430948  0  2.708502  0  0  0.387593  0.359993  0  2.745011  0
H  H4  1  0.55518268  0.93585890  0.82853591  1  0  0.076043  0  0.950884  0  0  0.080253  0  1.023754  0  0  0.08341  0  1.020803  0  0  0.101651  0.077967  0  1.02591  0
H  H5  1  0.05518444  0.56414460  0.67146074  1  0  0.076092  0  0.950771  0  0  0.080248  0  1.023691  0  0  0.083403  0  1.020741  0  0  0.101629  0.077957  0  1.02584  0
H  H6  1  0.44483929  0.06415191  0.17146195  1  0  0.076236  0  0.950879  0  0  0.080436  0  1.023717  0  0  0.08359  0  1.020768  0  0  0.101724  0.07815  0  1.025871  0
H  H7  1  0.94480857  0.43586001  0.32853835  1  0  0.076025  0  0.95085  0  0  0.08024  0  1.023723  0  0  0.083398  0  1.020771  0  0  0.101645  0.077955  0  1.025879  0
H  H8  1  0.25355365  0.98583491  0.91666759  1  0  0.12499  0  0.962451  0  0  0.126087  0  1.036745  0  0  0.130561  0  1.033735  0  0  0.110265  0.122865  0  1.039021  0
H  H9  1  0.75355637  0.51416284  0.58333334  1  0  0.125003  0  0.962497  0  0  0.126074  0  1.036818  0  0  0.130548  0  1.033808  0  0  0.110272  0.122853  0  1.039079  0
H  H10  1  0.74646321  0.01416958  0.08333343  1  0  0.124932  0  0.962594  0  0  0.126035  0  1.036871  0  0  0.130507  0  1.033865  0  0  0.110262  0.122819  0  1.039135  0
H  H11  1  0.24645027  0.48583584  0.41666313  1  0  0.125035  0  0.962523  0  0  0.126108  0  1.036782  0  0  0.130575  0  1.033786  0  0  0.110315  0.122889  0  1.039066  0
H  H12  1  0.95606226  0.16828854  0.79373998  1  0  0.10385  0  0.960421  0  0  0.111414  0  1.025317  0  0  0.114928  0  1.023213  0  0  0.094197  0.108897  0  1.026979  0
H  H13  1  0.45608119  0.33171310  0.70626464  1  0  0.103904  0  0.960409  0  0  0.111449  0  1.025299  0  0  0.114963  0  1.023194  0  0  0.094231  0.108934  0  1.026966  0
H  H14  1  0.04394268  0.83171700  0.20626806  1  0  0.103928  0  0.960243  0  0  0.111484  0  1.02515  0  0  0.115  0  1.023044  0  0  0.094218  0.108953  0  1.026829  0
H  H15  1  0.54392375  0.66828545  0.29373375  1  0  0.1039  0  0.960377  0  0  0.111428  0  1.025298  0  0  0.114942  0  1.023192  0  0  0.094191  0.108894  0  1.026985  0
H  H16  1  0.27720441  0.11544483  0.71377445  1  0  0.067025  0  0.955387  0  0  0.071814  0  1.02873  0  0  0.074484  0  1.026276  0  0  0.09693  0.069857  0  1.03051  0
H  H17  1  0.77721632  0.38456410  0.78622571  1  0  0.067042  0  0.955406  0  0  0.071806  0  1.028766  0  0  0.074499  0  1.026297  0  0  0.096918  0.06985  0  1.030559  0
H  H18  1  0.72278860  0.88457333  0.28622777  1  0  0.066989  0  0.955468  0  0  0.071809  0  1.028766  0  0  0.074468  0  1.026321  0  0  0.096881  0.069845  0  1.030553  0
H  H19  1  0.22278010  0.61543731  0.21377567  1  0  0.067036  0  0.955537  0  0  0.071794  0  1.02887  0  0  0.074499  0  1.026386  0  0  0.09691  0.069844  0  1.030657  0
H  H20  1  0.24472461  0.11846105  0.04798605  1  0  0.124415  0  0.961022  0  0  0.126023  0  1.03485  0  0  0.130467  0  1.031875  0  0  0.11029  0.122841  0  1.037066  0
H  H21  1  0.74473435  0.38154519  0.45202090  1  0  0.124402  0  0.961047  0  0  0.125996  0  1.034875  0  0  0.130444  0  1.031895  0  0  0.110278  0.122826  0  1.037098  0
H  H22  1  0.75528203  0.88153688  0.95202147  1  0  0.124399  0  0.960951  0  0  0.126039  0  1.034726  0  0  0.130486  0  1.031748  0  0  0.110293  0.122859  0  1.03694  0
H  H23  1  0.25526548  0.61845319  0.54797990  1  0  0.124397  0  0.96089  0  0  0.125999  0  1.034723  0  0  0.130447  0  1.031744  0  0  0.110276  0.122813  0  1.036942  0
H  H24  1  0.94390911  0.22615438  0.11715935  1  0  0.076004  0  0.949866  0  0  0.080544  0  1.02246  0  0  0.083735  0  1.019447  0  0  0.101613  0.078238  0  1.024637  0
H  H25  1  0.44391099  0.27385637  0.38284706  1  0  0.076029  0  0.949801  0  0  0.080578  0  1.022405  0  0  0.083775  0  1.019392  0  0  0.101607  0.078285  0  1.02459  0
H  H26  1  0.05611116  0.77384250  0.88285235  1  0  0.076076  0  0.949798  0  0  0.080625  0  1.022405  0  0  0.083815  0  1.019388  0  0  0.101632  0.07832  0  1.024582  0
H  H27  1  0.55608373  0.72614199  0.61715422  1  0  0.07602  0  0.949818  0  0  0.080522  0  1.022458  0  0  0.083717  0  1.019447  0  0  0.101601  0.078215  0  1.024632  0
H  H28  1  0.22211573  0.48806954  0.08453244  1  0  0.068517  0  0.954577  0  0  0.072731  0  1.027975  0  0  0.075489  0  1.025385  0  0  0.098264  0.070765  0  1.029845  0
H  H29  1  0.72214475  0.01192898  0.41546470  1  0  0.068527  0  0.954486  0  0  0.072745  0  1.02787  0  0  0.075503  0  1.02528  0  0  0.098212  0.070768  0  1.029722  0
H  H30  1  0.77787217  0.51192767  0.91546325  1  0  0.068528  0  0.954519  0  0  0.072712  0  1.027957  0  0  0.075469  0  1.02537  0  0  0.098274  0.070747  0  1.029824  0
H  H31  1  0.27787892  0.98806190  0.58453413  1  0  0.068389  0  0.954732  0  0  0.072635  0  1.028113  0  0  0.075391  0  1.025524  0  0  0.098192  0.07066  0  1.029979  0
H  H32  1  0.54379251  0.39382914  0.01821971  1  0  0.104211  0  0.958017  0  0  0.112632  0  1.021253  0  0  0.115966  0  1.019476  0  0  0.095421  0.110226  0  1.022717  0
H  H33  1  0.04382862  0.10617306  0.48178104  1  0  0.104261  0  0.957805  0  0  0.112644  0  1.021108  0  0  0.115983  0  1.019326  0  0  0.095421  0.11023  0  1.022554  0
H  H34  1  0.45617836  0.60616040  0.98177643  1  0  0.104179  0  0.957898  0  0  0.112618  0  1.021095  0  0  0.11596  0  1.019323  0  0  0.095417  0.110212  0  1.022557  0
H  H35  1  0.95618994  0.89383303  0.51821882  1  0  0.104233  0  0.957894  0  0  0.112655  0  1.021141  0  0  0.115994  0  1.019362  0  0  0.095412  0.110241  0  1.022599  0
C  C36  1  0.42048988  0.98859432  0.82373205  1  0  0.125785  0  3.713383  0  0  0.093096  0  3.973592  0  0  0.100429  0  3.99022  0  0  0.037775  0.088274  0  3.962277  0
C  C37  1  0.92048309  0.51140663  0.67626516  1  0  0.125672  0  3.713421  0  0  0.09302  0  3.973586  0  0  0.100357  0  3.990212  0  0  0.037726  0.088199  0  3.962246  0
C  C38  1  0.57951505  0.01141744  0.17626308  1  0  0.125774  0  3.71349  0  0  0.093081  0  3.973671  0  0  0.10042  0  3.990286  0  0  0.037713  0.088255  0  3.962364  0
C  C39  1  0.07951163  0.48859349  0.32373257  1  0  0.125846  0  3.713425  0  0  0.093134  0  3.973592  0  0  0.100468  0  3.990218  0  0  0.037793  0.088315  0  3.96228  0
C  C40  1  0.25115497  0.01566547  0.87220501  1  0  -0.123641  0  3.650157  0  0  -0.143927  0  3.898975  0  0  -0.149592  0  3.917537  0  0  -0.07726  -0.140305  0  3.88662  0
C  C41  1  0.75113438  0.48433593  0.62779367  1  0  -0.123726  0  3.650409  0  0  -0.143876  0  3.899149  0  0  -0.149541  0  3.917709  0  0  -0.077298  -0.140246  0  3.886769  0
C  C42  1  0.74886359  0.98433472  0.12779175  1  0  -0.123807  0  3.650539  0  0  -0.143992  0  3.89928  0  0  -0.149656  0  3.91784  0  0  -0.077266  -0.140366  0  3.886922  0
C  C43  1  0.24884841  0.51566656  0.37220305  1  0  -0.123772  0  3.650397  0  0  -0.14399  0  3.899246  0  0  -0.149652  0  3.917805  0  0  -0.077353  -0.140366  0  3.886878  0
C  C44  1  0.08004134  0.08243453  0.86269256  1  0  0.07623  0  3.798782  0  0  0.090681  0  4.030715  0  0  0.092842  0  4.05303  0  0  0.003875  0.089376  0  4.015499  0
C  C45  1  0.58003149  0.41756707  0.63730467  1  0  0.076396  0  3.79884  0  0  0.090627  0  4.030985  0  0  0.09279  0  4.053302  0  0  0.003836  0.089325  0  4.015757  0
C  C46  1  0.91996359  0.91756569  0.13730372  1  0  0.076493  0  3.798876  0  0  0.090773  0  4.030937  0  0  0.092931  0  4.053253  0  0  0.003888  0.089473  0  4.015715  0
C  C47  1  0.41995470  0.58243617  0.36269220  1  0  0.076319  0  3.798791  0  0  0.090712  0  4.030769  0  0  0.092871  0  4.053081  0  0  0.003938  0.089426  0  4.015538  0
C  C48  1  0.08766210  0.11857934  0.80465006  1  0  -0.157561  0  3.750992  0  0  -0.174226  0  3.99671  0  0  -0.180576  0  4.01662  0  0  -0.09409  -0.170187  0  3.983464  0
C  C49  1  0.58765803  0.38142744  0.69534964  1  0  -0.157585  0  3.75105  0  0  -0.174181  0  3.996842  0  0  -0.180535  0  4.016764  0  0  -0.09406  -0.17015  0  3.983614  0
C  C50  1  0.91233092  0.88142295  0.19534955  1  0  -0.157611  0  3.750803  0  0  -0.174244  0  3.996595  0  0  -0.180595  0  4.016504  0  0  -0.09406  -0.170196  0  3.983347  0
C  C51  1  0.41233839  0.61857587  0.30464627  1  0  -0.157541  0  3.75088  0  0  -0.174154  0  3.996593  0  0  -0.180507  0  4.016515  0  0  -0.094037  -0.170099  0  3.983357  0
C  C52  1  0.26537273  0.08825290  0.75929596  1  0  0.118944  0  3.745114  0  0  0.089172  0  3.999321  0  0  0.095485  0  4.018017  0  0  0.035295  0.085094  0  3.986608  0
C  C53  1  0.76537731  0.41175085  0.74070172  1  0  0.118915  0  3.745168  0  0  0.089144  0  3.999359  0  0  0.095432  0  4.018054  0  0  0.035293  0.085051  0  3.986683  0
C  C54  1  0.73462198  0.91175709  0.24070272  1  0  0.119006  0  3.745006  0  0  0.089204  0  3.999223  0  0  0.095525  0  4.017927  0  0  0.035372  0.085127  0  3.986506  0
C  C55  1  0.23462081  0.58825022  0.25929326  1  0  0.1189  0  3.745222  0  0  0.089133  0  3.999432  0  0  0.095414  0  4.018115  0  0  0.035269  0.085049  0  3.986745  0
C  C56  1  0.89905633  0.11227441  0.91241770  1  0  0.100067  0  3.73977  0  0  0.091459  0  4.021925  0  0  0.097967  0  4.039179  0  0  0.12415  0.087107  0  4.010053  0
C  C57  1  0.39903482  0.38772411  0.58757704  1  0  0.099896  0  3.740157  0  0  0.091408  0  4.022241  0  0  0.097919  0  4.039492  0  0  0.124259  0.08705  0  4.010371  0
C  C58  1  0.10094861  0.88771968  0.08757884  1  0  0.099951  0  3.740004  0  0  0.091446  0  4.02209  0  0  0.097966  0  4.03933  0  0  0.124195  0.087086  0  4.010226  0
C  C59  1  0.60093605  0.61227995  0.41241902  1  0  0.100169  0  3.73979  0  0  0.09157  0  4.021959  0  0  0.098089  0  4.039199  0  0  0.12417  0.087195  0  4.010109  0
C  C60  1  0.59986985  0.18757235  0.98708234  1  0  0.10072  0  3.742072  0  0  0.09334  0  4.023565  0  0  0.099829  0  4.040819  0  0  0.125039  0.08901  0  4.011688  0
C  C61  1  0.09990112  0.31243868  0.51292209  1  0  0.100666  0  3.742383  0  0  0.093293  0  4.023886  0  0  0.099782  0  4.041137  0  0  0.125087  0.088959  0  4.012023  0
C  C62  1  0.40012145  0.81242198  0.01292204  1  0  0.100404  0  3.742219  0  0  0.093019  0  4.023745  0  0  0.099507  0  4.041  0  0  0.124959  0.088693  0  4.01187  0
C  C63  1  0.90010722  0.68757105  0.48708043  1  0  0.100794  0  3.742033  0  0  0.09343  0  4.02353  0  0  0.099921  0  4.04078  0  0  0.125093  0.089111  0  4.011646  0
C  C64  1  0.41873667  0.24768039  0.02662366  1  0  0.079699  0  3.794626  0  0  0.09212  0  4.028797  0  0  0.094344  0  4.051011  0  0  0.00504  0.09075  0  4.013693  0
C  C65  1  0.91875426  0.25232496  0.47337243  1  0  0.079855  0  3.794509  0  0  0.092216  0  4.028752  0  0  0.094447  0  4.050964  0  0  0.005021  0.090849  0  4.013653  0
C  C66  1  0.58126486  0.75231115  0.97337677  1  0  0.079963  0  3.794732  0  0  0.092334  0  4.0289  0  0  0.094561  0  4.051122  0  0  0.005056  0.090959  0  4.013811  0
C  C67  1  0.08125408  0.74768096  0.52662984  1  0  0.079739  0  3.794657  0  0  0.092102  0  4.028869  0  0  0.094327  0  4.051087  0  0  0.005009  0.090717  0  4.013773  0
C  C68  1  0.24741064  0.20015627  0.05521076  1  0  -0.12408  0  3.646674  0  0  -0.144211  0  3.895866  0  0  -0.149874  0  3.914484  0  0  -0.0777  -0.140597  0  3.883471  0
C  C69  1  0.74741748  0.29984928  0.44479508  1  0  -0.124096  0  3.646968  0  0  -0.144206  0  3.896202  0  0  -0.149874  0  3.914819  0  0  -0.077628  -0.140603  0  3.883854  0
C  C70  1  0.75259259  0.79982972  0.94479248  1  0  -0.124203  0  3.646885  0  0  -0.144299  0  3.896015  0  0  -0.149966  0  3.914635  0  0  -0.07769  -0.140683  0  3.883624  0
C  C71  1  0.25258064  0.70015730  0.55520878  1  0  -0.12413  0  3.647033  0  0  -0.144193  0  3.896138  0  0  -0.14986  0  3.91476  0  0  -0.077657  -0.140582  0  3.883754  0
C  C72  1  0.07843671  0.25960063  0.09303674  1  0  0.126393  0  3.708866  0  0  0.093699  0  3.968771  0  0  0.101051  0  3.985377  0  0  0.037636  0.088876  0  3.95746  0
C  C73  1  0.57845219  0.24040080  0.40696387  1  0  0.126359  0  3.708864  0  0  0.093642  0  3.968762  0  0  0.100984  0  3.985387  0  0  0.037661  0.088807  0  3.957497  0
C  C74  1  0.92157334  0.74038996  0.90696643  1  0  0.126252  0  3.708975  0  0  0.093488  0  3.968892  0  0  0.100843  0  3.985497  0  0  0.037586  0.08867  0  3.957575  0
C  C75  1  0.42154423  0.75959454  0.59303681  1  0  0.126491  0  3.709358  0  0  0.093806  0  3.969193  0  0  0.101149  0  3.985814  0  0  0.037705  0.088978  0  3.957882  0
C  C76  1  0.23403138  0.40610410  0.07537956  1  0  0.117978  0  3.747105  0  0  0.088807  0  4.001499  0  0  0.095185  0  4.020032  0  0  0.034055  0.084696  0  3.988761  0
C  C77  1  0.73405480  0.09390208  0.42461714  1  0  0.117746  0  3.747296  0  0  0.088645  0  4.001601  0  0  0.095017  0  4.020157  0  0  0.033981  0.084554  0  3.988789  0
C  C78  1  0.76598548  0.59389612  0.92461672  1  0  0.118127  0  3.747231  0  0  0.088968  0  4.001592  0  0  0.095349  0  4.020127  0  0  0.034161  0.084857  0  3.988856  0
C  C79  1  0.26596887  0.90609644  0.57538173  1  0  0.118101  0  3.747285  0  0  0.088917  0  4.001632  0  0  0.095298  0  4.020168  0  0  0.034096  0.084803  0  3.98887  0
C  C80  1  0.41158711  0.35297293  0.03763469  1  0  -0.159928  0  3.751228  0  0  -0.176691  0  3.99825  0  0  -0.183104  0  4.018296  0  0  -0.094579  -0.172579  0  3.98495  0
C  C81  1  0.91160193  0.14703498  0.46236872  1  0  -0.15989  0  3.751166  0  0  -0.176634  0  3.998203  0  0  -0.183049  0  4.01824  0  0  -0.094475  -0.172503  0  3.984849  0
C  C82  1  0.58841442  0.64701815  0.96236126  1  0  -0.160105  0  3.751262  0  0  -0.176866  0  3.998328  0  0  -0.183282  0  4.018358  0  0  -0.094669  -0.172752  0  3.98503  0
C  C83  1  0.08840982  0.85296966  0.53762989  1  0  -0.159931  0  3.751159  0  0  -0.176713  0  3.99822  0  0  -0.183117  0  4.018238  0  0  -0.094537  -0.172591  0  3.984892  0
S  S84  1  0.74992522  0.22471063  0.92473749  1  0  0.101647  0  2.495731  0  0  0.106366  0  2.812859  0  0  0.107009  0  2.815051  0  0  0.118188  0.105248  0  2.811752  0
S  S85  1  0.24994187  0.27528081  0.57526168  1  0  0.10165  0  2.495625  0  0  0.106361  0  2.812705  0  0  0.107005  0  2.814891  0  0  0.118136  0.105246  0  2.811595  0
S  S86  1  0.25006438  0.77528268  0.07527059  1  0  0.101662  0  2.495604  0  0  0.10636  0  2.812694  0  0  0.106998  0  2.814883  0  0  0.118157  0.105243  0  2.811587  0
S  S87  1  0.75004774  0.72472211  0.42474000  1  0  0.101538  0  2.495578  0  0  0.106266  0  2.812698  0  0  0.106901  0  2.814885  0  0  0.118148  0.105153  0  2.811586  0
I  I88  1  0.94820703  0.82096690  0.72521279  1  0  -0.3096  0  1.295263  0  0  -0.263856  0  1.661966  0  0  -0.283747  0  1.648859  0  0  -0.158296  -0.250285  0  1.67095  0
I  I89  1  0.44824283  0.67903817  0.77480228  1  0  -0.309626  0  1.295426  0  0  -0.263857  0  1.662105  0  0  -0.283747  0  1.648998  0  0  -0.158302  -0.250271  0  1.671098  0
I  I90  1  0.05180131  0.17903470  0.27478571  1  0  -0.309658  0  1.295371  0  0  -0.263922  0  1.662098  0  0  -0.283811  0  1.64899  0  0  -0.158324  -0.250342  0  1.671097  0
I  I91  1  0.55178084  0.32096592  0.22521571  1  0  -0.309652  0  1.295477  0  0  -0.263905  0  1.662206  0  0  -0.283794  0  1.649098  0  0  -0.15831  -0.250312  0  1.671206  0
I  I92  1  0.75150866  0.12201736  0.62798705  1  0  -0.400871  0  1.12904  0  0  -0.35727  0  1.458649  0  0  -0.376741  0  1.44275  0  0  -0.207299  -0.343595  0  1.469339  0
I  I93  1  0.25150805  0.37798109  0.87201008  1  0  -0.400881  0  1.129067  0  0  -0.357278  0  1.458649  0  0  -0.376749  0  1.442755  0  0  -0.207279  -0.343582  0  1.469352  0
I  I94  1  0.24848094  0.87798948  0.37201296  1  0  -0.400876  0  1.129077  0  0  -0.35728  0  1.458677  0  0  -0.376751  0  1.442773  0  0  -0.207275  -0.343599  0  1.46936  0
I  I95  1  0.74840490  0.62200661  0.12799057  1  0  -0.400897  0  1.128993  0  0  -0.357289  0  1.458554  0  0  -0.376758  0  1.442658  0  0  -0.207309  -0.343589  0  1.469255  0
N  N96  1  0.66515876  0.09877857  0.99518071  1  0  -0.185857  0  3.020466  0  0  -0.164456  0  3.309112  0  0  -0.172038  0  3.323878  0  0  -0.188876  -0.159023  0  3.298723  0
N  N97  1  0.16517744  0.40121547  0.50481457  1  0  -0.185832  0  3.020817  0  0  -0.164424  0  3.309447  0  0  -0.172017  0  3.32424  0  0  -0.188911  -0.158988  0  3.299057  0
N  N98  1  0.33483936  0.90119962  0.00481370  1  0  -0.185634  0  3.020232  0  0  -0.164224  0  3.308898  0  0  -0.171817  0  3.323688  0  0  -0.188803  -0.158776  0  3.298479  0
N  N99  1  0.83482579  0.59878993  0.49518419  1  0  -0.185919  0  3.020548  0  0  -0.164538  0  3.30923  0  0  -0.172128  0  3.32401  0  0  -0.188934  -0.159096  0  3.298819  0
N  N100  1  0.83297771  0.05611954  0.95285467  1  0  -0.181624  0  3.018025  0  0  -0.159532  0  3.306435  0  0  -0.167158  0  3.321191  0  0  -0.187226  -0.154078  0  3.296074  0
N  N101  1  0.33299300  0.44388463  0.54714750  1  0  -0.181531  0  3.017975  0  0  -0.159462  0  3.306325  0  0  -0.167089  0  3.321073  0  0  -0.187254  -0.154005  0  3.295969  0
N  N102  1  0.16701020  0.94387383  0.04714124  1  0  -0.181664  0  3.017587  0  0  -0.159611  0  3.305987  0  0  -0.16724  0  3.320736  0  0  -0.187286  -0.154153  0  3.295625  0
N  N103  1  0.66699661  0.55612005  0.45285063  1  0  -0.181665  0  3.017667  0  0  -0.159578  0  3.306076  0  0  -0.167203  0  3.320817  0  0  -0.18725  -0.154121  0  3.295732  0
N  N104  1  0.42872388  0.02478927  0.76870491  1  0  -0.285538  0  3.257426  0  0  -0.21205  0  3.52286  0  0  -0.230437  0  3.54368  0  0  -0.316642  -0.199531  0  3.508381  0
N  N105  1  0.92872795  0.47521648  0.73129564  1  0  -0.285535  0  3.257399  0  0  -0.211996  0  3.522737  0  0  -0.230381  0  3.543562  0  0  -0.316624  -0.199483  0  3.508268  0
N  N106  1  0.57126573  0.97522387  0.23129244  1  0  -0.285728  0  3.257321  0  0  -0.212215  0  3.522738  0  0  -0.2306  0  3.543545  0  0  -0.316725  -0.1997  0  3.508266  0
N  N107  1  0.07126506  0.52478732  0.26870426  1  0  -0.285615  0  3.257387  0  0  -0.21205  0  3.522731  0  0  -0.230442  0  3.543565  0  0  -0.316637  -0.199537  0  3.508272  0
N  N108  1  0.07070118  0.36036765  0.10248435  1  0  -0.285539  0  3.255726  0  0  -0.212398  0  3.520973  0  0  -0.230805  0  3.541773  0  0  -0.31526  -0.199869  0  3.506573  0
N  N109  1  0.57070365  0.13963378  0.39751626  1  0  -0.285476  0  3.255726  0  0  -0.212359  0  3.520989  0  0  -0.230768  0  3.541788  0  0  -0.31529  -0.199828  0  3.506583  0
N  N110  1  0.92931398  0.63962316  0.89751545  1  0  -0.285451  0  3.25593  0  0  -0.212272  0  3.521124  0  0  -0.230678  0  3.541927  0  0  -0.315266  -0.19974  0  3.506713  0
N  N111  1  0.42930299  0.86035631  0.60248291  1  0  -0.28565  0  3.256058  0  0  -0.212502  0  3.52127  0  0  -0.230912  0  3.542074  0  0  -0.315336  -0.199972  0  3.506856  0
