# generated using pymatgen
data_CdH13C15N2O7
_symmetry_space_group_name_H-M   'P 1'
_cell_length_a   7.97985030
_cell_length_b   10.22535634
_cell_length_c   12.47270583
_cell_angle_alpha   71.98663904
_cell_angle_beta   75.35767137
_cell_angle_gamma   65.10401622
_symmetry_Int_Tables_number   1
_chemical_formula_structural   CdH13C15N2O7
_chemical_formula_sum   'Cd2 H26 C30 N4 O14'
_cell_volume   868.99699462
_cell_formula_units_Z   2
loop_
 _symmetry_equiv_pos_site_id
 _symmetry_equiv_pos_as_xyz
  1  'x, y, z'
loop_
 _atom_site_type_symbol
 _atom_site_label
 _atom_site_symmetry_multiplicity
 _atom_site_fract_x
 _atom_site_fract_y
 _atom_site_fract_z
 _atom_site_occupancy
 _atom_site_hle17_bader_spin_density
 _atom_site_hle17_ddec_charge
 _atom_site_hle17_ddec_spin_density
 _atom_site_hle17_ddec_sum_bond_order
 _atom_site_hle17_magmom
 _atom_site_hse06_10hf_bader_spin_density
 _atom_site_hse06_10hf_ddec_charge
 _atom_site_hse06_10hf_ddec_spin_density
 _atom_site_hse06_10hf_ddec_sum_bond_order
 _atom_site_hse06_10hf_magmom
 _atom_site_hse06_bader_spin_density
 _atom_site_hse06_ddec_charge
 _atom_site_hse06_ddec_spin_density
 _atom_site_hse06_ddec_sum_bond_order
 _atom_site_hse06_magmom
 _atom_site_pbe_bader_spin_density
 _atom_site_pbe_cm5_charge
 _atom_site_pbe_ddec_charge
 _atom_site_pbe_ddec_spin_density
 _atom_site_pbe_ddec_sum_bond_order
 _atom_site_pbe_magmom
Cd  Cd0  1  0.73583160  0.84970902  0.48297664  1  0  1.176174  0  1.61884  0  0  0.982298  0  2.063875  0  0  1.04059  0  2.008934  0  0  0.778089  0.937628  0  2.104113  0
Cd  Cd1  1  0.26416357  0.15029155  0.51702817  1  0  1.176203  0  1.618774  0  0  0.98232  0  2.063788  0  0  1.040613  0  2.008849  0  0  0.778121  0.937644  0  2.104019  0
H  H2  1  0.68005518  0.36481770  0.49238519  1  0  0.092896  0  0.982535  0  0  0.104572  0  1.043407  0  0  0.107437  0  1.041323  0  0  0.111717  0.102465  0  1.045289  0
H  H3  1  0.31997481  0.63516938  0.50761815  1  0  0.092816  0  0.982511  0  0  0.104518  0  1.043341  0  0  0.107384  0  1.041257  0  0  0.111724  0.102412  0  1.045219  0
H  H4  1  0.46395480  0.51093593  0.91211201  1  0  0.103879  0  0.977612  0  0  0.118936  0  1.046864  0  0  0.120739  0  1.046348  0  0  0.088123  0.117825  0  1.046974  0
H  H5  1  0.53606327  0.48906530  0.08788295  1  0  0.103927  0  0.97754  0  0  0.118986  0  1.046795  0  0  0.12079  0  1.04628  0  0  0.088147  0.117875  0  1.046902  0
H  H6  1  0.41484848  0.64968859  0.78336377  1  0  0.131644  0  0.943227  0  0  0.152414  0  1.003262  0  0  0.154724  0  1.001767  0  0  0.09961  0.150843  0  1.004359  0
H  H7  1  0.58516758  0.35031152  0.21663582  1  0  0.131734  0  0.943168  0  0  0.15248  0  1.003223  0  0  0.15479  0  1.001731  0  0  0.099656  0.150919  0  1.004311  0
H  H8  1  0.64142793  0.56664818  0.81662819  1  0  0.134494  0  0.915617  0  0  0.15828  0  0.968199  0  0  0.160739  0  0.966505  0  0  0.102955  0.156441  0  0.969961  0
H  H9  1  0.35858544  0.43335548  0.18336865  1  0  0.134543  0  0.915657  0  0  0.158333  0  0.968225  0  0  0.160793  0  0.966526  0  0  0.103005  0.156491  0  0.969994  0
H  H10  1  0.59368849  0.00874981  0.91470581  1  0  0.103493  0  0.971566  0  0  0.119438  0  1.042215  0  0  0.120899  0  1.042591  0  0  0.087438  0.11852  0  1.041739  0
H  H11  1  0.40629399  0.99126045  0.08529661  1  0  0.103427  0  0.971651  0  0  0.119358  0  1.042346  0  0  0.120817  0  1.04272  0  0  0.087375  0.118441  0  1.041865  0
H  H12  1  0.65837217  0.94286559  0.78868998  1  0  0.136559  0  0.930005  0  0  0.159859  0  0.982243  0  0  0.162637  0  0.98002  0  0  0.100869  0.157664  0  0.984635  0
H  H13  1  0.34159632  0.05714366  0.21131436  1  0  0.136654  0  0.930009  0  0  0.159944  0  0.982251  0  0  0.162716  0  0.980047  0  0  0.10087  0.157752  0  0.98464  0
H  H14  1  0.42135889  0.03001764  0.83774274  1  0  0.119974  0  0.962342  0  0  0.13701  0  1.031755  0  0  0.138227  0  1.032994  0  0  0.091987  0.13631  0  1.030835  0
H  H15  1  0.57861333  0.97000718  0.16226134  1  0  0.119913  0  0.962301  0  0  0.137026  0  1.031634  0  0  0.138242  0  1.032873  0  0  0.092007  0.136325  0  1.030721  0
H  H16  1  0.92075706  0.68789964  0.27767068  1  0  0.097756  0  0.918068  0  0  0.108455  0  0.974694  0  0  0.111128  0  0.972561  0  0  0.125298  0.106423  0  0.976369  0
H  H17  1  0.07918477  0.31209184  0.72233209  1  0  0.097675  0  0.918273  0  0  0.108386  0  0.974866  0  0  0.11106  0  0.972731  0  0  0.125275  0.106354  0  0.976534  0
H  H18  1  0.02052492  0.74886974  0.06975159  1  0  0.114184  0  0.94407  0  0  0.127246  0  0.997282  0  0  0.130461  0  0.995759  0  0  0.115382  0.124887  0  0.998613  0
H  H19  1  0.97938829  0.25113180  0.93024753  1  0  0.114185  0  0.944145  0  0  0.1273  0  0.997293  0  0  0.13051  0  0.995765  0  0  0.115403  0.12494  0  0.998626  0
H  H20  1  0.91145586  0.19054582  0.09803336  1  0  0.111128  0  0.941019  0  0  0.125124  0  0.991518  0  0  0.128035  0  0.990766  0  0  0.116804  0.123023  0  0.992242  0
H  H21  1  0.08858520  0.80943014  0.90198262  1  0  0.111173  0  0.941193  0  0  0.12518  0  0.991633  0  0  0.128088  0  0.990885  0  0  0.116755  0.123076  0  0.992357  0
H  H22  1  0.81805980  0.10880465  0.30504762  1  0  0.099098  0  0.952748  0  0  0.107388  0  1.013232  0  0  0.110401  0  1.010387  0  0  0.123291  0.105186  0  1.015308  0
H  H23  1  0.18199657  0.89115812  0.69497271  1  0  0.099072  0  0.952835  0  0  0.107374  0  1.01326  0  0  0.110386  0  1.010418  0  0  0.123319  0.105171  0  1.015337  0
H  H24  1  0.06813495  0.62663889  0.55813535  1  0  0.423703  0  0.87056  0  0  0.392185  0  0.938225  0  0  0.403561  0  0.921591  0  0  0.284604  0.383823  0  0.950435  0
H  H25  1  0.93187347  0.37336663  0.44185392  1  0  0.423618  0  0.870643  0  0  0.392116  0  0.938316  0  0  0.403492  0  0.921682  0  0  0.284585  0.383754  0  0.95053  0
H  H26  1  0.07132148  0.78512576  0.55283903  1  0  0.420117  0  0.883813  0  0  0.386657  0  0.952311  0  0  0.398068  0  0.935722  0  0  0.283327  0.378395  0  0.964308  0
H  H27  1  0.92868039  0.21488682  0.44714736  1  0  0.420113  0  0.883804  0  0  0.386649  0  0.952312  0  0  0.39806  0  0.935722  0  0  0.283292  0.378387  0  0.964309  0
C  C28  1  0.67148690  0.10009618  0.57006614  1  0  0.659989  0  3.898129  0  0  0.606634  0  4.18938  0  0  0.641323  0  4.183438  0  0  0.205645  0.582908  0  4.192529  0
C  C29  1  0.32851160  0.89990875  0.42993064  1  0  0.660097  0  3.898069  0  0  0.606737  0  4.189321  0  0  0.641423  0  4.183379  0  0  0.20567  0.583008  0  4.192478  0
C  C30  1  0.62388976  0.20820143  0.64117201  1  0  -0.110944  0  3.728379  0  0  -0.09536  0  3.973348  0  0  -0.105636  0  3.994475  0  0  -0.018622  -0.088697  0  3.959445  0
C  C31  1  0.37612201  0.79179922  0.35882420  1  0  -0.111149  0  3.728628  0  0  -0.095586  0  3.9736  0  0  -0.105869  0  3.994724  0  0  -0.018647  -0.08892  0  3.959703  0
C  C32  1  0.64444323  0.34202679  0.58437428  1  0  -0.06512  0  3.784122  0  0  -0.107423  0  4.041684  0  0  -0.103048  0  4.060334  0  0  -0.0793  -0.111296  0  4.030813  0
C  C33  1  0.35558059  0.65796958  0.41562319  1  0  -0.064943  0  3.783979  0  0  -0.107273  0  4.041563  0  0  -0.10291  0  4.060242  0  0  -0.079308  -0.111135  0  4.030678  0
C  C34  1  0.62073270  0.44907690  0.63931662  1  0  -0.110817  0  3.70969  0  0  -0.093645  0  3.95095  0  0  -0.103977  0  3.972311  0  0  -0.017551  -0.086989  0  3.937224  0
C  C35  1  0.37928720  0.55092303  0.36067992  1  0  -0.110867  0  3.709537  0  0  -0.093578  0  3.950836  0  0  -0.103918  0  3.972189  0  0  -0.017458  -0.086929  0  3.937114  0
C  C36  1  0.55691830  0.42927931  0.75758741  1  0  0.133618  0  3.68605  0  0  0.137759  0  3.935777  0  0  0.144075  0  3.956368  0  0  0.011633  0.134849  0  3.920728  0
C  C37  1  0.44308628  0.57072305  0.24240809  1  0  0.133718  0  3.685756  0  0  0.137624  0  3.935799  0  0  0.143966  0  3.956345  0  0  0.011589  0.134718  0  3.920753  0
C  C38  1  0.53233029  0.29476226  0.81126171  1  0  -0.061856  0  3.643909  0  0  -0.073095  0  3.901087  0  0  -0.077997  0  3.920711  0  0  0.068304  -0.070227  0  3.887169  0
C  C39  1  0.46767689  0.70524406  0.18873481  1  0  -0.061791  0  3.643568  0  0  -0.073005  0  3.900812  0  0  -0.077917  0  3.920424  0  0  0.068307  -0.070138  0  3.886899  0
C  C40  1  0.56882175  0.17943574  0.75970993  1  0  0.131173  0  3.694591  0  0  0.133779  0  3.947728  0  0  0.14017  0  3.968254  0  0  0.008438  0.130944  0  3.932629  0
C  C41  1  0.43117453  0.82056492  0.24029146  1  0  0.1311  0  3.69458  0  0  0.133817  0  3.947597  0  0  0.140222  0  3.968099  0  0  0.008414  0.130979  0  3.932505  0
C  C42  1  0.67339140  0.57738272  0.56647094  1  0  0.641395  0  3.929369  0  0  0.592574  0  4.219426  0  0  0.626257  0  4.215588  0  0  0.196677  0.569569  0  4.221157  0
C  C43  1  0.32662177  0.42261778  0.43352587  1  0  0.641452  0  3.929236  0  0  0.59259  0  4.219327  0  0  0.626271  0  4.215492  0  0  0.196712  0.569589  0  4.221053  0
C  C44  1  0.51646592  0.54370601  0.82209199  1  0  -0.341721  0  3.729057  0  0  -0.428599  0  3.978453  0  0  -0.430714  0  3.98429  0  0  -0.245477  -0.427024  0  3.973892  0
C  C45  1  0.48354952  0.45629538  0.17790420  1  0  -0.341929  0  3.729077  0  0  -0.428738  0  3.9786  0  0  -0.430862  0  3.984427  0  0  -0.245567  -0.427162  0  3.974031  0
C  C46  1  0.56011482  0.03299589  0.82899874  1  0  -0.345366  0  3.727402  0  0  -0.433406  0  3.98072  0  0  -0.435928  0  3.987131  0  0  -0.249324  -0.431588  0  3.975826  0
C  C47  1  0.43986207  0.96701909  0.17100357  1  0  -0.345333  0  3.727244  0  0  -0.433497  0  3.9806  0  0  -0.436017  0  3.986995  0  0  -0.249275  -0.431676  0  3.975709  0
C  C48  1  0.92281545  0.79765448  0.23363925  1  0  0.130226  0  3.701726  0  0  0.098291  0  3.958188  0  0  0.104921  0  3.97784  0  0  0.053647  0.09394  0  3.944623  0
C  C49  1  0.07716078  0.20233206  0.76636095  1  0  0.130453  0  3.70213  0  0  0.098527  0  3.958545  0  0  0.105157  0  3.978195  0  0  0.053718  0.094175  0  3.944974  0
C  C50  1  0.97807476  0.83381785  0.11683545  1  0  -0.14309  0  3.687195  0  0  -0.167519  0  3.945473  0  0  -0.17414  0  3.965283  0  0  -0.073491  -0.163375  0  3.932411  0
C  C51  1  0.02187142  0.16618636  0.88315958  1  0  -0.143101  0  3.687374  0  0  -0.167613  0  3.945641  0  0  -0.174224  0  3.965444  0  0  -0.073497  -0.16347  0  3.93258  0
C  C52  1  0.97429484  0.97754173  0.06245477  1  0  0.0991  0  3.725289  0  0  0.106876  0  3.965238  0  0  0.111193  0  3.985743  0  0  0.018909  0.104091  0  3.951363  0
C  C53  1  0.02568764  0.02245364  0.93754868  1  0  0.099157  0  3.725316  0  0  0.107031  0  3.965184  0  0  0.111349  0  3.985686  0  0  0.018965  0.10424  0  3.951312  0
C  C54  1  0.91772974  0.07728885  0.13250148  1  0  -0.128558  0  3.675897  0  0  -0.146995  0  3.921919  0  0  -0.153957  0  3.942368  0  0  -0.069136  -0.142616  0  3.908333  0
C  C55  1  0.08229237  0.92268874  0.86751430  1  0  -0.128793  0  3.676196  0  0  -0.147271  0  3.922161  0  0  -0.154235  0  3.942607  0  0  -0.069207  -0.142887  0  3.908567  0
C  C56  1  0.86452310  0.03357575  0.24857933  1  0  0.138436  0  3.682025  0  0  0.107793  0  3.929841  0  0  0.114937  0  3.948246  0  0  0.054937  0.103122  0  3.917106  0
C  C57  1  0.13549578  0.96639916  0.75143202  1  0  0.138449  0  3.682297  0  0  0.107847  0  3.930032  0  0  0.114993  0  3.94844  0  0  0.054916  0.103172  0  3.917294  0
N  N58  1  0.46265358  0.27014393  0.93462494  1  0  0.523745  0  3.902353  0  0  0.548152  0  4.210088  0  0  0.569305  0  4.217485  0  0  0.056709  0.533688  0  4.205399  0
N  N59  1  0.53734510  0.72987162  0.06537096  1  0  0.523916  0  3.902374  0  0  0.548382  0  4.210007  0  0  0.569536  0  4.217403  0  0  0.056783  0.533916  0  4.205319  0
N  N60  1  0.86533804  0.89626191  0.29863468  1  0  -0.337642  0  3.289555  0  0  -0.253566  0  3.559727  0  0  -0.275461  0  3.579161  0  0  -0.327554  -0.237957  0  3.545367  0
N  N61  1  0.13466897  0.10371635  0.70137239  1  0  -0.337636  0  3.289869  0  0  -0.253585  0  3.560027  0  0  -0.275481  0  3.579461  0  0  -0.327528  -0.237975  0  3.545661  0
O  O62  1  0.80255563  0.09461428  0.48778979  1  0  -0.615217  0  1.984139  0  0  -0.557014  0  2.210617  0  0  -0.583581  0  2.201932  0  0  -0.301133  -0.537586  0  2.215415  0
O  O63  1  0.19742990  0.90540055  0.51220058  1  0  -0.615215  0  1.984041  0  0  -0.557039  0  2.210542  0  0  -0.5836  0  2.201856  0  0  -0.301123  -0.537601  0  2.215322  0
O  O64  1  0.99263712  0.72372987  0.57880396  1  0  -0.829175  0  1.84744  0  0  -0.764716  0  2.027248  0  0  -0.78708  0  1.991648  0  0  -0.592683  -0.749099  0  2.053203  0
O  O65  1  0.00737364  0.27627315  0.42118867  1  0  -0.829051  0  1.847511  0  0  -0.764605  0  2.0273  0  0  -0.786972  0  1.991705  0  0  -0.592592  -0.748988  0  2.053252  0
O  O66  1  0.57583064  0.01681220  0.59555728  1  0  -0.667378  0  2.033848  0  0  -0.586131  0  2.28746  0  0  -0.618058  0  2.276141  0  0  -0.329411  -0.563268  0  2.296492  0
O  O67  1  0.42416720  0.98318817  0.40444710  1  0  -0.667419  0  2.033943  0  0  -0.586124  0  2.28751  0  0  -0.618051  0  2.276199  0  0  -0.329453  -0.563261  0  2.296546  0
O  O68  1  0.79071566  0.55890674  0.47700334  1  0  -0.645786  0  1.924666  0  0  -0.591911  0  2.147914  0  0  -0.618749  0  2.139848  0  0  -0.323827  -0.571976  0  2.152164  0
O  O69  1  0.20929254  0.44109641  0.52299133  1  0  -0.645764  0  1.924602  0  0  -0.591868  0  2.147841  0  0  -0.618731  0  2.139826  0  0  -0.323813  -0.571937  0  2.15209  0
O  O70  1  0.59616613  0.69933996  0.59900386  1  0  -0.623164  0  2.006481  0  0  -0.548709  0  2.245098  0  0  -0.580052  0  2.23751  0  0  -0.323622  -0.526202  0  2.251002  0
O  O71  1  0.40383529  0.30065712  0.40099663  1  0  -0.623233  0  2.006306  0  0  -0.548746  0  2.244926  0  0  -0.580088  0  2.237338  0  0  -0.323678  -0.526239  0  2.250832  0
O  O72  1  0.29842010  0.27905219  0.96363565  1  0  -0.34849  0  1.698471  0  0  -0.334837  0  1.891535  0  0  -0.347691  0  1.888859  0  0  -0.123209  -0.325972  0  1.893672  0
O  O73  1  0.70158761  0.72094625  0.03636902  1  0  -0.348498  0  1.698423  0  0  -0.334862  0  1.891471  0  0  -0.347718  0  1.888792  0  0  -0.123193  -0.325999  0  1.893609  0
O  O74  1  0.57115209  0.24230505  0.00146915  1  0  -0.348472  0  1.75005  0  0  -0.328839  0  1.95784  0  0  -0.343782  0  1.957416  0  0  -0.110113  -0.318723  0  1.958582  0
O  O75  1  0.42884260  0.75773233  0.99852079  1  0  -0.348656  0  1.750225  0  0  -0.329093  0  1.958076  0  0  -0.344039  0  1.957657  0  0  -0.110213  -0.31897  0  1.95881  0
