# generated using pymatgen
data_MnH16C23O8
_symmetry_space_group_name_H-M   'P 1'
_cell_length_a   4.69844049
_cell_length_b   18.84838174
_cell_length_c   24.10620244
_cell_angle_alpha   90.00002918
_cell_angle_beta   89.99997319
_cell_angle_gamma   89.99994655
_symmetry_Int_Tables_number   1
_chemical_formula_structural   MnH16C23O8
_chemical_formula_sum   'Mn4 H64 C92 O32'
_cell_volume   2134.79707202
_cell_formula_units_Z   4
loop_
 _symmetry_equiv_pos_site_id
 _symmetry_equiv_pos_as_xyz
  1  'x, y, z'
loop_
 _atom_site_type_symbol
 _atom_site_label
 _atom_site_symmetry_multiplicity
 _atom_site_fract_x
 _atom_site_fract_y
 _atom_site_fract_z
 _atom_site_occupancy
 _atom_site_pbe_bader_charge
 _atom_site_pbe_bader_spin_density
 _atom_site_pbe_cm5_charge
 _atom_site_pbe_ddec_charge
 _atom_site_pbe_ddec_spin_density
 _atom_site_pbe_ddec_sum_bond_order
 _atom_site_pbe_magmom
Mn  Mn0  1  0.80871332  0.94857525  0.04363125  1  1.563658  -4.5298  0.627994  1.091658  -4.647815  2.253917  -4.467
Mn  Mn1  1  0.30871183  0.05142485  0.95636922  1  1.563653  -4.529797  0.627974  1.091622  -4.647818  2.253942  -4.467
Mn  Mn2  1  0.30871139  0.55142467  0.54363114  1  1.563637  -4.529811  0.627969  1.09158  -4.647831  2.254  -4.467
Mn  Mn3  1  0.80871163  0.44857490  0.45636932  1  1.56366  -4.529807  0.628001  1.091676  -4.647816  2.2539  -4.467
H  H4  1  0.11335486  0.88065656  0.21422014  1  0.079338  -0.000247  0.104974  0.11688  -2.5e-05  1.084059  0.0
H  H5  1  0.61335342  0.11934359  0.78577992  1  0.079346  -0.000247  0.104982  0.116891  -2.5e-05  1.084023  0.0
H  H6  1  0.61335682  0.61934352  0.71422002  1  0.079344  -0.000247  0.104961  0.116855  -2.5e-05  1.084046  0.0
H  H7  1  0.11335358  0.38065610  0.28578005  1  0.079345  -0.000247  0.104978  0.116881  -2.5e-05  1.084043  0.0
H  H8  1  0.58760125  0.96689685  0.35044400  1  0.073639  -7.1e-05  0.107033  0.129372  -3.6e-05  1.018543  0.0
H  H9  1  0.08760057  0.03310331  0.64955607  1  0.073635  -7.1e-05  0.107027  0.129369  -3.6e-05  1.018548  0.0
H  H10  1  0.08759939  0.53310280  0.85044347  1  0.073645  -7.1e-05  0.107021  0.129376  -3.6e-05  1.018562  0.0
H  H11  1  0.58760030  0.46689683  0.14955618  1  0.073641  -7.1e-05  0.107033  0.129368  -3.6e-05  1.018548  0.0
H  H12  1  0.93197194  0.37527838  0.35742257  1  0.658607  -0.000376  0.305465  0.357809  -0.00024  0.98804  0.0
H  H13  1  0.43197331  0.62472223  0.64257747  1  0.65861  -0.000376  0.30547  0.357816  -0.00024  0.98801  0.0
H  H14  1  0.43197399  0.12472234  0.85742249  1  0.658602  -0.000376  0.305478  0.357818  -0.00024  0.988028  0.0
H  H15  1  0.93197126  0.87527826  0.14257755  1  0.658608  -0.000376  0.305461  0.3578  -0.00024  0.988055  0.0
H  H16  1  0.70318194  0.05206864  0.18495943  1  0.084594  -8.5e-05  0.10971  0.132975  0.000247  1.004787  0.0
H  H17  1  0.20318382  0.94793149  0.81504021  1  0.084599  -8.5e-05  0.109693  0.132955  0.000247  1.004836  0.0
H  H18  1  0.20318278  0.44793149  0.68495948  1  0.084585  -8.5e-05  0.109758  0.133097  0.000247  1.00481  0.0
H  H19  1  0.70318298  0.55206864  0.31504058  1  0.084603  -8.5e-05  0.10972  0.133005  0.000247  1.004754  0.0
H  H20  1  0.01025399  0.02231291  0.35855835  1  0.085816  -0.000108  0.103364  0.077227  -7.2e-05  0.981195  0.0
H  H21  1  0.51025607  0.97768727  0.64144173  1  0.08581  -0.000108  0.103366  0.077237  -7.2e-05  0.98118  0.0
H  H22  1  0.51025462  0.47768685  0.85855836  1  0.085826  -0.000108  0.10337  0.077247  -7.2e-05  0.981175  0.0
H  H23  1  0.01025332  0.52231279  0.14144171  1  0.085812  -0.000108  0.103362  0.077231  -7.2e-05  0.981198  0.0
H  H24  1  0.70998180  0.07947954  0.36814300  1  0.057361  -5.9e-05  0.101528  0.069595  -3.7e-05  1.001335  0.0
H  H25  1  0.20998422  0.92052059  0.63185706  1  0.057371  -5.9e-05  0.101547  0.069597  -3.7e-05  1.001373  0.0
H  H26  1  0.20998274  0.42052018  0.86814262  1  0.057341  -5.9e-05  0.101535  0.069605  -3.7e-05  1.001326  0.0
H  H27  1  0.70998327  0.57947942  0.13185702  1  0.05737  -5.9e-05  0.101545  0.069592  -3.7e-05  1.001375  0.0
H  H28  1  0.98280829  0.14376940  0.44081890  1  0.043696  1e-06  0.102693  0.106894  4e-06  0.989232  0.0
H  H29  1  0.48281112  0.85623066  0.55918113  1  0.043695  1e-06  0.102693  0.106887  4e-06  0.989218  0.0
H  H30  1  0.48281373  0.35623030  0.94081850  1  0.043709  1e-06  0.102703  0.106892  4e-06  0.989278  0.0
H  H31  1  0.98280994  0.64376976  0.05918112  1  0.043693  1e-06  0.102696  0.106885  4e-06  0.989248  0.0
H  H32  1  0.30371466  0.24703087  0.45842106  1  0.094519  -0.000227  0.107528  0.110034  0.000161  1.02774  0.0
H  H33  1  0.80371569  0.75297029  0.54157857  1  0.094517  -0.000226  0.107521  0.110028  0.000161  1.027794  0.0
H  H34  1  0.80371399  0.25296995  0.95842182  1  0.094527  -0.000227  0.107532  0.110028  0.000161  1.027668  0.0
H  H35  1  0.30371422  0.74703016  0.04157865  1  0.094517  -0.000226  0.107538  0.110042  0.000161  1.027864  0.0
H  H36  1  0.58718979  0.23988269  0.28906048  1  0.072917  -3e-05  0.107272  0.109997  2e-06  0.999964  0.0
H  H37  1  0.08719049  0.76011800  0.71093917  1  0.072918  -3e-05  0.107336  0.110099  2e-06  0.999976  0.0
H  H38  1  0.08719346  0.26011701  0.78906087  1  0.072902  -3e-05  0.107278  0.110025  2e-06  0.999952  0.0
H  H39  1  0.58719107  0.73988262  0.21093961  1  0.072919  -3e-05  0.107271  0.110006  2e-06  0.999949  0.0
H  H40  1  0.26040710  0.13781719  0.27078302  1  0.103465  -8.1e-05  0.103805  0.105471  -4.7e-05  1.037271  0.0
H  H41  1  0.76040940  0.86218239  0.72921703  1  0.103474  -8.1e-05  0.103787  0.105422  -4.7e-05  1.037308  0.0
H  H42  1  0.76040816  0.36218192  0.77078258  1  0.103474  -8.1e-05  0.103775  0.105411  -4.7e-05  1.037338  0.0
H  H43  1  0.26040834  0.63781713  0.22921706  1  0.103465  -8.1e-05  0.103801  0.105477  -4.7e-05  1.037281  0.0
H  H44  1  0.17499882  0.78911662  0.26682899  1  0.056458  -4e-05  0.100588  0.069607  1e-06  1.013932  0.0
H  H45  1  0.67499929  0.21088352  0.73317107  1  0.056451  -4e-05  0.100597  0.06962  1e-06  1.013916  0.0
H  H46  1  0.67500045  0.71088348  0.76682890  1  0.056451  -4e-05  0.100593  0.069614  1e-06  1.01391  0.0
H  H47  1  0.17499980  0.28911665  0.23317116  1  0.056441  -4e-05  0.10059  0.069603  1e-06  1.013911  0.0
H  H48  1  0.86172445  0.83707345  0.28583901  1  0.089553  -0.000201  0.101513  0.078315  -0.000115  0.993074  0.0
H  H49  1  0.36172099  0.16292717  0.71416062  1  0.089544  -0.000201  0.101496  0.078317  -0.000115  0.993054  0.0
H  H50  1  0.36172210  0.66292768  0.78583895  1  0.089549  -0.000201  0.101501  0.078326  -0.000115  0.993032  0.0
H  H51  1  0.86172334  0.33707294  0.21416109  1  0.089542  -0.000201  0.101503  0.078286  -0.000115  0.993091  0.0
H  H52  1  0.67720994  0.82470798  0.38507779  1  0.093149  -5.9e-05  0.098899  0.103524  1.2e-05  1.01712  0.0
H  H53  1  0.17721093  0.17529268  0.61492227  1  0.093157  -5.9e-05  0.098895  0.103534  1.2e-05  1.017124  0.0
H  H54  1  0.17721180  0.67529219  0.88507815  1  0.093021  -5.9e-05  0.098903  0.103546  1.2e-05  1.017125  0.0
H  H55  1  0.67721120  0.32470688  0.11492191  1  0.093166  -5.9e-05  0.098902  0.103543  1.2e-05  1.017148  0.0
H  H56  1  0.56957643  0.73422280  0.45782628  1  0.076246  -0.000297  0.107424  0.112081  0.000151  0.998172  0.0
H  H57  1  0.06957300  0.26577683  0.54217421  1  0.076252  -0.000297  0.107415  0.112068  0.000151  0.99817  0.0
H  H58  1  0.06957582  0.76577692  0.95782626  1  0.076248  -0.000297  0.107422  0.112085  0.000151  0.998173  0.0
H  H59  1  0.56957787  0.23422271  0.04217423  1  0.076257  -0.000297  0.107434  0.112094  0.000151  0.998173  0.0
H  H60  1  0.22684815  0.59920910  0.39333083  1  0.128085  -0.000338  0.107716  0.114627  0.000653  1.031791  0.0
H  H61  1  0.72684821  0.40079102  0.60666922  1  0.128082  -0.000338  0.107723  0.114641  0.000654  1.031787  0.0
H  H62  1  0.72684906  0.90079107  0.89333082  1  0.128091  -0.000338  0.107733  0.114647  0.000653  1.031774  0.0
H  H63  1  0.22684943  0.09920853  0.10666965  1  0.128072  -0.000338  0.107702  0.114595  0.000653  1.0318  0.0
H  H64  1  0.32548293  0.68740072  0.31852603  1  0.054997  -0.000103  0.100501  0.102663  -2.5e-05  1.007866  0.0
H  H65  1  0.82548101  0.31259938  0.68147402  1  0.054994  -0.000103  0.100494  0.102655  -2.5e-05  1.007899  0.0
H  H66  1  0.82547991  0.81259990  0.81852598  1  0.054994  -0.000103  0.100488  0.102637  -2.5e-05  1.007881  0.0
H  H67  1  0.32548190  0.18740072  0.18147406  1  0.054987  -0.000103  0.100493  0.102646  -2.5e-05  1.00789  0.0
C  C68  1  0.33261478  0.96493112  0.13263409  1  1.533857  -0.029149  0.234456  0.604152  -0.027325  4.120979  -0.025
C  C69  1  0.83261772  0.03506898  0.86736637  1  1.533836  -0.029147  0.234483  0.60422  -0.027322  4.121002  -0.025
C  C70  1  0.83261494  0.53506886  0.63263310  1  1.53387  -0.029145  0.234406  0.604055  -0.027322  4.12122  -0.025
C  C71  1  0.33261544  0.46493124  0.36736611  1  1.533854  -0.029149  0.234478  0.604157  -0.027325  4.121046  -0.025
C  C72  1  0.39897715  0.96666603  0.19350058  1  -0.066802  -0.001555  -0.019087  0.004304  -0.000665  4.016785  0.0
C  C73  1  0.89897598  0.03333405  0.80649904  1  -0.066721  -0.001556  -0.019048  0.004335  -0.000666  4.016847  0.0
C  C74  1  0.89897518  0.53333397  0.69350084  1  -0.066772  -0.001556  -0.019067  0.004344  -0.000666  4.016851  0.0
C  C75  1  0.39897582  0.46666664  0.30649962  1  -0.066725  -0.001555  -0.019055  0.004427  -0.000665  4.016771  0.0
C  C76  1  0.26754636  0.91836960  0.22968089  1  0.055194  -0.003567  -0.122761  -0.27451  -0.002574  3.996225  -0.002
C  C77  1  0.76754722  0.08162998  0.77031874  1  0.05541  -0.003566  -0.122747  -0.274457  -0.002573  3.996373  -0.002
C  C78  1  0.76754633  0.58163045  0.72968117  1  0.055526  -0.003566  -0.122739  -0.274404  -0.002573  3.996312  -0.002
C  C79  1  0.26754724  0.41837019  0.27031888  1  0.055432  -0.003567  -0.122741  -0.274464  -0.002574  3.996348  -0.002
C  C80  1  0.34162619  0.91853779  0.28561961  1  0.43229  0.000535  0.0768  0.279588  0.00067  4.101883  0.001
C  C81  1  0.84162506  0.08146177  0.71438127  1  0.431727  0.000535  0.076755  0.279556  0.00067  4.10197  0.001
C  C82  1  0.84162404  0.58146175  0.78561864  1  0.431689  0.000535  0.07676  0.279527  0.000669  4.101992  0.001
C  C83  1  0.34162508  0.41853782  0.21438141  1  0.431723  0.000535  0.076741  0.279509  0.00067  4.102053  0.001
C  C84  1  0.53601823  0.96839829  0.30649266  1  -0.019995  -0.00385  -0.122709  -0.341692  -0.003045  3.980936  -0.002
C  C85  1  0.03601957  0.03160187  0.69350700  1  -0.019725  -0.003849  -0.122729  -0.341727  -0.003045  3.980962  -0.002
C  C86  1  0.03602063  0.53160186  0.80649296  1  -0.019726  -0.003849  -0.122718  -0.341677  -0.003045  3.98095  -0.002
C  C87  1  0.53601930  0.46839777  0.19350711  1  -0.01975  -0.003851  -0.122706  -0.341668  -0.003046  3.980885  -0.002
C  C88  1  0.66059969  0.01691870  0.27006989  1  0.444275  0.000301  0.083049  0.276908  0.000463  4.088317  0.001
C  C89  1  0.16059951  0.98308143  0.72992976  1  0.444217  0.000301  0.083055  0.276909  0.000463  4.088334  0.001
C  C90  1  0.16060040  0.48308149  0.77006995  1  0.444228  0.000301  0.083001  0.276806  0.000463  4.088405  0.001
C  C91  1  0.66060093  0.51691865  0.22993094  1  0.444182  0.000301  0.083022  0.276903  0.000463  4.08837  0.001
C  C92  1  0.59717872  0.01557216  0.21319863  1  0.059548  -0.005061  -0.104018  -0.229669  -0.003737  3.941729  -0.003
C  C93  1  0.09717840  0.98442799  0.78680143  1  0.059561  -0.005061  -0.103999  -0.229642  -0.003737  3.941757  -0.003
C  C94  1  0.09718155  0.48442748  0.71319828  1  0.059549  -0.00506  -0.104018  -0.229762  -0.003737  3.941804  -0.003
C  C95  1  0.59717769  0.51557214  0.28680095  1  0.059618  -0.005061  -0.104042  -0.22978  -0.003737  3.941797  -0.003
C  C96  1  0.90938630  0.07225873  0.34454740  1  0.398738  -8.3e-05  -0.058386  -0.019844  -6.8e-05  3.930124  0.0
C  C97  1  0.40938651  0.92774135  0.65545264  1  0.398731  -8.3e-05  -0.058396  -0.019835  -6.8e-05  3.930173  0.0
C  C98  1  0.40938722  0.42774093  0.84454744  1  0.398768  -8.3e-05  -0.058379  -0.019813  -6.8e-05  3.930121  0.0
C  C99  1  0.90938772  0.57225862  0.15545260  1  0.39873  -8.3e-05  -0.058389  -0.019811  -6.8e-05  3.93016  0.0
C  C100  1  0.10397851  0.13404238  0.35455608  1  0.004377  -0.001198  -0.005497  0.096439  -0.000943  3.967169  -0.001
C  C101  1  0.60397886  0.86595777  0.64544441  1  0.004376  -0.001198  -0.005515  0.096387  -0.000943  3.967137  -0.001
C  C102  1  0.60397955  0.36595735  0.85455480  1  0.004375  -0.001198  -0.005608  0.096233  -0.000943  3.967315  -0.001
C  C103  1  0.10397782  0.63404227  0.14544443  1  0.004412  -0.001199  -0.00551  0.096432  -0.000944  3.967151  -0.001
C  C104  1  0.11766165  0.16437285  0.40762914  1  -0.048088  0.000311  -0.09405  -0.149914  0.000337  3.994096  0.0
C  C105  1  0.61766225  0.83562836  0.59237092  1  -0.04809  0.000311  -0.094014  -0.149831  0.000337  3.993805  0.0
C  C106  1  0.61766281  0.33562745  0.90762952  1  -0.048073  0.000311  -0.09399  -0.14982  0.000337  3.99396  0.0
C  C107  1  0.11766109  0.66437217  0.09237055  1  -0.048088  0.000311  -0.094034  -0.149862  0.000337  3.993837  0.0
C  C108  1  0.29550139  0.22182233  0.41780039  1  -0.062493  -0.001255  -0.078128  -0.073924  -0.000707  3.962945  -0.001
C  C109  1  0.79550648  0.77817778  0.58219966  1  -0.062492  -0.001255  -0.078115  -0.073897  -0.000707  3.962932  -0.001
C  C110  1  0.79550489  0.27817793  0.91779950  1  -0.062486  -0.001255  -0.078091  -0.073851  -0.000707  3.962955  -0.001
C  C111  1  0.29550511  0.72182270  0.08219972  1  -0.062466  -0.001255  -0.078116  -0.073952  -0.000707  3.96293  -0.001
C  C112  1  0.46426164  0.24932810  0.37490728  1  0.014545  -0.001299  -0.02182  -0.060378  -0.000842  4.009043  -0.001
C  C113  1  0.96426461  0.75067249  0.62509193  1  0.014507  -0.001299  -0.021825  -0.060495  -0.000842  4.009147  -0.001
C  C114  1  0.96426524  0.25067262  0.87490762  1  0.014538  -0.001299  -0.021796  -0.060334  -0.000842  4.009029  -0.001
C  C115  1  0.46426313  0.74932798  0.12509283  1  0.014472  -0.001299  -0.021836  -0.060379  -0.000842  4.00912  -0.001
C  C116  1  0.45314744  0.21871538  0.32198479  1  -0.009774  -0.001632  -0.078526  -0.0769  -0.001284  3.968585  -0.001
C  C117  1  0.95315016  0.78128469  0.67801566  1  -0.00972  -0.001632  -0.078664  -0.0771  -0.001284  3.968593  -0.001
C  C118  1  0.95315518  0.28128425  0.82198473  1  -0.009816  -0.001632  -0.078539  -0.076949  -0.001284  3.968477  -0.001
C  C119  1  0.45314667  0.71871529  0.17801530  1  -0.009733  -0.001632  -0.078536  -0.076919  -0.001284  3.968597  -0.001
C  C120  1  0.27268981  0.16163570  0.31183719  1  -0.04061  9.2e-05  -0.090121  -0.135129  0.000119  3.967224  0.0
C  C121  1  0.77268804  0.83836388  0.68816244  1  -0.040604  9.2e-05  -0.090081  -0.134989  0.000119  3.967127  0.0
C  C122  1  0.77269095  0.33836344  0.81183757  1  -0.040605  9.2e-05  -0.090108  -0.135052  0.000119  3.967385  0.0
C  C123  1  0.27269115  0.66163614  0.18816290  1  -0.040621  9.2e-05  -0.090115  -0.135143  0.000119  3.967268  0.0
C  C124  1  0.64629212  0.31143740  0.38657896  1  1.502354  -0.007254  0.241042  0.591333  -0.006766  4.096202  -0.006
C  C125  1  0.14629333  0.68856274  0.61342027  1  1.502349  -0.007254  0.241084  0.591404  -0.006766  4.096042  -0.006
C  C126  1  0.14629393  0.18856235  0.88657974  1  1.502372  -0.007255  0.240991  0.591179  -0.006767  4.09632  -0.006
C  C127  1  0.64628939  0.81143673  0.11342073  1  1.502338  -0.007255  0.241022  0.591333  -0.006766  4.096126  -0.006
C  C128  1  0.06227197  0.81438353  0.30164203  1  0.359117  -0.000297  -0.063807  -0.016847  -0.000221  3.897334  0.0
C  C129  1  0.56227262  0.18561610  0.69835804  1  0.359132  -0.000297  -0.06379  -0.016834  -0.000221  3.897359  0.0
C  C130  1  0.56227156  0.68561661  0.80164235  1  0.359117  -0.000298  -0.063794  -0.016829  -0.000221  3.897318  0.0
C  C131  1  0.06227090  0.31438408  0.19835814  1  0.359149  -0.000298  -0.063794  -0.016771  -0.000221  3.897287  0.0
C  C132  1  0.00794335  0.76181458  0.34700960  1  -0.060431  -0.008302  -0.015581  0.081812  -0.0065  3.990639  -0.005
C  C133  1  0.50794178  0.23818506  0.65299006  1  -0.060399  -0.008303  -0.015536  0.081887  -0.006502  3.990559  -0.005
C  C134  1  0.50794274  0.73818454  0.84700994  1  -0.060406  -0.008304  -0.015573  0.081825  -0.006502  3.990638  -0.005
C  C135  1  0.00794239  0.26181510  0.15298972  1  -0.060372  -0.008306  -0.015554  0.081864  -0.006503  3.990595  -0.005
C  C136  1  0.80014869  0.77568891  0.38729546  1  -0.046089  0.002145  -0.092884  -0.137063  0.002264  3.988811  0.002
C  C137  1  0.30014737  0.22431120  0.61270458  1  -0.046121  0.002146  -0.092908  -0.137117  0.002265  3.988857  0.002
C  C138  1  0.30014824  0.72431124  0.88729584  1  -0.045987  0.002146  -0.092906  -0.137141  0.002265  3.988939  0.002
C  C139  1  0.80014995  0.27568886  0.11270421  1  -0.046452  0.002146  -0.092906  -0.137134  0.002265  3.988923  0.002
C  C140  1  0.74043530  0.72566766  0.42803186  1  -0.036235  -0.008636  -0.081806  -0.08686  -0.006411  3.984191  -0.005
C  C141  1  0.24043603  0.27433246  0.57196861  1  -0.036208  -0.008637  -0.081782  -0.086819  -0.006413  3.984192  -0.005
C  C142  1  0.24043466  0.77433200  0.92803143  1  -0.036209  -0.008637  -0.081775  -0.086825  -0.006412  3.984232  -0.005
C  C143  1  0.74043454  0.22566812  0.07196821  1  -0.035863  -0.00864  -0.081818  -0.086884  -0.006414  3.984153  -0.005
C  C144  1  0.89146000  0.66143348  0.42971274  1  -0.017687  -0.000152  -0.012517  -0.041273  0.001456  3.966587  0.001
C  C145  1  0.39146049  0.33856661  0.57028730  1  -0.017691  -0.000151  -0.012523  -0.041291  0.001457  3.966575  0.001
C  C146  1  0.39146125  0.83856721  0.92971274  1  -0.017692  -0.000152  -0.012508  -0.041265  0.001457  3.966654  0.001
C  C147  1  0.89146350  0.16143128  0.07028647  1  -0.017801  -0.00015  -0.012503  -0.04123  0.001459  3.966511  0.001
C  C148  1  0.10608884  0.64835657  0.39075309  1  -0.000944  -0.008056  -0.077171  -0.073321  -0.005714  3.942471  -0.005
C  C149  1  0.60608908  0.35164305  0.60924739  1  -0.000947  -0.008056  -0.077179  -0.073342  -0.005714  3.942515  -0.005
C  C150  1  0.60608568  0.85164256  0.89075264  1  -0.000833  -0.008056  -0.077209  -0.073372  -0.005714  3.942567  -0.005
C  C151  1  0.10609011  0.14835653  0.10924743  1  -0.000896  -0.008059  -0.077144  -0.073267  -0.005716  3.942452  -0.005
C  C152  1  0.16102192  0.69810141  0.34935794  1  -0.039044  0.0015  -0.088158  -0.131716  0.001566  3.974643  0.001
C  C153  1  0.66102437  0.30189926  0.65064212  1  -0.039071  0.001501  -0.088176  -0.131743  0.001567  3.97468  0.001
C  C154  1  0.66102533  0.80189928  0.84935789  1  -0.039172  0.0015  -0.088151  -0.13167  0.001567  3.974599  0.001
C  C155  1  0.16102522  0.19810086  0.15064218  1  -0.039085  0.001501  -0.088175  -0.131736  0.001567  3.974631  0.001
C  C156  1  0.80404169  0.60568760  0.46991898  1  1.538142  -0.040828  0.24132  0.613596  -0.039673  4.123717  -0.034
C  C157  1  0.30403781  0.39431197  0.53008107  1  1.538232  -0.040829  0.241305  0.613604  -0.039675  4.123689  -0.034
C  C158  1  0.30403847  0.89431207  0.96991901  1  1.538221  -0.040828  0.241289  0.613562  -0.039674  4.123739  -0.034
C  C159  1  0.80404528  0.10568750  0.03008145  1  1.538165  -0.040832  0.241309  0.613542  -0.039678  4.123808  -0.034
O  O160  1  0.09982485  0.93480442  0.11690329  1  -1.198552  -0.060428  -0.297952  -0.571452  -0.045334  2.368225  -0.032
O  O161  1  0.59982551  0.06519627  0.88309678  1  -1.198514  -0.060428  -0.297954  -0.571474  -0.045334  2.368225  -0.032
O  O162  1  0.59982915  0.56519507  0.61690356  1  -1.198502  -0.060423  -0.29791  -0.571407  -0.045331  2.368378  -0.032
O  O163  1  0.09982547  0.43480455  0.38309692  1  -1.198543  -0.060427  -0.297943  -0.571454  -0.045334  2.368288  -0.032
O  O164  1  0.50753877  0.99329427  0.09934307  1  -1.202825  -0.053103  -0.300682  -0.566061  -0.036442  2.352206  -0.018
O  O165  1  0.00753758  0.00670591  0.90065617  1  -1.202838  -0.053099  -0.300701  -0.566095  -0.036438  2.35227  -0.018
O  O166  1  0.00753700  0.50670523  0.59934336  1  -1.202856  -0.053102  -0.300665  -0.565989  -0.03644  2.352302  -0.018
O  O167  1  0.50753934  0.49329441  0.40065671  1  -1.202829  -0.053103  -0.300683  -0.566064  -0.036441  2.352203  -0.018
O  O168  1  0.23633598  0.87133960  0.32367952  1  -1.061144  -0.00043  -0.188846  -0.221244  -0.0003  2.513838  0.0
O  O169  1  0.73633476  0.12866052  0.67632054  1  -1.061128  -0.00043  -0.188847  -0.221306  -0.0003  2.51387  0.0
O  O170  1  0.73633578  0.62865999  0.82367939  1  -1.061107  -0.000429  -0.188834  -0.221284  -0.0003  2.513863  0.0
O  O171  1  0.23633709  0.37134013  0.17632066  1  -1.061125  -0.00043  -0.188834  -0.221285  -0.0003  2.513855  0.0
O  O172  1  0.84960697  0.06778725  0.28663948  1  -1.076685  9e-06  -0.173298  -0.191996  3.4e-05  2.575478  0.0
O  O173  1  0.34960702  0.93221285  0.71336056  1  -1.076684  9e-06  -0.173307  -0.192012  3.4e-05  2.575503  0.0
O  O174  1  0.34960574  0.43221292  0.78663911  1  -1.076684  9e-06  -0.173306  -0.192006  3.4e-05  2.575535  0.0
O  O175  1  0.84960612  0.56778665  0.21336052  1  -1.076674  9e-06  -0.17329  -0.192024  3.4e-05  2.57549  0.0
O  O176  1  0.56652454  0.61329412  0.49345733  1  -1.183201  -0.084388  -0.287477  -0.536467  -0.059588  2.376044  -0.044
O  O177  1  0.06652500  0.38670550  0.50654315  1  -1.183306  -0.084385  -0.287459  -0.536462  -0.059587  2.37609  -0.044
O  O178  1  0.06652561  0.88670562  0.99345694  1  -1.183302  -0.084387  -0.287455  -0.536437  -0.059587  2.376091  -0.044
O  O179  1  0.56651754  0.11329454  0.00654354  1  -1.183236  -0.084395  -0.287488  -0.53644  -0.059593  2.375967  -0.044
O  O180  1  0.96833460  0.55093222  0.47725193  1  -1.22678  -0.10245  -0.307658  -0.613927  -0.076323  2.420324  -0.037
O  O181  1  0.46833478  0.44906838  0.52274811  1  -1.226762  -0.102448  -0.30766  -0.613939  -0.076324  2.420284  -0.037
O  O182  1  0.46833543  0.94906795  0.97725198  1  -1.226762  -0.102447  -0.307659  -0.61393  -0.076323  2.420285  -0.037
O  O183  1  0.96833182  0.05093159  0.02274722  1  -1.226742  -0.102445  -0.307653  -0.613946  -0.076322  2.420425  -0.037
O  O184  1  0.81131711  0.33179296  0.34503405  1  -1.188001  -0.003171  -0.322654  -0.484966  -0.00192  2.360718  -0.002
O  O185  1  0.31132041  0.66820767  0.65496558  1  -1.188015  -0.003171  -0.32271  -0.485011  -0.00192  2.360558  -0.002
O  O186  1  0.31132112  0.16820725  0.84503441  1  -1.187973  -0.003171  -0.322644  -0.484921  -0.001921  2.360717  -0.002
O  O187  1  0.81131853  0.83179285  0.15496606  1  -1.187989  -0.003171  -0.322671  -0.484957  -0.001921  2.360616  -0.002
O  O188  1  0.63965577  0.34243212  0.43222075  1  -1.173169  -0.046625  -0.269087  -0.501713  -0.033336  2.304177  -0.021
O  O189  1  0.13965507  0.65756803  0.56777931  1  -1.173185  -0.046627  -0.269033  -0.501641  -0.033336  2.30413  -0.021
O  O190  1  0.13965769  0.15756766  0.93222110  1  -1.173198  -0.046626  -0.269048  -0.501614  -0.033335  2.304246  -0.021
O  O191  1  0.63965527  0.84243195  0.06777896  1  -1.173166  -0.046625  -0.269035  -0.501683  -0.033335  2.304175  -0.021
