# generated using pymatgen
data_CuH14C20(NO)4
_symmetry_space_group_name_H-M   'P 1'
_cell_length_a   10.21080412
_cell_length_b   12.57330505
_cell_length_c   17.68479564
_cell_angle_alpha   91.22830647
_cell_angle_beta   89.99989981
_cell_angle_gamma   90.00004207
_symmetry_Int_Tables_number   1
_chemical_formula_structural   CuH14C20(NO)4
_chemical_formula_sum   'Cu4 H56 C80 N16 O16'
_cell_volume   2269.91522210
_cell_formula_units_Z   4
loop_
 _symmetry_equiv_pos_site_id
 _symmetry_equiv_pos_as_xyz
  1  'x, y, z'
loop_
 _atom_site_type_symbol
 _atom_site_label
 _atom_site_symmetry_multiplicity
 _atom_site_fract_x
 _atom_site_fract_y
 _atom_site_fract_z
 _atom_site_occupancy
 _atom_site_pbe_bader_charge
 _atom_site_pbe_bader_spin_density
 _atom_site_pbe_cm5_charge
 _atom_site_pbe_ddec_charge
 _atom_site_pbe_ddec_spin_density
 _atom_site_pbe_ddec_sum_bond_order
 _atom_site_pbe_magmom
Cu  Cu0  1  0.00904513  0.25456488  0.83493327  1  1.062988  0.580178  0.739473  0.757575  0.737501  2.265072  0.578
Cu  Cu1  1  0.50904420  0.24543592  0.66506705  1  1.062994  0.580177  0.739478  0.757601  0.7375  2.265029  0.578
Cu  Cu2  1  0.99095141  0.74543406  0.16506678  1  1.063003  0.580179  0.739465  0.757511  0.737501  2.265199  0.578
Cu  Cu3  1  0.49095625  0.75456383  0.33493415  1  1.062831  0.580181  0.739471  0.757567  0.737505  2.265077  0.578
H  H4  1  0.37825826  0.81827061  0.17121081  1  0.22279  0.000477  0.13901  0.125778  0.000153  1.044049  0.0
H  H5  1  0.87825776  0.68172802  0.32879081  1  0.222819  0.000477  0.139006  0.125778  0.000153  1.044019  0.0
H  H6  1  0.62174514  0.18172755  0.82879093  1  0.222804  0.000477  0.139012  0.125746  0.000153  1.044026  0.0
H  H7  1  0.12174368  0.31827252  0.67120870  1  0.222819  0.000477  0.139005  0.125763  0.000153  1.044043  0.0
H  H8  1  0.42102029  0.20446746  0.96936327  1  0.101459  2.3e-05  0.100831  0.102155  -1.4e-05  1.038065  0.0
H  H9  1  0.92101591  0.29553597  0.53063780  1  0.101502  2.3e-05  0.100834  0.102198  -1.4e-05  1.038113  0.0
H  H10  1  0.57897919  0.79553069  0.03063620  1  0.101486  2.3e-05  0.100855  0.102188  -1.4e-05  1.038036  0.0
H  H11  1  0.07898064  0.70446776  0.46936288  1  0.10143  2.3e-05  0.100855  0.102213  -1.4e-05  1.03812  0.0
H  H12  1  0.72939807  0.09310263  0.61254228  1  0.096575  -3e-05  0.106966  0.120634  -0.000115  1.050077  0.0
H  H13  1  0.22939897  0.40689512  0.88745835  1  0.096822  -3e-05  0.106949  0.120622  -0.000115  1.050088  0.0
H  H14  1  0.27060337  0.90690029  0.38745613  1  0.096413  -3e-05  0.106955  0.120611  -0.000115  1.050103  0.0
H  H15  1  0.77060051  0.59310462  0.11254058  1  0.097045  -3e-05  0.106951  0.120615  -0.000115  1.050106  0.0
H  H16  1  0.84363678  0.16784939  0.69296877  1  0.221506  0.000572  0.141052  0.125103  0.000156  1.037935  0.001
H  H17  1  0.34363786  0.33215002  0.80703233  1  0.221507  0.000572  0.141066  0.125094  0.000156  1.03794  0.001
H  H18  1  0.15636074  0.83214797  0.30703296  1  0.221557  0.000572  0.141063  0.125071  0.000156  1.037989  0.001
H  H19  1  0.65636456  0.66784735  0.19297053  1  0.221497  0.000572  0.141064  0.125126  0.000156  1.037887  0.001
H  H20  1  0.09709072  0.99537399  0.00692761  1  0.115052  0.000631  0.107244  0.11337  0.000552  1.023398  0.0
H  H21  1  0.59708760  0.50463005  0.49307435  1  0.114559  0.000632  0.107231  0.113361  0.000552  1.023411  0.0
H  H22  1  0.90290973  0.00462497  0.99307414  1  0.114599  0.000632  0.107247  0.113388  0.000552  1.023464  0.0
H  H23  1  0.40291188  0.49537687  0.50692806  1  0.115087  0.000631  0.10724  0.113384  0.000552  1.02335  0.0
H  H24  1  0.20994451  0.91898260  0.11620992  1  0.128162  -1.1e-05  0.109807  0.130049  -7.3e-05  1.031193  0.0
H  H25  1  0.70994571  0.58102071  0.38379192  1  0.128548  -1.1e-05  0.109814  0.13008  -7.3e-05  1.031186  0.0
H  H26  1  0.79006182  0.08101953  0.88379017  1  0.128405  -1.1e-05  0.109823  0.130093  -7.3e-05  1.031095  0.0
H  H27  1  0.29005573  0.41898780  0.61621108  1  0.128219  -1.1e-05  0.109828  0.130073  -7.3e-05  1.031187  0.0
H  H28  1  0.59866117  0.00197714  0.51551387  1  0.109328  0.000607  0.104415  0.111751  0.000561  1.030797  0.0
H  H29  1  0.09865989  0.49801973  0.98448631  1  0.109105  0.000608  0.104407  0.11172  0.000561  1.030856  0.0
H  H30  1  0.40134223  0.99802577  0.48448397  1  0.109239  0.000608  0.104435  0.111787  0.000561  1.03074  0.0
H  H31  1  0.90133959  0.50198001  0.01551375  1  0.109175  0.000607  0.104401  0.111698  0.000561  1.030842  0.0
H  H32  1  0.59375238  0.99484807  0.33504255  1  0.150384  0.000584  0.123663  0.121538  0.000179  1.004398  0.001
H  H33  1  0.09374871  0.50514958  0.16495707  1  0.150403  0.000584  0.123659  0.121534  0.000179  1.004451  0.001
H  H34  1  0.40624906  0.00515326  0.66495696  1  0.150416  0.000584  0.123665  0.121573  0.000179  1.004374  0.001
H  H35  1  0.90624685  0.49484618  0.83504181  1  0.150405  0.000584  0.123672  0.121569  0.000179  1.004373  0.001
H  H36  1  0.53980169  0.12752432  0.07997817  1  0.064251  0.000223  0.10588  0.112808  0.000113  1.006451  0.0
H  H37  1  0.03979952  0.37247637  0.42002155  1  0.06431  0.000223  0.105877  0.112778  0.000113  1.006499  0.0
H  H38  1  0.46020562  0.87247541  0.92001850  1  0.064208  0.000222  0.105909  0.112837  0.000113  1.006523  0.0
H  H39  1  0.96019702  0.62752416  0.57997796  1  0.064492  0.000222  0.105886  0.11283  0.000113  1.006398  0.0
H  H40  1  0.04461499  0.86775080  0.57304445  1  0.071817  0.000227  0.103328  0.107668  0.000123  1.023107  0.0
H  H41  1  0.54460924  0.63225095  0.92695866  1  0.071558  0.000227  0.103325  0.107676  0.000123  1.023156  0.0
H  H42  1  0.95538645  0.13224974  0.42695618  1  0.071823  0.000227  0.103341  0.107696  0.000123  1.023073  0.0
H  H43  1  0.45538730  0.36774881  0.07304423  1  0.071845  0.000227  0.103333  0.107693  0.000123  1.023109  0.0
H  H44  1  0.21392029  0.07928563  0.77629920  1  0.143132  0.000956  0.11868  0.114905  0.000389  1.028778  0.001
H  H45  1  0.71392424  0.42071371  0.72370429  1  0.143129  0.000956  0.118651  0.114886  0.000389  1.028773  0.001
H  H46  1  0.78607625  0.92071174  0.22370310  1  0.143112  0.000955  0.118674  0.114886  0.000388  1.028771  0.001
H  H47  1  0.28607720  0.57928841  0.27629467  1  0.143162  0.000956  0.118666  0.114845  0.000389  1.028713  0.001
H  H48  1  0.53171691  0.12715783  0.21572945  1  0.096457  0.001067  0.128277  0.128681  0.000533  0.997756  0.001
H  H49  1  0.03171417  0.37284127  0.28427139  1  0.096435  0.001067  0.128279  0.128684  0.000533  0.997739  0.001
H  H50  1  0.46829041  0.87283951  0.78426719  1  0.096455  0.001067  0.128255  0.128671  0.000533  0.997704  0.001
H  H51  1  0.96828139  0.62715769  0.71572980  1  0.096458  0.001067  0.128284  0.128698  0.000533  0.997719  0.001
H  H52  1  0.14699076  0.94013930  0.65915506  1  0.109306  0.000902  0.125051  0.123234  0.000453  1.013686  0.001
H  H53  1  0.64699305  0.55986013  0.84084906  1  0.109626  0.000902  0.125035  0.1232  0.000453  1.013658  0.001
H  H54  1  0.85300872  0.05986045  0.34084614  1  0.109623  0.000902  0.125035  0.123232  0.000453  1.013683  0.001
H  H55  1  0.35300251  0.44014516  0.15914655  1  0.109683  0.000903  0.125028  0.123171  0.000453  1.013636  0.001
H  H56  1  0.91064288  0.78015546  0.47265167  1  0.085396  2.8e-05  0.102506  0.103342  -2e-06  1.031114  0.0
H  H57  1  0.41063689  0.71984479  0.02735106  1  0.087236  2.9e-05  0.102447  0.10328  -2e-06  1.03108  0.0
H  H58  1  0.08935758  0.21984509  0.52734953  1  0.087229  2.9e-05  0.102479  0.103314  -2e-06  1.031105  0.0
H  H59  1  0.58936161  0.28015497  0.97265239  1  0.085423  2.8e-05  0.102487  0.103299  -2e-06  1.03107  0.0
C  C60  1  0.74638944  0.88378517  0.48768789  1  0.009368  0.006324  -0.02402  -0.043375  0.004503  3.99435  0.005
C  C61  1  0.24638633  0.61620941  0.01231437  1  0.009271  0.006325  -0.024036  -0.043494  0.004503  3.994296  0.005
C  C62  1  0.25361200  0.11621377  0.51231103  1  0.009466  0.006326  -0.023982  -0.043315  0.004504  3.994198  0.005
C  C63  1  0.75361119  0.38378875  0.98768680  1  0.009468  0.006325  -0.024029  -0.043443  0.004504  3.994316  0.005
C  C64  1  0.25164767  0.10719138  0.98238561  1  0.019327  0.00713  -0.020112  -0.035554  0.005021  3.973359  0.006
C  C65  1  0.75164733  0.39281117  0.51761675  1  0.01899  0.00713  -0.02011  -0.035482  0.005021  3.973312  0.006
C  C66  1  0.74835769  0.89280996  0.01761504  1  0.019383  0.00713  -0.020105  -0.035457  0.005021  3.973231  0.006
C  C67  1  0.24835215  0.60719335  0.48238337  1  0.019149  0.00713  -0.02014  -0.035628  0.005021  3.973467  0.006
C  C68  1  0.18245148  0.16238655  0.91962550  1  1.558612  -0.001534  0.19214  0.554611  -0.002153  4.221995  -0.003
C  C69  1  0.68244894  0.33761595  0.58037580  1  1.55861  -0.001534  0.192166  0.554642  -0.002153  4.222036  -0.003
C  C70  1  0.81754800  0.83761240  0.08037398  1  1.558543  -0.001534  0.192194  0.554707  -0.002153  4.221964  -0.003
C  C71  1  0.31754956  0.66238937  0.41962547  1  1.558483  -0.001534  0.19211  0.554561  -0.002153  4.221972  -0.003
C  C72  1  0.67059724  0.82744341  0.42656757  1  1.548193  -0.001515  0.192764  0.552717  -0.00212  4.22534  -0.003
C  C73  1  0.17059008  0.67255509  0.07343368  1  1.547823  -0.001517  0.192606  0.552558  -0.002121  4.225392  -0.003
C  C74  1  0.32940420  0.17255792  0.57343307  1  1.548286  -0.001515  0.192694  0.552657  -0.00212  4.225494  -0.003
C  C75  1  0.82940646  0.32744306  0.92656749  1  1.547753  -0.001517  0.192743  0.552699  -0.00212  4.225316  -0.003
C  C76  1  0.89534232  0.98545568  0.60104923  1  0.235249  0.000663  0.097153  0.172157  0.0005  4.007249  0.001
C  C77  1  0.39534381  0.51454389  0.89895408  1  0.235854  0.000663  0.097239  0.172354  0.0005  4.007123  0.001
C  C78  1  0.10465716  0.01454645  0.39895086  1  0.235225  0.000664  0.097244  0.172319  0.000501  4.007147  0.001
C  C79  1  0.60465861  0.48545983  0.10104603  1  0.235813  0.000664  0.097211  0.172372  0.000501  4.007182  0.001
C  C80  1  0.37973292  0.02133659  0.10627489  1  0.208348  0.000427  0.094815  0.167762  0.000271  4.014814  0.001
C  C81  1  0.87972954  0.47866430  0.39372506  1  0.208356  0.000427  0.09481  0.167768  0.000271  4.014881  0.001
C  C82  1  0.62026852  0.97865996  0.89372400  1  0.208365  0.000427  0.094828  0.167699  0.000271  4.014718  0.001
C  C83  1  0.12026798  0.52133862  0.60627391  1  0.208414  0.000428  0.094781  0.167675  0.000271  4.014694  0.001
C  C84  1  0.43055285  0.88264307  0.20022478  1  0.943947  -0.001818  0.150395  0.108465  -0.002187  3.841996  0.0
C  C85  1  0.93055042  0.61735559  0.29977509  1  0.943564  -0.001818  0.150391  0.108482  -0.002187  3.841848  0.0
C  C86  1  0.56945250  0.11735509  0.79977526  1  0.943903  -0.001818  0.150408  0.108568  -0.002187  3.84173  0.0
C  C87  1  0.06944906  0.38264415  0.70022384  1  0.943532  -0.001818  0.150408  0.108504  -0.002187  3.84192  0.0
C  C88  1  0.37688908  0.14259689  0.00309686  1  -0.089168  0.000972  -0.086905  -0.086924  0.000492  3.99766  0.001
C  C89  1  0.87688626  0.35740561  0.49690594  1  -0.089196  0.000971  -0.086936  -0.087062  0.000492  3.997892  0.001
C  C90  1  0.62311431  0.85740444  0.99690153  1  -0.089081  0.000972  -0.086925  -0.086982  0.000492  3.997612  0.001
C  C91  1  0.12311028  0.64259972  0.50309645  1  -0.089011  0.000972  -0.086918  -0.08697  0.000492  3.99774  0.001
C  C92  1  0.76990811  0.02310078  0.58385446  1  0.07219  -0.000215  -0.091498  -0.164287  -0.00035  3.950704  0.0
C  C93  1  0.26990703  0.47689780  0.91614897  1  0.071719  -0.000215  -0.091481  -0.164297  -0.00035  3.950538  0.0
C  C94  1  0.23009332  0.97690054  0.41614336  1  0.072265  -0.000215  -0.091516  -0.164327  -0.00035  3.950646  0.0
C  C95  1  0.73009147  0.52310434  0.08385225  1  0.071644  -0.000215  -0.091495  -0.164335  -0.00035  3.950726  0.0
C  C96  1  0.93289024  0.12304340  0.70187704  1  0.923776  -0.001464  0.151488  0.105484  -0.001733  3.838443  0.0
C  C97  1  0.43289139  0.37695606  0.79812566  1  0.924556  -0.001466  0.151403  0.10546  -0.001733  3.838556  0.0
C  C98  1  0.06710826  0.87695476  0.29812469  1  0.923953  -0.001465  0.151466  0.105519  -0.001734  3.838481  0.0
C  C99  1  0.56711201  0.62304369  0.20187553  1  0.923811  -0.001464  0.151419  0.105426  -0.001733  3.838583  0.0
C  C100  1  0.19346858  0.02512872  0.02282985  1  -0.05389  0.000212  -0.07592  -0.063641  8.9e-05  3.942133  0.0
C  C101  1  0.69346886  0.47487604  0.47717203  1  -0.053564  0.000212  -0.075852  -0.063565  8.9e-05  3.942034  0.0
C  C102  1  0.80653678  0.97487182  0.97717191  1  -0.05404  0.000212  -0.075882  -0.063669  8.9e-05  3.942205  0.0
C  C103  1  0.30653062  0.52513166  0.52282983  1  -0.053851  0.000211  -0.075872  -0.063564  8.9e-05  3.942094  0.0
C  C104  1  0.25676363  0.98209233  0.08481269  1  0.06278  9e-06  -0.087907  -0.160318  -0.000114  3.942447  0.0
C  C105  1  0.75676271  0.51791179  0.41518855  1  0.062302  9e-06  -0.087983  -0.160476  -0.000114  3.942624  0.0
C  C106  1  0.74323977  0.01790503  0.91518847  1  0.062593  9e-06  -0.087952  -0.160353  -0.000114  3.942329  0.0
C  C107  1  0.24323481  0.48209353  0.58481328  1  0.062686  9e-06  -0.087948  -0.160351  -0.000114  3.942523  0.0
C  C108  1  0.69613382  0.97194289  0.52783694  1  -0.021097  0.000408  -0.080738  -0.073509  0.00026  3.958191  0.0
C  C109  1  0.19613021  0.52805338  0.97216539  1  -0.020872  0.000408  -0.080696  -0.073412  0.000259  3.958218  0.0
C  C110  1  0.30386860  0.02805764  0.47215974  1  -0.021085  0.000407  -0.080772  -0.073552  0.000259  3.958081  0.0
C  C111  1  0.80386731  0.47194637  0.02783523  1  -0.021014  0.000408  -0.080714  -0.073402  0.000259  3.95815  0.0
C  C112  1  0.54270554  0.97784292  0.28255986  1  0.410619  0.000799  0.001772  -0.018  0.000509  4.009535  0.001
C  C113  1  0.04270172  0.52215710  0.21743985  1  0.410367  0.000798  0.001767  -0.018039  0.000508  4.009677  0.001
C  C114  1  0.45730079  0.02215762  0.71744022  1  0.410335  0.000798  0.001791  -0.018031  0.000508  4.009543  0.001
C  C115  1  0.95729384  0.47784105  0.78255906  1  0.410525  0.000799  0.00175  -0.018042  0.000508  4.009585  0.001
C  C116  1  0.44167231  0.10038995  0.06474867  1  -0.004948  0.000969  -0.096229  -0.180875  0.00064  4.013324  0.001
C  C117  1  0.94166775  0.39961098  0.43525178  1  -0.004865  0.000969  -0.096209  -0.18079  0.00064  4.013307  0.001
C  C118  1  0.55833011  0.89960739  0.93524853  1  -0.004923  0.00097  -0.096279  -0.180944  0.00064  4.013407  0.001
C  C119  1  0.05832781  0.60039195  0.56474775  1  -0.005201  0.000969  -0.096205  -0.180839  0.00064  4.013124  0.001
C  C120  1  0.94678491  0.89742871  0.56126995  1  -0.046199  0.00085  -0.097867  -0.181034  0.000566  4.007878  0.001
C  C121  1  0.44678244  0.60257009  0.93873273  1  -0.046437  0.000851  -0.097843  -0.181117  0.000566  4.00796  0.001
C  C122  1  0.05321555  0.10257023  0.43872953  1  -0.046176  0.00085  -0.097965  -0.181242  0.000566  4.007984  0.001
C  C123  1  0.55321606  0.39742887  0.06126845  1  -0.046712  0.00085  -0.097861  -0.181184  0.000566  4.007941  0.001
C  C124  1  0.12570985  0.07462082  0.74249172  1  0.385537  9.8e-05  0.00446  -0.009323  -0.000338  3.99468  0.0
C  C125  1  0.62571370  0.42538005  0.75751018  1  0.385824  9.6e-05  0.004551  -0.009164  -0.000339  3.994518  0.0
C  C126  1  0.87428767  0.92538210  0.25750838  1  0.385513  9.8e-05  0.004433  -0.009283  -0.000338  3.994649  0.0
C  C127  1  0.37429068  0.57462049  0.24249046  1  0.385568  9.8e-05  0.004501  -0.009096  -0.000338  3.994659  0.0
C  C128  1  0.51284077  0.04357926  0.22429752  1  0.27607  0.003332  -0.000344  -0.112799  0.002171  3.924573  0.002
C  C129  1  0.01283716  0.45641983  0.27570334  1  0.276379  0.003333  -0.000353  -0.112781  0.002172  3.924572  0.002
C  C130  1  0.48716654  0.95641969  0.77570253  1  0.276331  0.003332  -0.000362  -0.112829  0.002171  3.92457  0.002
C  C131  1  0.98715742  0.54357833  0.72429727  1  0.27614  0.003332  -0.000307  -0.112771  0.002171  3.924581  0.002
C  C132  1  0.09343136  0.00577722  0.68458031  1  0.332033  0.003124  -0.002907  -0.115335  0.002104  3.930276  0.002
C  C133  1  0.59343411  0.49422126  0.81542273  1  0.3312  0.003124  -0.002925  -0.115339  0.002105  3.930209  0.002
C  C134  1  0.90656910  0.99422253  0.31542032  1  0.331697  0.003123  -0.002887  -0.11538  0.002104  3.930312  0.002
C  C135  1  0.40656341  0.50578406  0.18457854  1  0.331304  0.003124  -0.002924  -0.11533  0.002104  3.930348  0.002
C  C136  1  0.87239808  0.84800295  0.50488817  1  -0.076405  0.001138  -0.085233  -0.080563  0.000618  3.994739  0.001
C  C137  1  0.37239156  0.65199501  0.99511457  1  -0.078174  0.001138  -0.085212  -0.08043  0.000617  3.994481  0.001
C  C138  1  0.12760336  0.15199759  0.49511190  1  -0.078261  0.001138  -0.085137  -0.080417  0.000618  3.994597  0.001
C  C139  1  0.62760302  0.34800394  0.00488775  1  -0.076416  0.001139  -0.0852  -0.080406  0.000618  3.994594  0.001
N  N140  1  0.49167330  0.87801110  0.26666939  1  -1.189729  0.07639  -0.373209  -0.298465  0.050643  3.649805  0.066
N  N141  1  0.99167206  0.62198679  0.23333041  1  -1.189737  0.076392  -0.373189  -0.298472  0.050645  3.649794  0.066
N  N142  1  0.50833010  0.12198785  0.73333066  1  -1.189679  0.07639  -0.373241  -0.298614  0.050643  3.649712  0.066
N  N143  1  0.00832840  0.37801056  0.76666906  1  -1.189673  0.076392  -0.373223  -0.298475  0.050644  3.649647  0.066
N  N144  1  0.97043873  0.03642495  0.65907853  1  -1.256855  0.002809  -0.21833  0.023884  0.001536  3.764523  0.002
N  N145  1  0.47043884  0.46357454  0.84092414  1  -1.256555  0.002809  -0.218342  0.023843  0.001536  3.764569  0.002
N  N146  1  0.02956075  0.96357559  0.34092211  1  -1.256862  0.002809  -0.218347  0.023917  0.001536  3.764468  0.002
N  N147  1  0.52956161  0.53642839  0.15907709  1  -1.256639  0.002809  -0.218357  0.023795  0.001536  3.764621  0.002
N  N148  1  0.02497246  0.14680529  0.75255379  1  -1.187858  0.076552  -0.372342  -0.28263  0.05075  3.65677  0.066
N  N149  1  0.52497529  0.35319473  0.74744933  1  -1.188712  0.076555  -0.372319  -0.282733  0.05075  3.656789  0.066
N  N150  1  0.97502409  0.85319207  0.24744794  1  -1.188004  0.076551  -0.372317  -0.282665  0.050749  3.656768  0.066
N  N151  1  0.47502713  0.64680422  0.25255185  1  -1.187749  0.076555  -0.372277  -0.282684  0.050752  3.656856  0.066
N  N152  1  0.44097523  0.98268953  0.17262950  1  -1.254987  0.002251  -0.221092  0.018908  0.001187  3.784182  0.002
N  N153  1  0.94097459  0.51730913  0.32737092  1  -1.25467  0.002251  -0.221074  0.018953  0.001187  3.784162  0.002
N  N154  1  0.55903306  0.01730702  0.82736883  1  -1.255008  0.002251  -0.221066  0.019062  0.001188  3.784119  0.002
N  N155  1  0.05902587  0.48269061  0.67262857  1  -1.254621  0.002251  -0.221104  0.018879  0.001187  3.78434  0.002
O  O156  1  0.54724850  0.84988362  0.42145914  1  -1.105094  0.115709  -0.325095  -0.519235  0.073052  2.264103  0.104
O  O157  1  0.04723837  0.65011481  0.07854110  1  -1.104893  0.115716  -0.325012  -0.519065  0.073056  2.264029  0.104
O  O158  1  0.45275294  0.15011851  0.57854095  1  -1.105291  0.115711  -0.325065  -0.519241  0.073052  2.264077  0.104
O  O159  1  0.95275524  0.34988414  0.92145895  1  -1.104889  0.11571  -0.3251  -0.519268  0.073051  2.264111  0.104
O  O160  1  0.05856898  0.14501373  0.91198660  1  -1.106294  0.11793  -0.322021  -0.511934  0.074541  2.241931  0.105
O  O161  1  0.55856643  0.35498790  0.58801424  1  -1.106362  0.11793  -0.32205  -0.511933  0.074541  2.241919  0.105
O  O162  1  0.94142757  0.85498442  0.08801344  1  -1.106252  0.117925  -0.322064  -0.512016  0.074538  2.242026  0.105
O  O163  1  0.44143011  0.64501344  0.41198584  1  -1.106297  0.117924  -0.322015  -0.511926  0.074538  2.24194  0.105
O  O164  1  0.72717950  0.76234308  0.38237639  1  -1.181943  0.001102  -0.326235  -0.577427  -0.000399  2.21542  0.002
O  O165  1  0.22717324  0.73765387  0.11762648  1  -1.181813  0.001101  -0.326192  -0.577424  -0.0004  2.215328  0.002
O  O166  1  0.27281998  0.23765586  0.61762366  1  -1.181943  0.001101  -0.326201  -0.577391  -0.000399  2.215543  0.002
O  O167  1  0.77282134  0.26234350  0.88237638  1  -1.181886  0.001101  -0.32622  -0.577412  -0.000399  2.215363  0.002
O  O168  1  0.24593726  0.22483321  0.87828923  1  -1.189824  0.000912  -0.333181  -0.587363  -0.000569  2.198493  0.002
O  O169  1  0.74593356  0.27516852  0.62171143  1  -1.189795  0.000912  -0.333187  -0.587423  -0.000569  2.198542  0.002
O  O170  1  0.75406124  0.77516733  0.12171141  1  -1.189861  0.000913  -0.333192  -0.587398  -0.000569  2.19841  0.002
O  O171  1  0.25406396  0.72483360  0.37828810  1  -1.189755  0.000913  -0.333175  -0.587319  -0.000569  2.198395  0.002
