# generated using pymatgen
data_CuReH4C4(NO2)2
_symmetry_space_group_name_H-M   'P 1'
_cell_length_a   7.90999033
_cell_length_b   8.37952821
_cell_length_c   11.94172226
_cell_angle_alpha   89.99972737
_cell_angle_beta   90.00001532
_cell_angle_gamma   101.93995354
_symmetry_Int_Tables_number   1
_chemical_formula_structural   CuReH4C4(NO2)2
_chemical_formula_sum   'Cu4 Re4 H16 C16 N8 O16'
_cell_volume   774.39648867
_cell_formula_units_Z   4
loop_
 _symmetry_equiv_pos_site_id
 _symmetry_equiv_pos_as_xyz
  1  'x, y, z'
loop_
 _atom_site_type_symbol
 _atom_site_label
 _atom_site_symmetry_multiplicity
 _atom_site_fract_x
 _atom_site_fract_y
 _atom_site_fract_z
 _atom_site_occupancy
 _atom_site_hle17_bader_spin_density
 _atom_site_hle17_ddec_charge
 _atom_site_hle17_ddec_spin_density
 _atom_site_hle17_ddec_sum_bond_order
 _atom_site_hle17_magmom
 _atom_site_hse06_10hf_bader_spin_density
 _atom_site_hse06_10hf_ddec_charge
 _atom_site_hse06_10hf_ddec_spin_density
 _atom_site_hse06_10hf_ddec_sum_bond_order
 _atom_site_hse06_10hf_magmom
 _atom_site_hse06_bader_spin_density
 _atom_site_hse06_ddec_charge
 _atom_site_hse06_ddec_spin_density
 _atom_site_hse06_ddec_sum_bond_order
 _atom_site_hse06_magmom
 _atom_site_pbe_bader_spin_density
 _atom_site_pbe_cm5_charge
 _atom_site_pbe_ddec_charge
 _atom_site_pbe_ddec_spin_density
 _atom_site_pbe_ddec_sum_bond_order
 _atom_site_pbe_magmom
Cu  Cu0  1  0.66130725  0.16932879  0.03752200  1  0  0.59197  0  1.748632  0  0  0.47458  0  2.217241  0  0  0.461575  0  2.183555  0  0  0.574944  0.487834  0  2.237002  0
Cu  Cu1  1  0.83868660  0.33066500  0.53752332  1  0  0.592002  0  1.748691  0  0  0.474637  0  2.217316  0  0  0.46164  0  2.183601  0  0  0.574961  0.487881  0  2.237014  0
Cu  Cu2  1  0.33869088  0.83066231  0.96248125  1  0  0.592043  0  1.748738  0  0  0.474651  0  2.217358  0  0  0.461653  0  2.183662  0  0  0.57499  0.487906  0  2.237113  0
Cu  Cu3  1  0.16130485  0.66933587  0.46247239  1  0  0.592064  0  1.748607  0  0  0.474611  0  2.217263  0  0  0.461613  0  2.183574  0  0  0.574923  0.487859  0  2.236959  0
Re  Re4  1  0.37114081  0.95974429  0.25313612  1  0  1.922975  0  5.043476  0  0  1.976084  0  5.698058  0  0  2.06026  0  5.658446  0  0  1.322361  1.918976  0  5.725357  0
Re  Re5  1  0.12886561  0.54026265  0.75313335  1  0  1.922875  0  5.042594  0  0  1.97593  0  5.697282  0  0  2.060111  0  5.657668  0  0  1.322245  1.918821  0  5.724567  0
Re  Re6  1  0.62886373  0.04025290  0.74686462  1  0  1.922936  0  5.043003  0  0  1.976071  0  5.69762  0  0  2.060252  0  5.658006  0  0  1.322336  1.918959  0  5.724919  0
Re  Re7  1  0.87114089  0.45974918  0.24686403  1  0  1.923159  0  5.043307  0  0  1.976262  0  5.69782  0  0  2.06044  0  5.658215  0  0  1.32245  1.919158  0  5.725107  0
H  H8  1  0.70238099  0.42162391  0.86804332  1  0  0.110742  0  0.963147  0  0  0.117548  0  1.027253  0  0  0.121023  0  1.024032  0  0  0.122175  0.114974  0  1.029755  0
H  H9  1  0.79762089  0.07837122  0.36805154  1  0  0.110774  0  0.96318  0  0  0.117546  0  1.027315  0  0  0.121015  0  1.024103  0  0  0.122153  0.114973  0  1.029816  0
H  H10  1  0.29762617  0.57836229  0.13195657  1  0  0.110731  0  0.963191  0  0  0.117483  0  1.027381  0  0  0.120956  0  1.024165  0  0  0.1221  0.114912  0  1.029886  0
H  H11  1  0.20238085  0.92162476  0.63195590  1  0  0.110713  0  0.963271  0  0  0.117535  0  1.027359  0  0  0.12101  0  1.024137  0  0  0.122169  0.11496  0  1.029857  0
H  H12  1  0.41361643  0.32607364  0.16213942  1  0  0.101952  0  0.96619  0  0  0.108515  0  1.031455  0  0  0.111521  0  1.029365  0  0  0.121751  0.106287  0  1.033145  0
H  H13  1  0.08639289  0.17391649  0.66214625  1  0  0.101986  0  0.966087  0  0  0.108555  0  1.031333  0  0  0.111558  0  1.029247  0  0  0.121795  0.106319  0  1.03302  0
H  H14  1  0.58639281  0.67391622  0.83785545  1  0  0.101976  0  0.966068  0  0  0.10854  0  1.031332  0  0  0.111544  0  1.029244  0  0  0.121778  0.106307  0  1.033019  0
H  H15  1  0.91360993  0.82608437  0.33786286  1  0  0.101952  0  0.966142  0  0  0.10845  0  1.031483  0  0  0.11145  0  1.029401  0  0  0.12172  0.10622  0  1.033171  0
H  H16  1  0.74422810  0.85368572  0.09738492  1  0  0.111605  0  0.937531  0  0  0.11974  0  0.997085  0  0  0.122509  0  0.995402  0  0  0.124515  0.11765  0  0.998573  0
H  H17  1  0.75576146  0.64631291  0.59737764  1  0  0.111661  0  0.937597  0  0  0.119817  0  0.997078  0  0  0.122586  0  0.995391  0  0  0.124549  0.117725  0  0.998566  0
H  H18  1  0.25576335  0.14631515  0.90261832  1  0  0.111638  0  0.937552  0  0  0.11981  0  0.997054  0  0  0.122581  0  0.995367  0  0  0.12453  0.117719  0  0.998543  0
H  H19  1  0.24422448  0.35369163  0.40261556  1  0  0.111587  0  0.93754  0  0  0.119729  0  0.997107  0  0  0.122494  0  0.995427  0  0  0.124503  0.117637  0  0.998594  0
H  H20  1  0.01020774  0.28349891  0.94924954  1  0  0.104006  0  0.95761  0  0  0.107344  0  1.029485  0  0  0.110368  0  1.026811  0  0  0.123176  0.105026  0  1.031697  0
H  H21  1  0.48977228  0.21649536  0.44924811  1  0  0.103976  0  0.957546  0  0  0.107355  0  1.029379  0  0  0.110377  0  1.026707  0  0  0.123166  0.105033  0  1.031593  0
H  H22  1  0.98978155  0.71649220  0.05075371  1  0  0.103932  0  0.957605  0  0  0.107308  0  1.029445  0  0  0.110332  0  1.026772  0  0  0.12315  0.10499  0  1.031657  0
H  H23  1  0.51021158  0.78350553  0.55074676  1  0  0.103936  0  0.95762  0  0  0.107337  0  1.029428  0  0  0.11036  0  1.026755  0  0  0.123179  0.10502  0  1.031633  0
C  C24  1  0.61045040  0.45560279  0.92643098  1  0  0.090431  0  3.622235  0  0  0.062935  0  3.870886  0  0  0.066372  0  3.883383  0  0  0.051619  0.060235  0  3.863442  0
C  C25  1  0.88955141  0.04439193  0.42643681  1  0  0.090315  0  3.622418  0  0  0.062853  0  3.871095  0  0  0.066311  0  3.883562  0  0  0.051639  0.060147  0  3.863633  0
C  C26  1  0.38955505  0.54438708  0.07356891  1  0  0.090499  0  3.622484  0  0  0.062984  0  3.871213  0  0  0.066414  0  3.883724  0  0  0.051725  0.060272  0  3.863779  0
C  C27  1  0.11045114  0.95560770  0.57357062  1  0  0.090545  0  3.62244  0  0  0.063019  0  3.871099  0  0  0.066452  0  3.883608  0  0  0.051718  0.06032  0  3.863628  0
C  C28  1  0.45278725  0.40385969  0.08968576  1  0  0.081585  0  3.648498  0  0  0.05059  0  3.899955  0  0  0.05348  0  3.914279  0  0  0.049618  0.048376  0  3.891132  0
C  C29  1  0.04721510  0.09613340  0.58969033  1  0  0.081513  0  3.648068  0  0  0.050469  0  3.899667  0  0  0.053357  0  3.914  0  0  0.049539  0.048264  0  3.890809  0
C  C30  1  0.54721341  0.59613141  0.91031247  1  0  0.081498  0  3.648162  0  0  0.050439  0  3.899741  0  0  0.053328  0  3.914068  0  0  0.049506  0.048233  0  3.890901  0
C  C31  1  0.95278546  0.90386868  0.41031543  1  0  0.081531  0  3.648394  0  0  0.050551  0  3.899865  0  0  0.053439  0  3.914196  0  0  0.049582  0.048339  0  3.891017  0
C  C32  1  0.85823565  0.91872882  0.05325300  1  0  0.091246  0  3.613416  0  0  0.065236  0  3.854614  0  0  0.067392  0  3.870443  0  0  0.056062  0.063424  0  3.844953  0
C  C33  1  0.64175702  0.58127255  0.55324508  1  0  0.090903  0  3.613583  0  0  0.064969  0  3.85468  0  0  0.067128  0  3.87051  0  0  0.055941  0.063157  0  3.845004  0
C  C34  1  0.14175958  0.08127204  0.94675192  1  0  0.091181  0  3.613494  0  0  0.065105  0  3.854722  0  0  0.067273  0  3.870525  0  0  0.056016  0.063293  0  3.845056  0
C  C35  1  0.35823298  0.41873321  0.44674561  1  0  0.091151  0  3.613327  0  0  0.065074  0  3.854571  0  0  0.067232  0  3.870405  0  0  0.055986  0.063264  0  3.84489  0
C  C36  1  0.00564766  0.15673361  0.97133283  1  0  0.086146  0  3.642613  0  0  0.055953  0  3.898017  0  0  0.057969  0  3.914286  0  0  0.056143  0.05437  0  3.887889  0
C  C37  1  0.49434407  0.34326780  0.47133014  1  0  0.086349  0  3.642346  0  0  0.056167  0  3.897746  0  0  0.058183  0  3.914015  0  0  0.056257  0.054585  0  3.887595  0
C  C38  1  0.99435182  0.84326359  0.02866874  1  0  0.086215  0  3.642375  0  0  0.055978  0  3.897798  0  0  0.057995  0  3.914064  0  0  0.056138  0.054391  0  3.887669  0
C  C39  1  0.50564746  0.65673917  0.52866222  1  0  0.086399  0  3.642382  0  0  0.056096  0  3.897778  0  0  0.058115  0  3.914047  0  0  0.056168  0.054514  0  3.887628  0
N  N40  1  0.56434370  0.35808370  0.01641752  1  0  -0.277035  0  3.402215  0  0  -0.211362  0  3.715737  0  0  -0.214548  0  3.72124  0  0  -0.360188  -0.210048  0  3.712165  0
N  N41  1  0.93565306  0.14191756  0.51642200  1  0  -0.276953  0  3.401951  0  0  -0.21131  0  3.715518  0  0  -0.214502  0  3.721025  0  0  -0.360199  -0.209993  0  3.711903  0
N  N42  1  0.43565326  0.64191351  0.98358322  1  0  -0.277112  0  3.40221  0  0  -0.211415  0  3.715774  0  0  -0.214599  0  3.721271  0  0  -0.36023  -0.210101  0  3.712203  0
N  N43  1  0.06434280  0.85809185  0.48358292  1  0  -0.277119  0  3.402296  0  0  -0.211397  0  3.715778  0  0  -0.214588  0  3.721286  0  0  -0.360235  -0.210081  0  3.712166  0
N  N44  1  0.86249904  0.07537638  0.02447129  1  0  -0.263199  0  3.381641  0  0  -0.194897  0  3.683818  0  0  -0.199079  0  3.690587  0  0  -0.352094  -0.193143  0  3.67981  0
N  N45  1  0.63749889  0.42461872  0.52446724  1  0  -0.263197  0  3.381679  0  0  -0.19495  0  3.683872  0  0  -0.199141  0  3.69065  0  0  -0.352091  -0.193194  0  3.679824  0
N  N46  1  0.13750749  0.92461837  0.97553028  1  0  -0.26322  0  3.381497  0  0  -0.194868  0  3.683634  0  0  -0.199054  0  3.690414  0  0  -0.352013  -0.193106  0  3.679613  0
N  N47  1  0.36249761  0.57538214  0.47552512  1  0  -0.263279  0  3.381496  0  0  -0.194888  0  3.683646  0  0  -0.199083  0  3.690428  0  0  -0.352025  -0.19313  0  3.679594  0
O  O48  1  0.78477690  0.22286859  0.75102537  1  0  -0.701153  0  1.609311  0  0  -0.712418  0  1.921295  0  0  -0.734266  0  1.909486  0  0  -0.464173  -0.697725  0  1.929419  0
O  O49  1  0.71523312  0.27714077  0.25102620  1  0  -0.701201  0  1.60932  0  0  -0.712424  0  1.92127  0  0  -0.734272  0  1.909465  0  0  -0.464193  -0.697735  0  1.929404  0
O  O50  1  0.21523006  0.77713958  0.24897369  1  0  -0.70117  0  1.609355  0  0  -0.712369  0  1.9213  0  0  -0.734212  0  1.909481  0  0  -0.4642  -0.697682  0  1.929434  0
O  O51  1  0.28478637  0.72287836  0.74897118  1  0  -0.701043  0  1.609027  0  0  -0.712299  0  1.921016  0  0  -0.734144  0  1.909205  0  0  -0.464127  -0.697609  0  1.929146  0
O  O52  1  0.51303070  0.01962389  0.87607046  1  0  -0.740675  0  1.803551  0  0  -0.718474  0  2.148644  0  0  -0.736158  0  2.126226  0  0  -0.499859  -0.707587  0  2.164062  0
O  O53  1  0.98696765  0.48037241  0.37606731  1  0  -0.74077  0  1.803595  0  0  -0.718573  0  2.148755  0  0  -0.73623  0  2.126264  0  0  -0.499855  -0.707676  0  2.164138  0
O  O54  1  0.48696319  0.98037088  0.12393111  1  0  -0.740711  0  1.803672  0  0  -0.718482  0  2.148759  0  0  -0.736162  0  2.126331  0  0  -0.499838  -0.707592  0  2.164174  0
O  O55  1  0.01302966  0.51963211  0.62392672  1  0  -0.740683  0  1.803433  0  0  -0.718428  0  2.14847  0  0  -0.736114  0  2.126055  0  0  -0.499797  -0.707537  0  2.163858  0
O  O56  1  0.49111077  0.04871879  0.63367321  1  0  -0.64606  0  1.533328  0  0  -0.641119  0  1.798728  0  0  -0.663616  0  1.78862  0  0  -0.455913  -0.625556  0  1.805527  0
O  O57  1  0.00889296  0.45128619  0.13367678  1  0  -0.646094  0  1.533376  0  0  -0.641134  0  1.798749  0  0  -0.663632  0  1.788645  0  0  -0.455935  -0.625572  0  1.80555  0
O  O58  1  0.50889529  0.95127962  0.36632166  1  0  -0.646019  0  1.533425  0  0  -0.641106  0  1.798835  0  0  -0.663605  0  1.788729  0  0  -0.455879  -0.625541  0  1.805633  0
O  O59  1  0.99110478  0.54873176  0.86632395  1  0  -0.646109  0  1.533316  0  0  -0.641118  0  1.798711  0  0  -0.663613  0  1.788603  0  0  -0.455894  -0.625557  0  1.805512  0
O  O60  1  0.73323764  0.87661903  0.72911453  1  0  -0.664436  0  1.496758  0  0  -0.660183  0  1.745319  0  0  -0.68474  0  1.738832  0  0  -0.470114  -0.643018  0  1.74963  0
O  O61  1  0.76677298  0.62337743  0.22910919  1  0  -0.664523  0  1.496932  0  0  -0.66024  0  1.745472  0  0  -0.684795  0  1.738981  0  0  -0.470166  -0.643076  0  1.749783  0
O  O62  1  0.26677286  0.12337083  0.27089290  1  0  -0.664456  0  1.49696  0  0  -0.660196  0  1.745507  0  0  -0.684754  0  1.739022  0  0  -0.470142  -0.643031  0  1.74982  0
O  O63  1  0.23323615  0.37662342  0.77088652  1  0  -0.664481  0  1.496772  0  0  -0.660208  0  1.745329  0  0  -0.684763  0  1.738842  0  0  -0.470116  -0.643041  0  1.74964  0
