# generated using pymatgen
data_V2PH13C15N3O8
_symmetry_space_group_name_H-M   'P 1'
_cell_length_a   7.88883519
_cell_length_b   9.91326373
_cell_length_c   11.94288691
_cell_angle_alpha   111.79124429
_cell_angle_beta   95.48055488
_cell_angle_gamma   97.02701869
_symmetry_Int_Tables_number   1
_chemical_formula_structural   V2PH13C15N3O8
_chemical_formula_sum   'V4 P2 H26 C30 N6 O16'
_cell_volume   850.60562200
_cell_formula_units_Z   2
loop_
 _symmetry_equiv_pos_site_id
 _symmetry_equiv_pos_as_xyz
  1  'x, y, z'
loop_
 _atom_site_type_symbol
 _atom_site_label
 _atom_site_symmetry_multiplicity
 _atom_site_fract_x
 _atom_site_fract_y
 _atom_site_fract_z
 _atom_site_occupancy
 _atom_site_hle17_bader_spin_density
 _atom_site_hle17_ddec_charge
 _atom_site_hle17_ddec_spin_density
 _atom_site_hle17_ddec_sum_bond_order
 _atom_site_hle17_magmom
 _atom_site_hse06_10hf_bader_spin_density
 _atom_site_hse06_10hf_ddec_charge
 _atom_site_hse06_10hf_ddec_spin_density
 _atom_site_hse06_10hf_ddec_sum_bond_order
 _atom_site_hse06_10hf_magmom
 _atom_site_hse06_bader_spin_density
 _atom_site_hse06_ddec_charge
 _atom_site_hse06_ddec_spin_density
 _atom_site_hse06_ddec_sum_bond_order
 _atom_site_hse06_magmom
 _atom_site_pbe_bader_spin_density
 _atom_site_pbe_cm5_charge
 _atom_site_pbe_ddec_charge
 _atom_site_pbe_ddec_spin_density
 _atom_site_pbe_ddec_sum_bond_order
 _atom_site_pbe_magmom
V  V0  1  0.50159933  0.23169587  0.69016992  1  0  1.914401  0  2.935074  0  0  1.946382  0  3.341684  0  0  2.031982  0  3.325769  0  0  1.48446  1.886458  0  3.356409  0
V  V1  1  0.49840042  0.76829754  0.30983365  1  0  1.914275  0  2.935308  0  0  1.946283  0  3.341916  0  0  2.031884  0  3.326002  0  0  1.48447  1.886298  0  3.356736  0
V  V2  1  0.07323295  0.16306459  0.37757136  1  0  1.914734  0  2.940984  0  0  1.948478  0  3.346005  0  0  2.033205  0  3.332181  0  0  1.488632  1.888437  0  3.360744  0
V  V3  1  0.92677290  0.83693449  0.62243108  1  0  1.914635  0  2.941012  0  0  1.948349  0  3.346069  0  0  2.033082  0  3.332236  0  0  1.488553  1.888334  0  3.360742  0
P  P4  1  0.76395153  0.05847279  0.51120071  1  0  1.867218  0  4.801039  0  0  1.712233  0  5.311295  0  0  1.785483  0  5.235187  0  0  0.437832  1.661227  0  5.361741  0
P  P5  1  0.23605286  0.94152521  0.48879962  1  0  1.867224  0  4.800977  0  0  1.712242  0  5.311235  0  0  1.785496  0  5.235127  0  0  0.437865  1.661236  0  5.361676  0
H  H6  1  0.09122668  0.19169900  0.71052980  1  0  0.101711  0  0.950418  0  0  0.104602  0  1.019711  0  0  0.107986  0  1.015602  0  0  0.125646  0.101919  0  1.022931  0
H  H7  1  0.90877657  0.80829246  0.28946500  1  0  0.101712  0  0.950506  0  0  0.104571  0  1.019837  0  0  0.107954  0  1.015727  0  0  0.125601  0.10189  0  1.02306  0
H  H8  1  0.53703491  0.35569334  0.96232135  1  0  0.077364  0  0.992421  0  0  0.086816  0  1.057212  0  0  0.089554  0  1.054987  0  0  0.113823  0.085003  0  1.058467  0
H  H9  1  0.46296258  0.64430890  0.03768158  1  0  0.077383  0  0.992411  0  0  0.086808  0  1.057215  0  0  0.089547  0  1.054987  0  0  0.11382  0.084993  0  1.058471  0
H  H10  1  0.90450957  0.25661221  0.87004308  1  0  0.138826  0  0.977602  0  0  0.150731  0  1.033019  0  0  0.155581  0  1.030027  0  0  0.110026  0.147248  0  1.03527  0
H  H11  1  0.09548897  0.74338141  0.12995044  1  0  0.138716  0  0.977724  0  0  0.150705  0  1.033025  0  0  0.155559  0  1.030027  0  0  0.110025  0.14722  0  1.035277  0
H  H12  1  0.76838732  0.28604889  0.01602758  1  0  0.124467  0  0.962195  0  0  0.133249  0  1.023551  0  0  0.137014  0  1.021992  0  0  0.113835  0.130614  0  1.024645  0
H  H13  1  0.23159836  0.71395118  0.98396385  1  0  0.124475  0  0.962299  0  0  0.133258  0  1.023626  0  0  0.137019  0  1.022077  0  0  0.113891  0.130639  0  1.024698  0
H  H14  1  0.61423660  0.37714265  0.19867537  1  0  0.098693  0  0.943397  0  0  0.110161  0  1.000272  0  0  0.112416  0  0.998611  0  0  0.131394  0.108573  0  1.001414  0
H  H15  1  0.38575073  0.62285963  0.80131770  1  0  0.098738  0  0.943429  0  0  0.110257  0  1.000244  0  0  0.112513  0  0.998585  0  0  0.131433  0.108661  0  1.001396  0
H  H16  1  0.24718818  0.50982127  0.26402377  1  0  0.129639  0  0.987553  0  0  0.137187  0  1.047592  0  0  0.141611  0  1.044951  0  0  0.117546  0.13416  0  1.049374  0
H  H17  1  0.75280013  0.49017216  0.73596987  1  0  0.129621  0  0.987739  0  0  0.137136  0  1.047785  0  0  0.141562  0  1.045145  0  0  0.117512  0.134104  0  1.049565  0
H  H18  1  0.46646785  0.14500660  0.35910312  1  0  0.102388  0  0.931783  0  0  0.108503  0  0.994777  0  0  0.11171  0  0.990992  0  0  0.130104  0.106035  0  0.997525  0
H  H19  1  0.53354073  0.85499357  0.64090236  1  0  0.102346  0  0.931777  0  0  0.108411  0  0.994868  0  0  0.111617  0  0.991082  0  0  0.130055  0.105944  0  0.997621  0
H  H20  1  0.04424443  0.09290712  0.10536313  1  0  0.078851  0  0.989665  0  0  0.088899  0  1.054104  0  0  0.091623  0  1.051531  0  0  0.114039  0.08705  0  1.055682  0
H  H21  1  0.95577281  0.90711312  0.89464350  1  0  0.078894  0  0.989664  0  0  0.08886  0  1.054201  0  0  0.091573  0  1.051631  0  0  0.114057  0.087014  0  1.055773  0
H  H22  1  0.65387234  0.06785376  0.20206594  1  0  0.134132  0  0.977139  0  0  0.146513  0  1.032276  0  0  0.151028  0  1.029531  0  0  0.11073  0.143334  0  1.034314  0
H  H23  1  0.34613527  0.93214088  0.79793853  1  0  0.134181  0  0.97713  0  0  0.146559  0  1.032217  0  0  0.151072  0  1.029473  0  0  0.110751  0.143379  0  1.034251  0
H  H24  1  0.37396474  0.43537262  0.13635911  1  0  0.112315  0  0.99551  0  0  0.122001  0  1.057862  0  0  0.126302  0  1.054784  0  0  0.109367  0.119038  0  1.059902  0
H  H25  1  0.62602639  0.56462958  0.86364005  1  0  0.112374  0  0.995467  0  0  0.121986  0  1.057913  0  0  0.126286  0  1.054837  0  0  0.109409  0.119026  0  1.059947  0
H  H26  1  0.21085068  0.00642122  0.93193382  1  0  0.118073  0  0.978184  0  0  0.128805  0  1.037692  0  0  0.132784  0  1.035493  0  0  0.108036  0.125959  0  1.039376  0
H  H27  1  0.78916607  0.99360341  0.06807418  1  0  0.117947  0  0.978132  0  0  0.128689  0  1.03766  0  0  0.13267  0  1.035458  0  0  0.107984  0.12584  0  1.039349  0
H  H28  1  0.07212317  0.58997713  0.43067432  1  0  0.117285  0  0.92439  0  0  0.125219  0  0.980334  0  0  0.128495  0  0.976775  0  0  0.14221  0.12277  0  0.98293  0
H  H29  1  0.92786445  0.41001955  0.56932116  1  0  0.117518  0  0.924386  0  0  0.125352  0  0.980457  0  0  0.128628  0  0.976905  0  0  0.142307  0.122902  0  0.983049  0
H  H30  1  0.77752029  0.53226019  0.39060253  1  0  0.336093  0  0.85534  0  0  0.320101  0  0.908903  0  0  0.330052  0  0.900028  0  0  0.327294  0.312917  0  0.915556  0
H  H31  1  0.22246608  0.46773659  0.60938788  1  0  0.335982  0  0.855416  0  0  0.320051  0  0.908903  0  0  0.330005  0  0.900023  0  0  0.327239  0.312862  0  0.915556  0
C  C32  1  0.14837856  0.24436430  0.80633430  1  0  0.15203  0  3.650618  0  0  0.121908  0  3.917395  0  0  0.130824  0  3.933391  0  0  0.055435  0.115615  0  3.907249  0
C  C33  1  0.85162162  0.75563144  0.19366419  1  0  0.151959  0  3.650689  0  0  0.121865  0  3.917473  0  0  0.130785  0  3.933464  0  0  0.055451  0.115565  0  3.90734  0
C  C34  1  0.39657258  0.33701915  0.94801224  1  0  0.114673  0  3.739676  0  0  0.089433  0  3.993325  0  0  0.096638  0  4.012131  0  0  0.03979  0.084524  0  3.980439  0
C  C35  1  0.60342473  0.66298200  0.05198949  1  0  0.114659  0  3.739911  0  0  0.089458  0  3.993555  0  0  0.096662  0  4.012363  0  0  0.039807  0.084547  0  3.980666  0
C  C36  1  0.04453866  0.28071797  0.89781424  1  0  -0.151996  0  3.633582  0  0  -0.171238  0  3.877203  0  0  -0.178858  0  3.896839  0  0  -0.076389  -0.166211  0  3.864308  0
C  C37  1  0.95545880  0.71927673  0.10217955  1  0  -0.151809  0  3.633753  0  0  -0.171099  0  3.877294  0  0  -0.17872  0  3.896929  0  0  -0.076338  -0.166075  0  3.864409  0
C  C38  1  0.12212194  0.35032623  0.02053760  1  0  0.082634  0  3.745732  0  0  0.096647  0  3.973731  0  0  0.099413  0  3.995514  0  0  0.011291  0.095044  0  3.958497  0
C  C39  1  0.87787205  0.64967054  0.97945916  1  0  0.082535  0  3.745774  0  0  0.096597  0  3.97371  0  0  0.099363  0  3.995501  0  0  0.011263  0.094997  0  3.958474  0
C  C40  1  0.30332870  0.37907561  0.04406512  1  0  -0.149262  0  3.705083  0  0  -0.168889  0  3.95037  0  0  -0.175623  0  3.969769  0  0  -0.079091  -0.164286  0  3.936471  0
C  C41  1  0.69666204  0.62092439  0.95593330  1  0  -0.149201  0  3.705105  0  0  -0.168794  0  3.950375  0  0  -0.175526  0  3.969776  0  0  -0.079085  -0.164191  0  3.936471  0
C  C42  1  0.02220550  0.39306396  0.12318688  1  0  0.118496  0  3.706295  0  0  0.127258  0  3.937654  0  0  0.133371  0  3.95787  0  0  0.030838  0.123355  0  3.924048  0
C  C43  1  0.97778155  0.60692948  0.87680501  1  0  0.118694  0  3.70635  0  0  0.127397  0  3.93767  0  0  0.133496  0  3.957906  0  0  0.030947  0.12349  0  3.924062  0
C  C44  1  0.84103741  0.35321674  0.10604572  1  0  -0.150356  0  3.652573  0  0  -0.170692  0  3.908468  0  0  -0.179273  0  3.928442  0  0  -0.070136  -0.16543  0  3.895335  0
C  C45  1  0.15895187  0.64678218  0.89395059  1  0  -0.150605  0  3.652551  0  0  -0.170913  0  3.90849  0  0  -0.179489  0  3.92847  0  0  -0.070354  -0.16566  0  3.895364  0
C  C46  1  0.75339261  0.40092664  0.20451496  1  0  0.16882  0  3.603692  0  0  0.127208  0  3.857334  0  0  0.136764  0  3.872082  0  0  0.072061  0.120847  0  3.847797  0
C  C47  1  0.24659484  0.59906907  0.79547518  1  0  0.168784  0  3.603957  0  0  0.1271  0  3.857649  0  0  0.136651  0  3.8724  0  0  0.07203  0.120741  0  3.848101  0
C  C48  1  0.01399390  0.52102417  0.33765304  1  0  0.19239  0  3.578165  0  0  0.151259  0  3.831288  0  0  0.162852  0  3.842241  0  0  0.08886  0.143704  0  3.824107  0
C  C49  1  0.98599278  0.47896714  0.66233479  1  0  0.192315  0  3.577728  0  0  0.151118  0  3.831021  0  0  0.162704  0  3.841972  0  0  0.088818  0.143567  0  3.823837  0
C  C50  1  0.10760376  0.47585085  0.24240441  1  0  -0.125314  0  3.624009  0  0  -0.145014  0  3.870922  0  0  -0.153384  0  3.888787  0  0  -0.056614  -0.139886  0  3.859173  0
C  C51  1  0.89238255  0.52414573  0.75759431  1  0  -0.125371  0  3.624087  0  0  -0.144908  0  3.870882  0  0  -0.153274  0  3.888754  0  0  -0.05661  -0.139784  0  3.859136  0
C  C52  1  0.41489513  0.11453704  0.26334857  1  0  0.15855  0  3.654052  0  0  0.129269  0  3.91399  0  0  0.139044  0  3.927933  0  0  0.061389  0.123213  0  3.903772  0
C  C53  1  0.58511385  0.88546534  0.73665764  1  0  0.158634  0  3.654043  0  0  0.129275  0  3.914038  0  0  0.139049  0  3.927985  0  0  0.061356  0.123217  0  3.903821  0
C  C54  1  0.17941788  0.08283038  0.12023490  1  0  0.1231  0  3.730011  0  0  0.096613  0  3.982452  0  0  0.104838  0  4.000615  0  0  0.041909  0.091411  0  3.969552  0
C  C55  1  0.82059415  0.91718200  0.87977222  1  0  0.122965  0  3.730263  0  0  0.096485  0  3.982735  0  0  0.104718  0  4.000892  0  0  0.041863  0.091287  0  3.969824  0
C  C56  1  0.51882071  0.06898025  0.17321738  1  0  -0.152956  0  3.651623  0  0  -0.174226  0  3.90008  0  0  -0.181196  0  3.917676  0  0  -0.0761  -0.16973  0  3.887853  0
C  C57  1  0.48119022  0.93101883  0.82678957  1  0  -0.152934  0  3.651713  0  0  -0.174143  0  3.900061  0  0  -0.181115  0  3.917665  0  0  -0.075955  -0.169641  0  3.887818  0
C  C58  1  0.27391767  0.03561009  0.02498661  1  0  -0.167547  0  3.717109  0  0  -0.183858  0  3.960798  0  0  -0.191656  0  3.981457  0  0  -0.085569  -0.17885  0  3.946508  0
C  C59  1  0.72609948  0.96440241  0.97501919  1  0  -0.167246  0  3.716852  0  0  -0.183581  0  3.960455  0  0  -0.191377  0  3.981111  0  0  -0.085491  -0.17857  0  3.946171  0
C  C60  1  0.44834917  0.02610408  0.04992247  1  0  0.091053  0  3.748835  0  0  0.103795  0  3.977659  0  0  0.107752  0  3.998832  0  0  0.010548  0.101575  0  3.962728  0
C  C61  1  0.55166150  0.97390058  0.95008207  1  0  0.090826  0  3.748905  0  0  0.103709  0  3.977541  0  0  0.107663  0  3.998718  0  0  0.010464  0.101487  0  3.962617  0
N  N62  1  0.32212124  0.27147919  0.83059086  1  0  -0.343523  0  3.272471  0  0  -0.300897  0  3.547127  0  0  -0.322904  0  3.574393  0  0  -0.348901  -0.285843  0  3.528596  0
N  N63  1  0.67787856  0.72851437  0.16940607  1  0  -0.343537  0  3.272613  0  0  -0.300937  0  3.547265  0  0  -0.322944  0  3.574528  0  0  -0.348948  -0.285874  0  3.52874  0
N  N64  1  0.84086377  0.48517461  0.31662291  1  0  -0.204032  0  3.435526  0  0  -0.130371  0  3.651526  0  0  -0.145701  0  3.664378  0  0  -0.329913  -0.120389  0  3.64325  0
N  N65  1  0.15912315  0.51482534  0.68337442  1  0  -0.203978  0  3.435788  0  0  -0.130318  0  3.651848  0  0  -0.145646  0  3.664706  0  0  -0.329889  -0.120335  0  3.64356  0
N  N66  1  0.24680188  0.12031132  0.23745699  1  0  -0.337422  0  3.275355  0  0  -0.291354  0  3.543916  0  0  -0.313154  0  3.569531  0  0  -0.354071  -0.276423  0  3.525934  0
N  N67  1  0.75320858  0.87969222  0.76254802  1  0  -0.33751  0  3.275349  0  0  -0.291338  0  3.543819  0  0  -0.313137  0  3.569431  0  0  -0.35412  -0.276408  0  3.525835  0
O  O68  1  0.62800621  0.15905460  0.55471291  1  0  -0.90095  0  1.947246  0  0  -0.850205  0  2.215918  0  0  -0.885886  0  2.196172  0  0  -0.423867  -0.824403  0  2.228569  0
O  O69  1  0.37199965  0.84094448  0.44528953  1  0  -0.9009  0  1.947295  0  0  -0.850126  0  2.215924  0  0  -0.885807  0  2.196174  0  0  -0.423877  -0.82431  0  2.228582  0
O  O70  1  0.92730095  0.15093297  0.49684621  1  0  -0.915597  0  1.98046  0  0  -0.866129  0  2.257412  0  0  -0.901862  0  2.238119  0  0  -0.426238  -0.840019  0  2.269585  0
O  O71  1  0.07270364  0.84906615  0.50315365  1  0  -0.91557  0  1.980359  0  0  -0.866142  0  2.257358  0  0  -0.901879  0  2.238064  0  0  -0.426252  -0.84003  0  2.269524  0
O  O72  1  0.81809534  0.99614170  0.60746138  1  0  -0.931226  0  2.024594  0  0  -0.889464  0  2.319077  0  0  -0.923086  0  2.29842  0  0  -0.426204  -0.865074  0  2.332403  0
O  O73  1  0.18190798  0.00385740  0.39253840  1  0  -0.931261  0  2.024569  0  0  -0.889515  0  2.319064  0  0  -0.923133  0  2.298399  0  0  -0.426224  -0.865118  0  2.332397  0
O  O74  1  0.68562489  0.93416802  0.38689101  1  0  -0.938567  0  2.024848  0  0  -0.899515  0  2.327659  0  0  -0.93315  0  2.306202  0  0  -0.42744  -0.875204  0  2.341436  0
O  O75  1  0.31437715  0.06583104  0.61310950  1  0  -0.938563  0  2.024812  0  0  -0.899508  0  2.327622  0  0  -0.933131  0  2.306131  0  0  -0.42743  -0.875212  0  2.341393  0
O  O76  1  0.65152650  0.25046263  0.80242272  1  0  -0.76886  0  1.367852  0  0  -0.784966  0  1.639292  0  0  -0.815878  0  1.636457  0  0  -0.597293  -0.763954  0  1.640918  0
O  O77  1  0.34847362  0.74953293  0.19758325  1  0  -0.768744  0  1.367916  0  0  -0.784899  0  1.639361  0  0  -0.815811  0  1.636523  0  0  -0.597266  -0.763875  0  1.641017  0
O  O78  1  0.48366741  0.39410101  0.68826375  1  0  -0.76948  0  1.324018  0  0  -0.785529  0  1.578441  0  0  -0.814831  0  1.571574  0  0  -0.599855  -0.765674  0  1.583373  0
O  O79  1  0.51632742  0.60589339  0.31174067  1  0  -0.769442  0  1.324062  0  0  -0.785516  0  1.578477  0  0  -0.814819  0  1.57161  0  0  -0.59989  -0.765652  0  1.583434  0
O  O80  1  0.17068423  0.33501236  0.44885935  1  0  -0.783756  0  1.334971  0  0  -0.802826  0  1.593153  0  0  -0.833256  0  1.587102  0  0  -0.59795  -0.781527  0  1.597717  0
O  O81  1  0.82932181  0.66498781  0.55114429  1  0  -0.783712  0  1.334962  0  0  -0.802759  0  1.593142  0  0  -0.833193  0  1.587093  0  0  -0.597919  -0.781467  0  1.5977  0
O  O82  1  0.92167341  0.14771096  0.26749158  1  0  -0.777069  0  1.372777  0  0  -0.798091  0  1.644977  0  0  -0.828634  0  1.642862  0  0  -0.601411  -0.777088  0  1.647163  0
O  O83  1  0.07833560  0.85229153  0.73250965  1  0  -0.777036  0  1.372783  0  0  -0.79803  0  1.644928  0  0  -0.828552  0  1.642781  0  0  -0.601376  -0.777076  0  1.647212  0
