# generated using pymatgen
data_CuH24C24(NO)4
_symmetry_space_group_name_H-M   'P 1'
_cell_length_a   5.70482634
_cell_length_b   8.98446021
_cell_length_c   11.02007814
_cell_angle_alpha   91.97200327
_cell_angle_beta   106.43294198
_cell_angle_gamma   105.56298003
_symmetry_Int_Tables_number   1
_chemical_formula_structural   CuH24C24(NO)4
_chemical_formula_sum   'Cu1 H24 C24 N4 O4'
_cell_volume   518.16358090
_cell_formula_units_Z   1
loop_
 _symmetry_equiv_pos_site_id
 _symmetry_equiv_pos_as_xyz
  1  'x, y, z'
loop_
 _atom_site_type_symbol
 _atom_site_label
 _atom_site_symmetry_multiplicity
 _atom_site_fract_x
 _atom_site_fract_y
 _atom_site_fract_z
 _atom_site_occupancy
 _atom_site_hle17_ddec_charge
 _atom_site_hle17_ddec_spin_density
 _atom_site_hle17_ddec_sum_bond_order
 _atom_site_hle17_magmom
 _atom_site_hse06_10hf_ddec_charge
 _atom_site_hse06_10hf_ddec_spin_density
 _atom_site_hse06_10hf_ddec_sum_bond_order
 _atom_site_hse06_10hf_magmom
 _atom_site_hse06_ddec_charge
 _atom_site_hse06_ddec_spin_density
 _atom_site_hse06_ddec_sum_bond_order
 _atom_site_hse06_magmom
 _atom_site_pbe_cm5_charge
 _atom_site_pbe_ddec_charge
 _atom_site_pbe_ddec_spin_density
 _atom_site_pbe_ddec_sum_bond_order
 _atom_site_pbe_magmom
Cu  Cu0  1  0.50001824  0.50000224  0.50000908  1  0.822754  -0.672263  1.759131  -0.488  0.792409  -0.757231  2.143619  -0.599  0.883513  -0.822534  2.076228  -0.68  0.723858  0.736019  -0.711559  2.192154  -0.546
H  H1  1  0.05401502  0.40373876  0.59943158  1  0.09132  -0.000429  0.961252  -0.002  0.097007  -0.000404  1.030118  -0.001  0.099441  -0.000226  1.028297  -0.001  0.118049  0.095132  -0.000559  1.031265  -0.001
H  H2  1  0.94598487  0.59625895  0.40056672  1  0.091285  -0.000444  0.961178  -0.002  0.096976  -0.000404  1.030055  -0.001  0.09941  -0.000228  1.028228  -0.001  0.118018  0.0951  -0.00056  1.0312  -0.001
H  H3  1  0.63961622  0.20208620  0.54316225  1  0.105729  -0.000223  0.977097  -0.001  0.109338  -0.000197  1.049677  -0.001  0.112203  -5.8e-05  1.048533  0.0  0.105641  0.106862  -0.000348  1.051268  -0.001
H  H4  1  0.36038785  0.79793472  0.45682537  1  0.105842  -0.000225  0.976992  -0.001  0.109438  -0.000197  1.049589  -0.001  0.112303  -5.8e-05  1.048447  0.0  0.105655  0.106953  -0.000348  1.051191  -0.001
H  H5  1  0.52664333  0.99407603  0.35569811  1  0.105468  -0.000343  0.934828  -0.001  0.118716  -6.1e-05  0.991353  0.0  0.121527  -3e-06  0.989124  0.0  0.111659  0.116702  -0.000137  0.99295  0.0
H  H6  1  0.47337099  0.00593295  0.64428162  1  0.1055  -0.000344  0.93471  -0.001  0.118692  -6e-05  0.99128  0.0  0.121477  -3e-06  0.989084  0.0  0.111608  0.116676  -0.000137  0.992877  0.0
H  H7  1  0.26413322  0.21144426  0.31281149  1  0.097239  -0.000634  0.966496  -0.002  0.100425  -0.00059  1.038157  -0.001  0.103723  -0.00038  1.034907  -0.001  0.1186  0.097779  -0.000738  1.040758  -0.002
H  H8  1  0.73589419  0.78855681  0.68720348  1  0.097213  -0.000623  0.966492  -0.002  0.100422  -0.00059  1.038125  -0.001  0.103725  -0.000379  1.034868  -0.001  0.118587  0.097773  -0.000738  1.040722  -0.002
H  H9  1  0.87717886  0.85374705  0.26081650  1  0.078137  -0.000194  0.922819  0.0  0.099188  -6.7e-05  0.97863  0.0  0.098132  -8.4e-05  0.980854  0.0  0.110122  0.099957  -6.7e-05  0.976925  0.0
H  H10  1  0.12288602  0.14627801  0.73919253  1  0.078138  -0.000188  0.922929  0.0  0.099198  -6.7e-05  0.978738  0.0  0.098141  -8.4e-05  0.980964  0.0  0.110147  0.099968  -6.7e-05  0.977033  0.0
H  H11  1  0.62642327  0.91978443  0.16784464  1  0.056893  -0.000455  0.927016  -0.001  0.072004  -0.000205  0.996307  0.0  0.073074  -0.000138  0.994877  0.0  0.096594  0.071099  -0.00031  0.997781  0.0
H  H12  1  0.37361068  0.08021885  0.83216768  1  0.056901  -0.000455  0.92701  -0.001  0.072017  -0.000205  0.996316  0.0  0.07309  -0.000138  0.994881  0.0  0.096613  0.071119  -0.00031  0.997782  0.0
H  H13  1  0.95529813  0.22161087  0.11428535  1  0.057923  4.3e-05  0.946426  0.0  0.077531  3e-05  1.007016  0.0  0.076706  2.8e-05  1.00901  0.0  0.100856  0.078024  3.1e-05  1.005786  0.0
H  H14  1  0.04477068  0.77840809  0.88570776  1  0.057757  4.9e-05  0.946782  0.0  0.077354  3.1e-05  1.007382  0.0  0.076531  2.7e-05  1.009372  0.0  0.100805  0.077844  3.1e-05  1.006162  0.0
H  H15  1  0.70316623  0.07804178  0.00103543  1  0.037474  -4.7e-05  0.941269  0.0  0.050492  -1.9e-05  1.01772  0.0  0.052211  -8e-06  1.015269  0.0  0.086072  0.04871  -4.1e-05  1.020828  0.0
H  H16  1  0.29685159  0.92198391  0.99897421  1  0.037337  -4.7e-05  0.941339  0.0  0.050374  -1.9e-05  1.017773  0.0  0.052087  -9e-06  1.015329  0.0  0.086077  0.048595  -4.1e-05  1.020879  0.0
H  H17  1  0.73540386  0.80364444  0.99209782  1  0.04387  -1.1e-05  0.951389  0.0  0.059571  4e-06  1.021412  0.0  0.059656  8e-06  1.0227  0.0  0.088052  0.05953  -1.8e-05  1.020871  0.0
H  H18  1  0.26459807  0.19637634  0.00787678  1  0.043866  -1.1e-05  0.951429  0.0  0.059661  4e-06  1.021397  0.0  0.059744  7e-06  1.022686  0.0  0.088038  0.05962  -1.8e-05  1.020857  0.0
H  H19  1  0.00224118  0.76671697  0.10406470  1  0.070981  -9e-06  0.945144  0.0  0.088164  3e-06  1.009105  0.0  0.088762  0.0  1.008824  0.0  0.101708  0.087527  -7e-06  1.009805  0.0
H  H20  1  0.99773831  0.23327723  0.89591156  1  0.070896  -9e-06  0.945156  0.0  0.088179  3e-06  1.00906  0.0  0.088778  0.0  1.008778  0.0  0.101745  0.087546  -7e-06  1.009767  0.0
H  H21  1  0.23127085  0.58837458  0.81328467  1  0.101997  -0.000498  0.949206  0.0  0.111215  -0.00045  1.010804  0.0  0.114364  -0.000309  1.009357  0.0  0.101859  0.108744  -0.000408  1.01243  0.0
H  H22  1  0.76863607  0.41157631  0.18670483  1  0.102063  -0.000496  0.949315  0.0  0.11124  -0.00045  1.010934  0.0  0.114388  -0.000309  1.009488  0.0  0.101903  0.108745  -0.000408  1.012592  0.0
H  H23  1  0.82436282  0.37811565  0.97045352  1  0.092381  -2.8e-05  0.989783  0.0  0.101172  -2.4e-05  1.05637  0.0  0.103661  -1.3e-05  1.055839  0.0  0.101601  0.09883  6e-06  1.057973  0.0
H  H24  1  0.17554217  0.62184228  0.02953586  1  0.092204  -2.7e-05  0.989683  0.0  0.101122  -2.5e-05  1.056158  0.0  0.103609  -1.3e-05  1.055628  0.0  0.101585  0.098778  6e-06  1.057766  0.0
C  C25  1  0.00314382  0.31202297  0.52142813  1  0.117399  0.010835  3.684384  0.007  0.085258  0.002655  3.943939  0.001  0.093348  0.004406  3.963685  0.003  0.042171  0.07993  0.001273  3.930537  0.0
C  C26  1  0.99688244  0.68797577  0.47858754  1  0.11756  0.010895  3.684364  0.007  0.085366  0.002658  3.943873  0.001  0.093458  0.004404  3.963621  0.003  0.042305  0.080038  0.001273  3.930467  0.0
C  C27  1  0.76989218  0.19685786  0.48852691  1  -0.110835  -0.009275  3.7448  -0.01  -0.12527  -0.003588  4.003904  -0.005  -0.132705  -0.0032  4.025187  -0.004  -0.083909  -0.120671  -0.003787  3.990071  -0.005
C  C28  1  0.23012708  0.80314198  0.51147509  1  -0.111139  -0.009289  3.744912  -0.01  -0.125543  -0.00359  4.003992  -0.005  -0.132982  -0.0032  4.025268  -0.004  -0.084025  -0.120938  -0.003788  3.990166  -0.005
C  C29  1  0.71145859  0.08304714  0.38709778  1  -0.047767  0.013338  3.67474  0.008  -0.070883  0.005011  3.913313  0.003  -0.067104  0.00562  3.931057  0.003  -0.062066  -0.073084  0.004472  3.901027  0.003
C  C30  1  0.28855128  0.91696328  0.61289768  1  -0.047665  0.013361  3.674724  0.008  -0.070749  0.00501  3.913299  0.003  -0.066951  0.005618  3.93105  0.003  -0.061969  -0.072947  0.004472  3.901009  0.003
C  C31  1  0.89127462  0.08376297  0.32294157  1  0.042221  -0.009413  3.719737  -0.01  0.066429  -0.0039  3.953092  -0.005  0.061518  -0.003538  3.977118  -0.004  0.001954  0.069381  -0.004047  3.93653  -0.005
C  C32  1  0.10875725  0.91625082  0.67706707  1  0.042363  -0.009433  3.71968  -0.01  0.066603  -0.003899  3.953005  -0.005  0.061691  -0.003539  3.977024  -0.004  0.00204  0.069556  -0.004047  3.936443  -0.005
C  C33  1  0.12058476  0.20359295  0.36159825  1  0.067181  0.010057  3.655316  0.006  0.033296  0.002136  3.905794  0.001  0.041727  0.003871  3.923569  0.002  0.041052  0.028074  0.000883  3.894116  0.0
C  C34  1  0.87943472  0.79641054  0.63841475  1  0.067153  0.010051  3.65517  0.006  0.033233  0.002133  3.905498  0.001  0.041658  0.003872  3.923282  0.002  0.041004  0.028028  0.000884  3.893795  0.0
C  C35  1  0.83551516  0.95620230  0.21742288  1  -0.040335  -0.000554  3.724394  0.0  -0.101233  -0.000596  3.979866  -0.001  -0.097446  -0.000418  3.993424  0.0  -0.059738  -0.103526  -0.000746  3.970068  -0.001
C  C36  1  0.16452062  0.04380893  0.78257173  1  -0.040446  -0.000561  3.724684  0.0  -0.101417  -0.000596  3.980267  -0.001  -0.097627  -0.000417  3.993821  0.0  -0.059868  -0.103717  -0.000746  3.970479  -0.001
C  C37  1  0.91184694  0.11374620  0.05140307  1  -0.01687  6.9e-05  3.692709  0.0  -0.072604  3.1e-05  3.955442  0.0  -0.069249  9e-06  3.967285  0.0  -0.071296  -0.075154  2.5e-05  3.947679  0.0
C  C38  1  0.08817802  0.88626165  0.94859083  1  -0.016563  5.2e-05  3.692908  0.0  -0.072269  2.7e-05  3.955488  0.0  -0.068914  1.6e-05  3.967342  0.0  -0.07126  -0.074823  2.5e-05  3.947725  0.0
C  C39  1  0.94115489  0.85345793  0.04466581  1  -0.02743  3.9e-05  3.687052  0.0  -0.085586  1.6e-05  3.949277  0.0  -0.082599  5e-06  3.961745  0.0  -0.076299  -0.087596  -2.4e-05  3.940547  0.0
C  C40  1  0.05884937  0.14655247  0.95532250  1  -0.027375  3.6e-05  3.686728  0.0  -0.085717  1.4e-05  3.9491  0.0  -0.082731  1.3e-05  3.961575  0.0  -0.076346  -0.087738  -2.4e-05  3.940384  0.0
C  C41  1  0.57273558  0.45980809  0.75202816  1  0.618676  0.006923  3.917197  0.007  0.576423  0.00214  4.217312  0.003  0.612949  0.002585  4.210544  0.003  0.195363  0.551364  0.001665  4.22129  0.003
C  C42  1  0.42721102  0.54017758  0.24797864  1  0.6183  0.006917  3.917937  0.007  0.576029  0.002138  4.218049  0.003  0.612554  0.002585  4.211289  0.003  0.195241  0.550968  0.001664  4.222017  0.003
C  C43  1  0.53271985  0.48099985  0.87961175  1  -0.050716  -0.008321  3.739249  -0.009  -0.027294  -0.004855  3.965273  -0.005  -0.033703  -0.003488  3.986474  -0.004  -0.014701  -0.023125  -0.005786  3.950958  -0.006
C  C44  1  0.46722958  0.51898450  0.12038634  1  -0.050932  -0.008326  3.739415  -0.009  -0.027314  -0.004856  3.965224  -0.005  -0.03372  -0.00349  3.986427  -0.004  -0.014649  -0.023143  -0.005788  3.950897  -0.006
C  C45  1  0.34847794  0.55008075  0.89534887  1  -0.068621  -0.00094  3.721901  -0.001  -0.092074  -0.000554  3.972087  0.0  -0.091285  -0.000265  3.989464  0.0  -0.082459  -0.09236  -0.00073  3.9613  -0.001
C  C46  1  0.65147294  0.44989545  0.10465379  1  -0.068656  -0.000948  3.722336  -0.001  -0.092118  -0.000555  3.972442  0.0  -0.091329  -0.000265  3.989818  0.0  -0.082634  -0.092386  -0.00073  3.961664  -0.001
C  C47  1  0.68270718  0.43112177  0.98496449  1  -0.080534  0.000441  3.741191  0.0  -0.104102  -0.000223  3.991221  -0.001  -0.105622  -1.5e-05  4.012235  0.0  -0.083582  -0.102992  -0.000719  3.978404  -0.001
C  C48  1  0.31724422  0.56885555  0.01503554  1  -0.080277  0.000436  3.741102  0.0  -0.103994  -0.000226  3.991059  -0.001  -0.105512  -1.6e-05  4.012072  0.0  -0.083579  -0.102886  -0.000719  3.978248  -0.001
N  N49  1  0.17452196  0.31643674  0.45790044  1  -0.299329  -0.078055  3.324277  -0.099  -0.247061  -0.056286  3.61535  -0.077  -0.27709  -0.046732  3.638263  -0.069  -0.342107  -0.228921  -0.061746  3.601827  -0.08
N  N50  1  0.82551092  0.68356427  0.54211622  1  -0.299476  -0.078066  3.324438  -0.099  -0.247074  -0.056285  3.615386  -0.077  -0.277103  -0.04673  3.6383  -0.069  -0.342175  -0.228933  -0.061744  3.601865  -0.08
N  N51  1  0.98325439  0.99442934  0.12860905  1  -0.233706  -0.000608  3.211621  -0.001  -0.161224  -0.000102  3.478711  0.0  -0.175417  -2.3e-05  3.496696  0.0  -0.347399  -0.150337  -0.000552  3.465018  -0.001
N  N52  1  0.01676204  0.00557622  0.87137996  1  -0.233703  -0.000617  3.211397  -0.001  -0.161219  -0.000104  3.47859  0.0  -0.175414  -2.4e-05  3.496569  0.0  -0.347329  -0.150332  -0.000552  3.464905  -0.001
O  O53  1  0.46955781  0.54125841  0.66854349  1  -0.614513  -0.097214  2.120411  -0.13  -0.583788  -0.062866  2.409643  -0.092  -0.627728  -0.048914  2.403923  -0.077  -0.334942  -0.552907  -0.072456  2.413224  -0.101
O  O54  1  0.53044939  0.45874986  0.33146425  1  -0.614168  -0.097201  2.120389  -0.13  -0.583515  -0.062863  2.409675  -0.092  -0.62746  -0.048909  2.403978  -0.077  -0.334826  -0.552637  -0.072455  2.413252  -0.101
O  O55  1  0.69537459  0.37061979  0.73110106  1  -0.605596  0.00164  1.890921  0.0  -0.571342  0.001581  2.12292  0.0  -0.594827  0.002544  2.114016  0.001  -0.324751  -0.555004  0.000651  2.128718  -0.001
O  O56  1  0.30456980  0.62935775  0.26890797  1  -0.60537  0.00164  1.891612  0.0  -0.571155  0.001584  2.123648  0.0  -0.594641  0.002541  2.11475  0.001  -0.324676  -0.554816  0.000651  2.12944  -0.001
