# generated using pymatgen
data_ZnH14C22(N3O)4
_symmetry_space_group_name_H-M   'P 1'
_cell_length_a   10.18900877
_cell_length_b   10.93139036
_cell_length_c   12.22304126
_cell_angle_alpha   92.22768894
_cell_angle_beta   98.70887343
_cell_angle_gamma   113.15092003
_symmetry_Int_Tables_number   1
_chemical_formula_structural   ZnH14C22(N3O)4
_chemical_formula_sum   'Zn2 H28 C44 N24 O8'
_cell_volume   1230.06682046
_cell_formula_units_Z   2
loop_
 _symmetry_equiv_pos_site_id
 _symmetry_equiv_pos_as_xyz
  1  'x, y, z'
loop_
 _atom_site_type_symbol
 _atom_site_label
 _atom_site_symmetry_multiplicity
 _atom_site_fract_x
 _atom_site_fract_y
 _atom_site_fract_z
 _atom_site_occupancy
 _atom_site_hle17_bader_spin_density
 _atom_site_hle17_ddec_charge
 _atom_site_hle17_ddec_spin_density
 _atom_site_hle17_ddec_sum_bond_order
 _atom_site_hle17_magmom
 _atom_site_hse06_10hf_bader_spin_density
 _atom_site_hse06_10hf_ddec_charge
 _atom_site_hse06_10hf_ddec_spin_density
 _atom_site_hse06_10hf_ddec_sum_bond_order
 _atom_site_hse06_10hf_magmom
 _atom_site_hse06_bader_spin_density
 _atom_site_hse06_ddec_charge
 _atom_site_hse06_ddec_spin_density
 _atom_site_hse06_ddec_sum_bond_order
 _atom_site_hse06_magmom
 _atom_site_pbe_bader_spin_density
 _atom_site_pbe_cm5_charge
 _atom_site_pbe_ddec_charge
 _atom_site_pbe_ddec_spin_density
 _atom_site_pbe_ddec_sum_bond_order
 _atom_site_pbe_magmom
Zn  Zn0  1  0.79826201  0.23001668  0.92871825  1  0  1.013534  0  1.892635  0  0  0.826077  0  2.37329  0  0  0.871385  0  2.318879  0  0  0.707675  0.79538  0  2.409769  0
Zn  Zn1  1  0.20173805  0.76998451  0.07128224  1  0  1.013508  0  1.89267  0  0  0.826066  0  2.373299  0  0  0.871372  0  2.318889  0  0  0.707666  0.795367  0  2.409778  0
H  H2  1  0.81906837  0.29890599  0.28503661  1  0  0.106331  0  0.98432  0  0  0.110415  0  1.061144  0  0  0.113854  0  1.058449  0  0  0.10684  0.107864  0  1.063249  0
H  H3  1  0.18093181  0.70109321  0.71496383  1  0  0.106323  0  0.984318  0  0  0.110409  0  1.061138  0  0  0.113847  0  1.058445  0  0  0.10684  0.107858  0  1.063248  0
H  H4  1  0.77403970  0.91853066  0.96161964  1  0  0.133257  0  0.913543  0  0  0.141329  0  0.975941  0  0  0.14441  0  0.971498  0  0  0.153488  0.138827  0  0.978882  0
H  H5  1  0.22596092  0.08146954  0.03838007  1  0  0.133229  0  0.913559  0  0  0.141326  0  0.975929  0  0  0.144407  0  0.971485  0  0  0.153485  0.138825  0  0.978868  0
H  H6  1  0.30317404  0.64036369  0.83603510  1  0  0.137663  0  0.965482  0  0  0.141984  0  1.037149  0  0  0.146479  0  1.032935  0  0  0.118712  0.138736  0  1.040246  0
H  H7  1  0.69682459  0.35963649  0.16396273  1  0  0.137688  0  0.965463  0  0  0.142013  0  1.037117  0  0  0.146504  0  1.032915  0  0  0.118719  0.138767  0  1.04021  0
H  H8  1  0.08814917  0.48932019  0.89231735  1  0  0.131175  0  0.926481  0  0  0.136478  0  0.993191  0  0  0.139399  0  0.988377  0  0  0.151464  0.133804  0  0.996812  0
H  H9  1  0.91185331  0.51068201  0.10768103  1  0  0.131168  0  0.926505  0  0  0.136487  0  0.993188  0  0  0.139408  0  0.988374  0  0  0.151461  0.133812  0  0.996811  0
H  H10  1  0.66529769  0.29620569  0.39703763  1  0  0.097264  0  0.953142  0  0  0.100702  0  1.025745  0  0  0.103808  0  1.021112  0  0  0.13065  0.098233  0  1.02882  0
H  H11  1  0.33470436  0.70379551  0.60296230  1  0  0.097245  0  0.953161  0  0  0.100684  0  1.025765  0  0  0.103787  0  1.021133  0  0  0.130626  0.098216  0  1.028843  0
H  H12  1  0.41500180  0.29769248  0.85292617  1  0  0.126899  0  0.948703  0  0  0.13176  0  1.015561  0  0  0.13614  0  1.01186  0  0  0.114769  0.128372  0  1.018651  0
H  H13  1  0.58499783  0.70230771  0.14707260  1  0  0.126917  0  0.948693  0  0  0.131755  0  1.015569  0  0  0.136135  0  1.011868  0  0  0.114756  0.128366  0  1.018658  0
H  H14  1  0.12412100  0.12625481  0.25024951  1  0  0.106734  0  0.982476  0  0  0.10923  0  1.060948  0  0  0.113335  0  1.057173  0  0  0.105441  0.106202  0  1.063813  0
H  H15  1  0.87587949  0.87374739  0.74975107  1  0  0.106727  0  0.98246  0  0  0.109245  0  1.060906  0  0  0.113347  0  1.057137  0  0  0.105456  0.106224  0  1.063762  0
H  H16  1  0.75189223  0.69226188  0.87550015  1  0  0.129413  0  0.95025  0  0  0.133808  0  1.02144  0  0  0.137275  0  1.019631  0  0  0.11359  0.131247  0  1.022635  0
H  H17  1  0.24810740  0.30773831  0.12449862  1  0  0.129426  0  0.950249  0  0  0.133803  0  1.021452  0  0  0.137268  0  1.019649  0  0  0.113589  0.131243  0  1.022649  0
H  H18  1  0.49867380  0.05619388  0.75740651  1  0  0.11243  0  0.93855  0  0  0.115151  0  1.006979  0  0  0.118733  0  1.002533  0  0  0.13844  0.112426  0  1.010183  0
H  H19  1  0.50132440  0.94380533  0.24259613  1  0  0.112443  0  0.93849  0  0  0.115131  0  1.006954  0  0  0.118711  0  1.002511  0  0  0.138437  0.112405  0  1.010158  0
H  H20  1  0.95083805  0.07675437  0.80106569  1  0  0.095692  0  0.953691  0  0  0.100529  0  1.024417  0  0  0.102413  0  1.021797  0  0  0.135993  0.098974  0  1.026561  0
H  H21  1  0.04916158  0.92324583  0.19893554  1  0  0.095718  0  0.953608  0  0  0.100508  0  1.024382  0  0  0.102393  0  1.021762  0  0  0.135992  0.098956  0  1.026521  0
H  H22  1  0.05945192  0.22681497  0.57811551  1  0  0.123682  0  0.963835  0  0  0.126447  0  1.039497  0  0  0.130259  0  1.036843  0  0  0.111104  0.123658  0  1.041655  0
H  H23  1  0.94054870  0.77318524  0.42188584  1  0  0.123621  0  0.963901  0  0  0.126418  0  1.039529  0  0  0.13023  0  1.036874  0  0  0.111082  0.123628  0  1.041688  0
H  H24  1  0.38824610  0.94808238  0.43809421  1  0  0.087983  0  0.941534  0  0  0.095729  0  1.006372  0  0  0.097333  0  1.005019  0  0  0.129865  0.094255  0  1.00786  0
H  H25  1  0.61174980  0.05191380  0.56190478  1  0  0.087977  0  0.941492  0  0  0.095732  0  1.006325  0  0  0.097336  0  1.004972  0  0  0.129862  0.094258  0  1.007815  0
H  H26  1  0.85022482  0.47442337  0.72484263  1  0  0.088747  0  0.96404  0  0  0.098346  0  1.023402  0  0  0.099567  0  1.023109  0  0  0.123954  0.097202  0  1.024081  0
H  H27  1  0.14977493  0.52557483  0.27515855  1  0  0.088757  0  0.964035  0  0  0.098348  0  1.023407  0  0  0.099573  0  1.023106  0  0  0.123956  0.097206  0  1.024085  0
H  H28  1  0.25602552  0.18034618  0.64111242  1  0  0.100412  0  0.953482  0  0  0.104394  0  1.025167  0  0  0.107639  0  1.019956  0  0  0.133818  0.101704  0  1.028697  0
H  H29  1  0.74397765  0.81965303  0.35888841  1  0  0.100438  0  0.953461  0  0  0.10443  0  1.025129  0  0  0.107674  0  1.01992  0  0  0.133832  0.101753  0  1.028647  0
C  C30  1  0.89867029  0.26307636  0.32286509  1  0  -0.148229  0  3.713982  0  0  -0.186928  0  3.973337  0  0  -0.189952  0  3.992032  0  0  -0.081987  -0.184242  0  3.95882  0
C  C31  1  0.10132890  0.73692284  0.67713605  1  0  -0.148227  0  3.714001  0  0  -0.186931  0  3.97337  0  0  -0.189952  0  3.992063  0  0  -0.08198  -0.184248  0  3.958853  0
C  C32  1  0.34270256  0.45856979  0.84012342  1  0  0.184008  0  3.793355  0  0  0.167481  0  4.041907  0  0  0.182437  0  4.066131  0  0  0.105248  0.164869  0  4.026127  0
C  C33  1  0.65729607  0.54143038  0.15987277  1  0  0.184114  0  3.793411  0  0  0.167553  0  4.042009  0  0  0.182494  0  4.066225  0  0  0.105229  0.164941  0  4.026229  0
C  C34  1  0.68444988  0.92304005  0.90349458  1  0  0.191193  0  3.581895  0  0  0.113356  0  3.841248  0  0  0.139265  0  3.854301  0  0  0.178504  0.103536  0  3.835309  0
C  C35  1  0.31554919  0.07696114  0.09650578  1  0  0.191228  0  3.581851  0  0  0.113361  0  3.841204  0  0  0.139284  0  3.854261  0  0  0.17849  0.103543  0  3.835266  0
C  C36  1  0.52982169  0.67800677  0.85261774  1  0  0.183603  0  3.782968  0  0  0.166125  0  4.033682  0  0  0.180177  0  4.05759  0  0  0.103683  0.163419  0  4.018394  0
C  C37  1  0.47017707  0.32199142  0.14738085  1  0  0.183585  0  3.782913  0  0  0.166078  0  4.033628  0  0  0.180149  0  4.057538  0  0  0.103675  0.163376  0  4.018341  0
C  C38  1  0.38225475  0.59582283  0.84109748  1  0  -0.195547  0  3.662587  0  0  -0.230772  0  3.927391  0  0  -0.233634  0  3.938541  0  0  -0.076656  -0.228979  0  3.916184  0
C  C39  1  0.61774674  0.40417936  0.15890159  1  0  -0.195599  0  3.662567  0  0  -0.230801  0  3.927394  0  0  -0.233668  0  3.938544  0  0  -0.076619  -0.229008  0  3.916188  0
C  C40  1  0.08473886  0.39273886  0.86357152  1  0  0.234115  0  3.560599  0  0  0.15193  0  3.830549  0  0  0.181228  0  3.840494  0  0  0.189037  0.140226  0  3.826012  0
C  C41  1  0.91526176  0.60726133  0.13642819  1  0  0.234122  0  3.560607  0  0  0.15195  0  3.830542  0  0  0.18123  0  3.840484  0  0  0.189058  0.140245  0  3.826006  0
C  C42  1  0.73668939  0.33677369  0.47717599  1  0  0.159899  0  3.663807  0  0  0.096157  0  3.932171  0  0  0.118763  0  3.94458  0  0  0.147482  0.087736  0  3.92612  0
C  C43  1  0.26331166  0.66322752  0.52282545  1  0  0.159928  0  3.663787  0  0  0.096198  0  3.932132  0  0  0.118803  0  3.944537  0  0  0.147522  0.087773  0  3.926082  0
C  C44  1  0.44674198  0.40472256  0.85218244  1  0  -0.136976  0  3.693607  0  0  -0.175047  0  3.949109  0  0  -0.176711  0  3.965635  0  0  -0.075837  -0.173757  0  3.936171  0
C  C45  1  0.55325709  0.59527863  0.14781710  1  0  -0.137068  0  3.693596  0  0  -0.175084  0  3.949094  0  0  -0.176747  0  3.96562  0  0  -0.075824  -0.173788  0  3.936157  0
C  C46  1  0.06965131  0.16507015  0.30304421  1  0  -0.153852  0  3.711599  0  0  -0.188712  0  3.964956  0  0  -0.191707  0  3.982571  0  0  -0.086035  -0.186159  0  3.951277  0
C  C47  1  0.93034931  0.83493005  0.69695714  1  0  -0.153918  0  3.711582  0  0  -0.188779  0  3.964977  0  0  -0.191773  0  3.982591  0  0  -0.086079  -0.186233  0  3.951288  0
C  C48  1  0.59338348  0.48935229  0.86640127  1  0  -0.016601  0  3.760275  0  0  0.011863  0  3.987176  0  0  0.005138  0  4.011215  0  0  -0.007507  0.015681  0  3.971273  0
C  C49  1  0.40661670  0.51064690  0.13359836  1  0  -0.01656  0  3.760234  0  0  0.011881  0  3.987134  0  0  0.005155  0  4.011173  0  0  -0.007542  0.015691  0  3.971243  0
C  C50  1  0.96576669  0.20984708  0.25518529  1  0  -0.022421  0  3.775834  0  0  0.006976  0  3.997804  0  0  0.00073  0  4.021691  0  0  -0.011134  0.010676  0  3.982134  0
C  C51  1  0.03423393  0.79015313  0.74481606  1  0  -0.022366  0  3.775795  0  0  0.007016  0  3.997774  0  0  0.000768  0  4.021662  0  0  -0.011142  0.010715  0  3.982102  0
C  C52  1  0.63673743  0.62762355  0.86603053  1  0  -0.146752  0  3.673198  0  0  -0.182706  0  3.926744  0  0  -0.184702  0  3.944218  0  0  -0.076821  -0.179426  0  3.911644  0
C  C53  1  0.36326120  0.37237663  0.13396811  1  0  -0.146771  0  3.673117  0  0  -0.182694  0  3.92667  0  0  -0.184693  0  3.944143  0  0  -0.076822  -0.179412  0  3.911575  0
C  C54  1  0.54185277  0.99090944  0.80013637  1  0  0.215698  0  3.66483  0  0  0.163994  0  3.949143  0  0  0.176334  0  3.957144  0  0  0.159713  0.156602  0  3.940839  0
C  C55  1  0.45814587  0.00909076  0.19986636  1  0  0.215716  0  3.664818  0  0  0.164047  0  3.949137  0  0  0.176388  0  3.957133  0  0  0.159699  0.156656  0  3.940831  0
C  C56  1  0.70447295  0.43043738  0.88544219  1  0  0.627475  0  3.941545  0  0  0.578766  0  4.232491  0  0  0.612289  0  4.2262  0  0  0.201368  0.556053  0  4.236307  0
C  C57  1  0.29552667  0.56956282  0.11455821  1  0  0.627437  0  3.941552  0  0  0.578734  0  4.232503  0  0  0.612256  0  4.226214  0  0  0.201339  0.556025  0  4.236319  0
C  C58  1  0.01785854  0.18290970  0.81730378  1  0  0.234609  0  3.691227  0  0  0.175763  0  3.986809  0  0  0.190225  0  3.993609  0  0  0.162096  0.166752  0  3.979726  0
C  C59  1  0.98213966  0.81708948  0.18269478  1  0  0.234596  0  3.691317  0  0  0.175786  0  3.986903  0  0  0.190246  0  3.993707  0  0  0.162087  0.166773  0  3.97982  0
C  C60  1  0.93489992  0.26981095  0.43822487  1  0  0.192663  0  3.792455  0  0  0.175619  0  4.043244  0  0  0.190523  0  4.066356  0  0  0.105096  0.171821  0  4.028645  0
C  C61  1  0.06509983  0.73018725  0.56177630  1  0  0.192647  0  3.792448  0  0  0.175603  0  4.043231  0  0  0.190506  0  4.066338  0  0  0.105097  0.171802  0  4.028629  0
C  C62  1  0.03628232  0.22277337  0.48791826  1  0  -0.202336  0  3.662018  0  0  -0.237855  0  3.928526  0  0  -0.241255  0  3.940363  0  0  -0.08483  -0.235795  0  3.917812  0
C  C63  1  0.96371787  0.77722583  0.51208301  1  0  -0.202263  0  3.662015  0  0  -0.237785  0  3.928513  0  0  -0.241188  0  3.940351  0  0  -0.084789  -0.235727  0  3.917798  0
C  C64  1  0.92641998  0.19860634  0.13072149  1  0  0.643493  0  3.912708  0  0  0.596847  0  4.197508  0  0  0.630923  0  4.190438  0  0  0.20167  0.573738  0  4.201838  0
C  C65  1  0.07358064  0.80139385  0.86927905  1  0  0.643452  0  3.912602  0  0  0.59682  0  4.197389  0  0  0.630895  0  4.190324  0  0  0.201669  0.573712  0  4.201716  0
C  C66  1  0.10311610  0.17034936  0.41855301  1  0  0.187687  0  3.786165  0  0  0.171284  0  4.033682  0  0  0.186287  0  4.056611  0  0  0.102119  0.167527  0  4.018905  0
C  C67  1  0.89688551  0.82965085  0.58144847  1  0  0.187761  0  3.786112  0  0  0.171295  0  4.033696  0  0  0.186305  0  4.056629  0  0  0.102156  0.167538  0  4.018917  0
C  C68  1  0.33565720  0.00955127  0.46659856  1  0  0.188644  0  3.745878  0  0  0.140885  0  4.045717  0  0  0.152032  0  4.055667  0  0  0.135839  0.13399  0  4.03716  0
C  C69  1  0.66434298  0.99044793  0.53340107  1  0  0.188662  0  3.745864  0  0  0.1409  0  4.045698  0  0  0.152047  0  4.055646  0  0  0.135847  0.134004  0  4.037142  0
C  C70  1  0.83224468  0.42330426  0.64246971  1  0  0.189987  0  3.72971  0  0  0.147818  0  4.022207  0  0  0.158052  0  4.032615  0  0  0.128694  0.141617  0  4.01292  0
C  C71  1  0.16775550  0.57669494  0.35753074  1  0  0.189968  0  3.729731  0  0  0.147803  0  4.022235  0  0  0.158032  0  4.032642  0  0  0.128666  0.141602  0  4.012948  0
C  C72  1  0.27154244  0.12653868  0.57094540  1  0  0.174721  0  3.639868  0  0  0.11064  0  3.901467  0  0  0.13435  0  3.914009  0  0  0.158342  0.10165  0  3.895114  0
C  C73  1  0.72845874  0.87346052  0.42905436  1  0  0.174745  0  3.639961  0  0  0.110647  0  3.901561  0  0  0.134361  0  3.914107  0  0  0.158334  0.101644  0  3.895201  0
N  N74  1  0.35579765  0.05915134  0.57525948  1  0  -0.388514  0  2.978208  0  0  -0.3529  0  3.259025  0  0  -0.367398  0  3.266913  0  0  -0.336201  -0.342974  0  3.251303  0
N  N75  1  0.64420266  0.94084585  0.42474010  1  0  -0.388516  0  2.978416  0  0  -0.352896  0  3.259233  0  0  -0.367392  0  3.267118  0  0  -0.336164  -0.342971  0  3.251516  0
N  N76  1  0.71245189  0.39842166  0.56266767  1  0  -0.383861  0  2.93927  0  0  -0.357615  0  3.210944  0  0  -0.368748  0  3.216303  0  0  -0.356596  -0.349996  0  3.205108  0
N  N77  1  0.28754774  0.60157854  0.43733274  1  0  -0.383919  0  2.939307  0  0  -0.357674  0  3.21098  0  0  -0.368809  0  3.216341  0  0  -0.35661  -0.350054  0  3.205148  0
N  N78  1  0.19517181  0.36998774  0.83203596  1  0  0.00639  0  3.566463  0  0  0.122732  0  3.745583  0  0  0.07755  0  3.81049  0  0  -0.11477  0.130549  0  3.72933  0
N  N79  1  0.80482682  0.63001243  0.16796023  1  0  0.006375  0  3.566438  0  0  0.122672  0  3.74562  0  0  0.077543  0  3.81048  0  0  -0.11478  0.130489  0  3.729367  0
N  N80  1  0.47624420  0.85903787  0.78214843  1  0  -0.245971  0  2.85064  0  0  -0.243869  0  3.116766  0  0  -0.242918  0  3.136849  0  0  -0.20342  -0.237723  0  3.10717  0
N  N81  1  0.52375487  0.14096332  0.21785275  1  0  -0.245994  0  2.85063  0  0  -0.243906  0  3.116738  0  0  -0.242939  0  3.136824  0  0  -0.203427  -0.237758  0  3.10714  0
N  N82  1  0.56780737  0.81724077  0.84835015  1  0  0.014087  0  3.586683  0  0  0.130544  0  3.764763  0  0  0.088259  0  3.828347  0  0  -0.11104  0.136644  0  3.750548  0
N  N83  1  0.43219126  0.18275942  0.15165013  1  0  0.014078  0  3.586779  0  0  0.130581  0  3.764823  0  0  0.088253  0  3.828449  0  0  -0.111043  0.136674  0  3.75062  0
N  N84  1  0.97153058  0.27548080  0.85555026  1  0  -0.411674  0  3.280603  0  0  -0.331977  0  3.595518  0  0  -0.354011  0  3.598025  0  0  -0.34768  -0.317305  0  3.591029  0
N  N85  1  0.02846905  0.72451940  0.14445015  1  0  -0.411647  0  3.2806  0  0  -0.331945  0  3.595496  0  0  -0.353978  0  3.598007  0  0  -0.347674  -0.317272  0  3.591006  0
N  N86  1  0.86595727  0.32515294  0.50495951  1  0  0.00048  0  3.600556  0  0  0.113828  0  3.779942  0  0  0.073396  0  3.840921  0  0  -0.125327  0.121535  0  3.763088  0
N  N87  1  0.13404292  0.67484626  0.49504094  1  0  0.000581  0  3.600506  0  0  0.113916  0  3.779904  0  0  0.073496  0  3.84086  0  0  -0.125312  0.121624  0  3.763047  0
N  N88  1  0.67026497  0.03442683  0.87442384  1  0  -0.399887  0  3.238317  0  0  -0.320578  0  3.543445  0  0  -0.340993  0  3.547629  0  0  -0.342476  -0.30681  0  3.537397  0
N  N89  1  0.32973609  0.96557438  0.12557760  1  0  -0.399873  0  3.23838  0  0  -0.320587  0  3.543539  0  0  -0.341002  0  3.547717  0  0  -0.342419  -0.30682  0  3.537491  0
N  N90  1  0.24522237  0.04219262  0.39601776  1  0  -0.287574  0  2.868878  0  0  -0.285173  0  3.136982  0  0  -0.284762  0  3.157181  0  0  -0.229752  -0.279428  0  3.126962  0
N  N91  1  0.75477595  0.95780458  0.60398321  1  0  -0.287494  0  2.868823  0  0  -0.285099  0  3.136918  0  0  -0.28468  0  3.157121  0  0  -0.229752  -0.279354  0  3.126898  0
N  N92  1  0.92818298  0.38036279  0.61189678  1  0  -0.292542  0  2.857592  0  0  -0.295615  0  3.129154  0  0  -0.294531  0  3.149481  0  0  -0.237611  -0.28986  0  3.118821  0
N  N93  1  0.07181677  0.61963541  0.38810440  1  0  -0.292559  0  2.857585  0  0  -0.295631  0  3.129157  0  0  -0.294553  0  3.149482  0  0  -0.237602  -0.289874  0  3.118826  0
N  N94  1  0.15336815  0.23595655  0.80161239  1  0  -0.272279  0  2.848588  0  0  -0.268076  0  3.113709  0  0  -0.266778  0  3.131847  0  0  -0.216141  -0.261551  0  3.105213  0
N  N95  1  0.84663147  0.76404364  0.19838638  1  0  -0.272317  0  2.84866  0  0  -0.268097  0  3.113762  0  0  -0.266815  0  3.131894  0  0  -0.216142  -0.261572  0  3.105271  0
N  N96  1  0.20409096  0.11773961  0.46400267  1  0  0.006177  0  3.578986  0  0  0.121239  0  3.754767  0  0  0.080848  0  3.814721  0  0  -0.11921  0.128936  0  3.738256  0
N  N97  1  0.79590923  0.88225959  0.53599778  1  0  0.006006  0  3.579026  0  0  0.1211  0  3.754815  0  0  0.080688  0  3.814785  0  0  -0.119269  0.128798  0  3.738305  0
O  O98  1  0.83689942  0.50527932  0.90410703  1  0  -0.606896  0  1.924353  0  0  -0.560278  0  2.152227  0  0  -0.583345  0  2.144151  0  0  -0.313634  -0.544972  0  2.157944  0
O  O99  1  0.16309964  0.49472187  0.09589170  1  0  -0.60688  0  1.924364  0  0  -0.560258  0  2.152232  0  0  -0.583325  0  2.144155  0  0  -0.313602  -0.544954  0  2.15795  0
O  O100  1  0.97054535  0.13246247  0.07124207  1  0  -0.620702  0  1.888025  0  0  -0.57422  0  2.106879  0  0  -0.597656  0  2.098834  0  0  -0.329002  -0.55793  0  2.1121  0
O  O101  1  0.02945626  0.86753774  0.92875941  1  0  -0.620708  0  1.887983  0  0  -0.574247  0  2.106853  0  0  -0.597683  0  2.098808  0  0  -0.329036  -0.557957  0  2.11207  0
O  O102  1  0.84341387  0.25835506  0.09264712  1  0  -0.649848  0  2.033537  0  0  -0.57434  0  2.305044  0  0  -0.603329  0  2.289371  0  0  -0.334501  -0.554088  0  2.314934  0
O  O103  1  0.15658675  0.74164515  0.90735423  1  0  -0.649816  0  2.033484  0  0  -0.574296  0  2.304972  0  0  -0.603286  0  2.289303  0  0  -0.334471  -0.554045  0  2.314862  0
O  O104  1  0.65129650  0.30122303  0.88269619  1  0  -0.643682  0  2.04403  0  0  -0.569569  0  2.31127  0  0  -0.598403  0  2.296693  0  0  -0.336524  -0.54945  0  2.319803  0
O  O105  1  0.34870213  0.69877715  0.11730327  1  0  -0.64369  0  2.044047  0  0  -0.569578  0  2.311282  0  0  -0.598412  0  2.296707  0  0  -0.336526  -0.549459  0  2.319812  0
