# generated using pymatgen
data_ZnH18C30(NO2)4
_symmetry_space_group_name_H-M   'P 1'
_cell_length_a   7.99291393
_cell_length_b   13.41102423
_cell_length_c   13.41100890
_cell_angle_alpha   88.45389711
_cell_angle_beta   83.85712629
_cell_angle_gamma   83.85710195
_symmetry_Int_Tables_number   1
_chemical_formula_structural   ZnH18C30(NO2)4
_chemical_formula_sum   'Zn2 H36 C60 N8 O16'
_cell_volume   1420.93179128
_cell_formula_units_Z   2
loop_
 _symmetry_equiv_pos_site_id
 _symmetry_equiv_pos_as_xyz
  1  'x, y, z'
loop_
 _atom_site_type_symbol
 _atom_site_label
 _atom_site_symmetry_multiplicity
 _atom_site_fract_x
 _atom_site_fract_y
 _atom_site_fract_z
 _atom_site_occupancy
 _atom_site_pbe_bader_charge
 _atom_site_pbe_bader_spin_density
 _atom_site_pbe_cm5_charge
 _atom_site_pbe_ddec_charge
 _atom_site_pbe_ddec_spin_density
 _atom_site_pbe_ddec_sum_bond_order
 _atom_site_pbe_magmom
Zn  Zn0  1  0.25000010  0.80922965  0.19077078  1  1.257673  0  0.697455  0.760258  0  2.392493  0
Zn  Zn1  1  0.75000055  0.19076942  0.80922934  1  1.257673  0  0.697433  0.760258  0  2.392446  0
H  H2  1  0.44895499  0.84003263  0.87528255  1  0.149041  0  0.118166  0.131469  0  0.9802  0
H  H3  1  0.05104473  0.12471879  0.15996812  1  0.149064  0  0.118181  0.131504  0  0.980172  0
H  H4  1  0.55104525  0.15996870  0.12471753  1  0.149063  0  0.11815  0.131451  0  0.980227  0
H  H5  1  0.94895439  0.87528178  0.84003131  1  0.14907  0  0.118169  0.131468  0  0.980222  0
H  H6  1  0.61348689  0.53771457  0.96575899  1  0.104325  0  0.108025  0.107256  0  1.031503  0
H  H7  1  0.88651186  0.03424386  0.46228645  1  0.104379  0  0.108023  0.107246  0  1.031539  0
H  H8  1  0.38651237  0.46228525  0.03424194  1  0.104335  0  0.108029  0.107251  0  1.031539  0
H  H9  1  0.11348713  0.96575746  0.53771445  1  0.104344  0  0.108029  0.107238  0  1.031546  0
H  H10  1  0.77018450  0.50324781  0.79771125  1  0.112388  0  0.107643  0.111721  0  1.019119  0
H  H11  1  0.72981574  0.20229165  0.49675429  1  0.112365  0  0.107629  0.111739  0  1.019074  0
H  H12  1  0.22981462  0.49675276  0.20228893  1  0.112385  0  0.107645  0.111747  0  1.019088  0
H  H13  1  0.27018576  0.79770967  0.50324719  1  0.112374  0  0.107645  0.111741  0  1.019065  0
H  H14  1  0.90613283  0.74576941  0.47696268  1  0.096575  0  0.120575  0.109441  0  0.991048  0
H  H15  1  0.59386577  0.52303804  0.25423051  1  0.096564  0  0.120578  0.109429  0  0.991028  0
H  H16  1  0.09386768  0.25423041  0.52303743  1  0.09657  0  0.120548  0.109401  0  0.991066  0
H  H17  1  0.40613209  0.47696253  0.74576899  1  0.096568  0  0.120575  0.109432  0  0.991056  0
H  H18  1  0.82439266  0.86914693  0.51132965  1  0.098969  0  0.116885  0.106539  0  1.00207  0
H  H19  1  0.67560746  0.48867058  0.13085274  1  0.098955  0  0.116881  0.106521  0  1.00209  0
H  H20  1  0.17560785  0.13085289  0.48867045  1  0.098952  0  0.116888  0.106527  0  1.002085  0
H  H21  1  0.32439306  0.51132924  0.86914662  1  0.098959  0  0.116884  0.106536  0  1.002085  0
H  H22  1  0.46780631  0.94379747  0.25880989  1  0.14034  0  0.12274  0.098895  0  1.003126  0
H  H23  1  0.03219496  0.74119007  0.05620302  1  0.140344  0  0.122748  0.09892  0  1.003088  0
H  H24  1  0.53219407  0.05620310  0.74119020  1  0.140339  0  0.122743  0.098908  0  1.003117  0
H  H25  1  0.96780556  0.25880975  0.94379709  1  0.140462  0  0.122745  0.0989  0  1.00312  0
H  H26  1  0.67847871  0.94775930  0.38104346  1  0.104168  0  0.112166  0.125178  0  1.015492  0
H  H27  1  0.82152178  0.61895637  0.05224089  1  0.104165  0  0.112165  0.125167  0  1.015515  0
H  H28  1  0.32152180  0.05224052  0.61895664  1  0.104156  0  0.112171  0.125193  0  1.015508  0
H  H29  1  0.17847873  0.38104345  0.94775921  1  0.104215  0  0.112176  0.125201  0  1.015491  0
H  H30  1  0.60595897  0.63849507  0.45746857  1  0.129409  0  0.114676  0.136295  0  1.000596  0
H  H31  1  0.89404161  0.54253133  0.36150510  1  0.129409  0  0.114668  0.136258  0  1.000602  0
H  H32  1  0.39404155  0.36150475  0.54253078  1  0.129414  0  0.114672  0.136275  0  1.000588  0
H  H33  1  0.10595890  0.45746849  0.63849500  1  0.129416  0  0.114668  0.136269  0  1.000585  0
H  H34  1  0.40412526  0.64561344  0.32869786  1  0.104642  0  0.121585  0.089351  0  0.993119  0
H  H35  1  0.09587577  0.67130234  0.35438748  1  0.104332  0  0.121554  0.089303  0  0.99315  0
H  H36  1  0.59587512  0.35438713  0.67130223  1  0.10464  0  0.121583  0.089352  0  0.993118  0
H  H37  1  0.90412474  0.32869748  0.64561263  1  0.104374  0  0.121577  0.089355  0  0.993129  0
C  C38  1  0.78002542  0.65753573  0.63776395  1  1.364079  0  0.249119  0.438507  0  4.113215  0
C  C39  1  0.71997592  0.36223601  0.34246448  1  1.364095  0  0.249138  0.438519  0  4.11315  0
C  C40  1  0.21997384  0.34246409  0.36223624  1  1.364107  0  0.249113  0.438513  0  4.113222  0
C  C41  1  0.28002459  0.63776381  0.65753563  1  1.364085  0  0.249141  0.438589  0  4.113141  0
C  C42  1  0.62636750  0.81266715  0.67358749  1  1.355496  0  0.248812  0.440929  0  4.111443  0
C  C43  1  0.87363442  0.32641416  0.18733368  1  1.355513  0  0.248755  0.440799  0  4.111456  0
C  C44  1  0.37363175  0.18733267  0.32641269  1  1.355481  0  0.248833  0.440976  0  4.111423  0
C  C45  1  0.12636861  0.67358567  0.81266700  1  1.355516  0  0.248829  0.440972  0  4.111405  0
C  C46  1  0.60644029  0.74715484  0.76436248  1  -0.0677  0  -0.015835  -0.072999  0  4.050145  0
C  C47  1  0.89356069  0.23563879  0.25284701  1  -0.067743  0  -0.015802  -0.072923  0  4.050086  0
C  C48  1  0.39356036  0.25284423  0.23563763  1  -0.067746  0  -0.015813  -0.072899  0  4.049976  0
C  C49  1  0.10643969  0.76436178  0.74715382  1  -0.067695  0  -0.015847  -0.073044  0  4.050174  0
C  C50  1  0.51908204  0.76740710  0.85769988  1  -0.057571  0  -0.063147  -0.082114  0  3.901983  0
C  C51  1  0.98091807  0.14230184  0.23259406  1  -0.057557  0  -0.063138  -0.082124  0  3.901934  0
C  C52  1  0.48091721  0.23259271  0.14229956  1  -0.057593  0  -0.063137  -0.082125  0  3.90194  0
C  C53  1  0.01908231  0.85769873  0.76740678  1  -0.057587  0  -0.063105  -0.082024  0  3.901974  0
C  C54  1  0.52457249  0.69041904  0.93110212  1  -0.002137  0  -0.004968  -0.018737  0  3.914212  0
C  C55  1  0.97542543  0.06889920  0.30958211  1  -0.002288  0  -0.005043  -0.018845  0  3.914094  0
C  C56  1  0.47542663  0.30958152  0.06889805  1  -0.002125  0  -0.005011  -0.018791  0  3.914137  0
C  C57  1  0.02457382  0.93110062  0.69041807  1  -0.00232  0  -0.005023  -0.018826  0  3.914169  0
C  C58  1  0.61437130  0.59664569  0.90834297  1  0.041168  0  -0.067729  -0.075436  0  3.916307  0
C  C59  1  0.88562693  0.09165920  0.40335669  1  0.041337  0  -0.067656  -0.075332  0  3.916111  0
C  C60  1  0.38562782  0.40335488  0.09165646  1  0.041266  0  -0.067723  -0.075431  0  3.916305  0
C  C61  1  0.11437205  0.90834212  0.59664496  1  0.041349  0  -0.067699  -0.075375  0  3.916273  0
C  C62  1  0.70219448  0.57663218  0.81386966  1  -0.033241  0  -0.068459  -0.057622  0  3.921878  0
C  C63  1  0.79780657  0.18613179  0.42336880  1  -0.033246  0  -0.068435  -0.057623  0  3.92176  0
C  C64  1  0.29780603  0.42336764  0.18612970  1  -0.033331  0  -0.068442  -0.057618  0  3.921805  0
C  C65  1  0.20219381  0.81386878  0.57663203  1  -0.033253  0  -0.068456  -0.057655  0  3.921867  0
C  C66  1  0.69778864  0.65353308  0.74264495  1  -0.045154  0  -0.012068  -0.063986  0  4.022491  0
C  C67  1  0.80221256  0.25735616  0.34646495  1  -0.045194  0  -0.012132  -0.064047  0  4.022562  0
C  C68  1  0.30221129  0.34646299  0.25735455  1  -0.045131  0  -0.012094  -0.06404  0  4.022435  0
C  C69  1  0.19779032  0.74264441  0.65353200  1  -0.045176  0  -0.012094  -0.063993  0  4.022531  0
C  C70  1  0.43570769  0.70765968  0.03534661  1  1.567727  0  0.196623  0.554903  0  4.238626  0
C  C71  1  0.06429267  0.96465410  0.29234125  1  1.56777  0  0.196657  0.55491  0  4.238708  0
C  C72  1  0.56429282  0.29234014  0.96465349  1  1.56773  0  0.196655  0.554944  0  4.238557  0
C  C73  1  0.93570785  0.03534572  0.70765885  1  1.567774  0  0.196628  0.554886  0  4.23856  0
C  C74  1  0.79012665  0.79309607  0.50355869  1  0.335313  0  -0.047539  -0.092215  0  3.919036  0
C  C75  1  0.70987291  0.49644188  0.20690425  1  0.335322  0  -0.047518  -0.092177  0  3.919014  0
C  C76  1  0.20987246  0.20690450  0.49644148  1  0.335319  0  -0.047525  -0.092147  0  3.918988  0
C  C77  1  0.29012760  0.50355794  0.79309585  1  0.335309  0  -0.047555  -0.092225  0  3.919017  0
C  C78  1  0.50512789  0.87691133  0.30235608  1  0.464711  0  0.054808  0.107679  0  3.913265  0
C  C79  1  0.99487227  0.69764376  0.12308943  1  0.464719  0  0.054823  0.107682  0  3.913235  0
C  C80  1  0.49487262  0.12308849  0.69764403  1  0.464709  0  0.054836  0.10768  0  3.913267  0
C  C81  1  0.00512825  0.30235606  0.87691068  1  0.464578  0  0.054812  0.107683  0  3.913284  0
C  C82  1  0.62216435  0.87873862  0.37146451  1  0.017353  0  -0.072703  -0.150712  0  3.897912  0
C  C83  1  0.87783566  0.62853584  0.12126089  1  0.017341  0  -0.072703  -0.150687  0  3.897943  0
C  C84  1  0.37783504  0.12126045  0.62853569  1  0.01735  0  -0.072738  -0.150758  0  3.897987  0
C  C85  1  0.12216499  0.37146323  0.87873923  1  0.017279  0  -0.072712  -0.150738  0  3.89794  0
C  C86  1  0.66228813  0.79289578  0.42884783  1  -0.036801  0  0.018275  0.149054  0  3.924572  0
C  C87  1  0.83771233  0.57115295  0.20710410  1  -0.036803  0  0.018262  0.149016  0  3.924613  0
C  C88  1  0.33771112  0.20710404  0.57115235  1  -0.0368  0  0.018276  0.149046  0  3.924602  0
C  C89  1  0.16228819  0.42884687  0.79289600  1  -0.036795  0  0.018263  0.149058  0  3.924583  0
C  C90  1  0.58232414  0.70733340  0.41393612  1  0.022505  0  -0.082559  -0.187415  0  3.948142  0
C  C91  1  0.91767577  0.58606317  0.29266613  1  0.022815  0  -0.082546  -0.187342  0  3.948154  0
C  C92  1  0.41767650  0.29266567  0.58606325  1  0.022834  0  -0.082553  -0.187383  0  3.948155  0
C  C93  1  0.08232488  0.41393590  0.70733399  1  0.022511  0  -0.08255  -0.187381  0  3.948137  0
C  C94  1  0.46779562  0.71096388  0.34278633  1  0.418631  0  0.050211  0.094957  0  3.957104  0
C  C95  1  0.03220321  0.65721347  0.28903622  1  0.418693  0  0.050259  0.095003  0  3.957023  0
C  C96  1  0.53220363  0.28903594  0.65721385  1  0.418644  0  0.050209  0.094942  0  3.957115  0
C  C97  1  0.96779618  0.34278560  0.71096398  1  0.418651  0  0.050213  0.094939  0  3.957139  0
N  N98  1  0.73189985  0.75456566  0.60167721  1  -1.187246  0  -0.256884  -0.198849  0  3.634078  0
N  N99  1  0.76809988  0.39832398  0.24543500  1  -1.187246  0  -0.256881  -0.198813  0  3.634088  0
N  N100  1  0.26810066  0.24543416  0.39832215  1  -1.187252  0  -0.256867  -0.198883  0  3.634102  0
N  N101  1  0.23190049  0.60167659  0.75456509  1  -1.187268  0  -0.256905  -0.198892  0  3.634112  0
N  N102  1  0.42909452  0.79430837  0.28794090  1  -1.256032  0  -0.333524  -0.237617  0  3.612614  0
N  N103  1  0.07090691  0.71205879  0.20569201  1  -1.256039  0  -0.333586  -0.237701  0  3.612521  0
N  N104  1  0.57090599  0.20569145  0.71205846  1  -1.256036  0  -0.333528  -0.23761  0  3.612586  0
N  N105  1  0.92909486  0.28794103  0.79430801  1  -1.256045  0  -0.333539  -0.237646  0  3.612641  0
O  O106  1  0.87280437  0.59329354  0.58937597  1  -1.12061  0  -0.264522  -0.418008  0  2.097523  0
O  O107  1  0.62719305  0.41062551  0.40670836  1  -1.12064  0  -0.264544  -0.418029  0  2.097435  0
O  O108  1  0.12719489  0.40670628  0.41062421  1  -1.120614  0  -0.264511  -0.418002  0  2.09755  0
O  O109  1  0.37280482  0.58937506  0.59329264  1  -1.120626  0  -0.264518  -0.418054  0  2.097503  0
O  O110  1  0.56754664  0.89939671  0.65938750  1  -1.121355  0  -0.257338  -0.419575  0  2.137978  0
O  O111  1  0.93245764  0.34061453  0.10060449  1  -1.121343  0  -0.257285  -0.419505  0  2.137967  0
O  O112  1  0.43245248  0.10060386  0.34061193  1  -1.121351  0  -0.257347  -0.419609  0  2.137948  0
O  O113  1  0.06754764  0.65938680  0.89939675  1  -1.121346  0  -0.257337  -0.419585  0  2.137977  0
O  O114  1  0.35381243  0.79579625  0.04987962  1  -1.160867  0  -0.337928  -0.544918  0  2.261742  0
O  O115  1  0.14618409  0.95012154  0.20420608  1  -1.160819  0  -0.337926  -0.544899  0  2.26192  0
O  O116  1  0.64618696  0.20420282  0.95012057  1  -1.160876  0  -0.337946  -0.544955  0  2.261742  0
O  O117  1  0.85381391  0.04987828  0.79579568  1  -1.160848  0  -0.3379  -0.544879  0  2.261707  0
O  O118  1  0.44600989  0.63900502  0.10020991  1  -1.166979  0  -0.323827  -0.562091  0  2.162581  0
O  O119  1  0.05398848  0.89979218  0.36099715  1  -1.167073  0  -0.32385  -0.562091  0  2.162532  0
O  O120  1  0.55399048  0.36099555  0.89979018  1  -1.166971  0  -0.323838  -0.562101  0  2.162564  0
O  O121  1  0.94601203  0.10020765  0.63900370  1  -1.167025  0  -0.323831  -0.562082  0  2.162565  0
