# generated using pymatgen
data_Cu4SiH24(C9N2)4
_symmetry_space_group_name_H-M   'P 1'
_cell_length_a   26.13288628
_cell_length_b   26.27307469
_cell_length_c   26.28884509
_cell_angle_alpha   89.94324398
_cell_angle_beta   90.55140577
_cell_angle_gamma   89.80030294
_symmetry_Int_Tables_number   1
_chemical_formula_structural   Cu4SiH24(C9N2)4
_chemical_formula_sum   'Cu12 Si3 H72 C108 N24'
_cell_volume   18048.73666017
_cell_formula_units_Z   3
loop_
 _symmetry_equiv_pos_site_id
 _symmetry_equiv_pos_as_xyz
  1  'x, y, z'
loop_
 _atom_site_type_symbol
 _atom_site_label
 _atom_site_symmetry_multiplicity
 _atom_site_fract_x
 _atom_site_fract_y
 _atom_site_fract_z
 _atom_site_occupancy
 _atom_site_pbe_bader_charge
 _atom_site_pbe_bader_spin_density
 _atom_site_pbe_cm5_charge
 _atom_site_pbe_ddec_charge
 _atom_site_pbe_ddec_spin_density
 _atom_site_pbe_ddec_sum_bond_order
 _atom_site_pbe_magmom
Cu  Cu0  1  0.78074829  0.78426720  0.86816491  1  0.542337  0  0.488382  0.202441  0  2.137224  0
Cu  Cu1  1  0.85209750  0.77261796  0.77208113  1  0.534879  0  0.483234  0.204724  0  2.102651  0
Cu  Cu2  1  0.77217888  0.86456072  0.77919927  1  0.540903  0  0.485897  0.203425  0  2.120981  0
Cu  Cu3  1  0.77748438  0.23003612  0.13932802  1  0.53383  0  0.485532  0.202538  0  2.126142  0
Cu  Cu4  1  0.86923873  0.22150266  0.21786040  1  0.539676  0  0.484787  0.204547  0  2.115659  0
Cu  Cu5  1  0.77009814  0.15364174  0.23232168  1  0.525345  0  0.485637  0.205049  0  2.116205  0
Cu  Cu6  1  0.22701997  0.77383468  0.14191469  1  0.534114  0  0.485787  0.202724  0  2.121713  0
Cu  Cu7  1  0.13957145  0.77045332  0.22464985  1  0.540293  0  0.4838  0.204641  0  2.110484  0
Cu  Cu8  1  0.22237660  0.85937168  0.22680696  1  0.539527  0  0.483536  0.203543  0  2.109781  0
Cu  Cu9  1  0.22680522  0.22546838  0.85327214  1  0.54681  0  0.484041  0.203994  0  2.112301  0
Cu  Cu10  1  0.13874254  0.22171587  0.76957856  1  0.542272  0  0.483501  0.203348  0  2.109227  0
Cu  Cu11  1  0.22494561  0.13537840  0.77300963  1  0.521954  0  0.484335  0.204164  0  2.112927  0
Si  Si12  1  0.99503173  0.99308919  0.49934860  1  2.68724  0  0.132061  0.675404  0  3.877499  0
Si  Si13  1  0.00458786  0.49955305  0.99395826  1  2.689467  0  0.130626  0.676394  0  3.885206  0
Si  Si14  1  0.49967344  0.00215358  0.00763434  1  2.698542  0  0.127636  0.677039  0  3.901922  0
H  H15  1  0.82349772  0.69627070  0.93800369  1  0.083523  0  0.11916  0.107927  0  0.997473  0
H  H16  1  0.91321772  0.67166871  0.80236931  1  0.085527  0  0.119606  0.109501  0  0.996136  0
H  H17  1  0.67654228  0.92963227  0.81588163  1  0.101162  0  0.119524  0.108905  0  0.997663  0
H  H18  1  0.69109046  0.82066361  0.93909630  1  0.092483  0  0.119241  0.108539  0  0.997155  0
H  H19  1  0.91060481  0.80311151  0.67171619  1  0.091423  0  0.119283  0.109163  0  0.994731  0
H  H20  1  0.80654149  0.93097852  0.68564187  1  0.066394  0  0.11938  0.109185  0  0.996311  0
H  H21  1  0.81124922  0.32674214  0.07565025  1  0.095523  0  0.119511  0.109354  0  0.996196  0
H  H22  1  0.94143516  0.30948374  0.17762226  1  0.071572  0  0.119686  0.10961  0  0.996327  0
H  H23  1  0.67035155  0.09240902  0.20190104  1  0.059946  0  0.119188  0.108501  0  0.997325  0
H  H24  1  0.68784801  0.18869445  0.06934053  1  0.114304  0  0.1192  0.108527  0  0.996625  0
H  H25  1  0.94163379  0.17325135  0.30242900  1  0.073201  0  0.11917  0.107873  0  0.997532  0
H  H26  1  0.79964829  0.09497229  0.33371089  1  0.089621  0  0.119204  0.108612  0  0.996737  0
H  H27  1  0.19550788  0.68032890  0.07285412  1  0.057626  0  0.119118  0.10894  0  0.996178  0
H  H28  1  0.07621194  0.67466691  0.18598617  1  0.093418  0  0.119581  0.110148  0  0.993695  0
H  H29  1  0.31487670  0.92939802  0.19289410  1  0.094788  0  0.118955  0.107931  0  0.999049  0
H  H30  1  0.32229370  0.81052514  0.07904017  1  0.079329  0  0.11887  0.108101  0  0.997434  0
H  H31  1  0.07092459  0.80263444  0.31800277  1  0.075628  0  0.119271  0.109331  0  0.992538  0
H  H32  1  0.18398047  0.92284125  0.32139236  1  0.05848  0  0.119289  0.109512  0  0.994303  0
H  H33  1  0.19425693  0.32371735  0.91456273  1  0.081704  0  0.119303  0.109239  0  0.996077  0
H  H34  1  0.07188263  0.31720421  0.80243101  1  0.100604  0  0.119323  0.108975  0  0.995942  0
H  H35  1  0.31753137  0.06800898  0.81380942  1  0.083619  0  0.119151  0.1079  0  0.997894  0
H  H36  1  0.31948452  0.19095821  0.92351326  1  0.100704  0  0.119096  0.108372  0  0.99833  0
H  H37  1  0.07013647  0.18180901  0.67818898  1  0.121487  0  0.119713  0.110235  0  0.994646  0
H  H38  1  0.18923097  0.06670676  0.68040237  1  0.103637  0  0.119228  0.109526  0  0.996238  0
H  H39  1  0.87165320  0.63553008  0.97966831  1  0.042941  0  0.097241  0.09564  0  1.008505  0
H  H40  1  0.94604989  0.59695573  0.83898670  1  0.05064  0  0.096606  0.095306  0  1.007556  0
H  H41  1  0.99485070  0.52981261  0.88312785  1  0.026057  0  0.095561  0.085407  0  1.022917  0
H  H42  1  0.92015573  0.56847549  0.02358866  1  0.045631  0  0.100429  0.090066  0  0.999434  0
H  H43  1  0.98855247  0.35899982  0.11990552  1  0.041521  0  0.097535  0.096011  0  1.008099  0
H  H44  1  0.84570463  0.40863608  0.05260244  1  0.021704  0  0.096603  0.095747  0  1.006107  0
H  H45  1  0.89132343  0.47435612  0.00438949  1  0.052711  0  0.095708  0.086336  0  1.023436  0
H  H46  1  0.03390491  0.42537595  0.07288142  1  0.04067  0  0.100192  0.089485  0  0.999112  0
H  H47  1  0.13449662  0.63647180  0.01788387  1  0.016432  0  0.097561  0.095922  0  1.006251  0
H  H48  1  0.06083057  0.58707535  0.15532294  1  0.067711  0  0.096525  0.095046  0  1.005552  0
H  H49  1  0.01325512  0.52234502  0.10653115  1  0.0355  0  0.095396  0.085772  0  1.022249  0
H  H50  1  0.08807138  0.57117892  0.96934518  1  0.060833  0  0.099903  0.089306  0  0.999556  0
H  H51  1  0.02220690  0.36630747  0.86059159  1  0.012401  0  0.097694  0.09598  0  1.006838  0
H  H52  1  0.16361897  0.40887857  0.93476915  1  0.053518  0  0.09674  0.095872  0  1.005214  0
H  H53  1  0.11770279  0.47376146  0.98415017  1  0.08984  0  0.095557  0.085343  0  1.021595  0
H  H54  1  0.97662476  0.43181971  0.90884461  1  0.053964  0  0.1003  0.089609  0  0.999116  0
H  H55  1  0.62652490  0.86196802  0.98166036  1  0.052421  0  0.097178  0.095592  0  1.007881  0
H  H56  1  0.60602017  0.96453049  0.85471196  1  0.075073  0  0.09697  0.09564  0  1.007815  0
H  H57  1  0.53842572  0.00941625  0.90103480  1  0.064617  0  0.096602  0.08614  0  1.018003  0
H  H58  1  0.55885594  0.90675150  0.02783256  1  0.043413  0  0.098704  0.087759  0  1.005532  0
H  H59  1  0.39134466  0.15422766  0.96225842  1  0.025572  0  0.096825  0.095572  0  1.007205  0
H  H60  1  0.37651593  0.02431439  0.86290975  1  0.022948  0  0.096846  0.094728  0  1.008657  0
H  H61  1  0.44298061  0.97960655  0.91200505  1  0.044609  0  0.098784  0.087883  0  1.0072  0
H  H62  1  0.45774357  0.10923405  0.01156503  1  0.079325  0  0.096516  0.086249  0  1.015208  0
H  H63  1  0.60345359  0.05094993  0.16195311  1  0.027843  0  0.096898  0.095707  0  1.007853  0
H  H64  1  0.62393115  0.14420848  0.02853375  1  0.060546  0  0.097382  0.095761  0  1.008838  0
H  H65  1  0.55799753  0.09512481  0.98356529  1  0.02904  0  0.099101  0.087719  0  1.0046  0
H  H66  1  0.53773918  0.00156727  0.11674989  1  0.041465  0  0.096463  0.085726  0  1.01943  0
H  H67  1  0.37606458  0.97467397  0.14858541  1  0.041862  0  0.0973  0.095662  0  1.007389  0
H  H68  1  0.39522726  0.84764929  0.04646414  1  0.011344  0  0.096981  0.095344  0  1.005922  0
H  H69  1  0.46181106  0.89457818  0.00110712  1  0.047929  0  0.096922  0.086137  0  1.017148  0
H  H70  1  0.44277616  0.02137569  0.10340901  1  0.023489  0  0.098388  0.086803  0  1.007176  0
H  H71  1  0.86371279  0.97770481  0.63454889  1  0.05491  0  0.097315  0.095851  0  1.007292  0
H  H72  1  0.93194879  0.83553114  0.58852598  1  0.020092  0  0.096836  0.095936  0  1.00575  0
H  H73  1  0.98184377  0.88063836  0.52385465  1  0.064567  0  0.095499  0.085087  0  1.023317  0
H  H74  1  0.91243109  0.02254253  0.56927106  1  0.07425  0  0.100112  0.089539  0  1.000176  0
H  H75  1  0.01606535  0.86328432  0.36270396  1  0.017662  0  0.097739  0.096405  0  1.007001  0
H  H76  1  0.15550028  0.93763412  0.40982644  1  0.004191  0  0.096895  0.095924  0  1.00527  0
H  H77  1  0.10815316  0.98466683  0.47533024  1  0.054713  0  0.095715  0.08607  0  1.022481  0
H  H78  1  0.96898535  0.90925740  0.42870422  1  0.052472  0  0.100275  0.089715  0  0.999024  0
H  H79  1  0.05190811  0.15202754  0.59073675  1  0.017767  0  0.096223  0.094915  0  1.006214  0
H  H80  1  0.12583337  0.01257245  0.63786834  1  0.05345  0  0.09721  0.095771  0  1.007815  0
H  H81  1  0.07831138  0.96577742  0.57192583  1  0.032715  0  0.099931  0.089542  0  0.999231  0
H  H82  1  0.00335248  0.10501191  0.52530622  1  0.041972  0  0.095804  0.086275  0  1.02109  0
H  H83  1  0.83797498  0.05987598  0.40712955  1  0.01957  0  0.096253  0.094712  0  1.007617  0
H  H84  1  0.98303470  0.12155780  0.36055839  1  0.048655  0  0.097468  0.096038  0  1.008445  0
H  H85  1  0.02660590  0.07129811  0.42645611  1  0.028337  0  0.100066  0.089555  0  1.000206  0
H  H86  1  0.88178640  0.00901580  0.47285526  1  0.022023  0  0.094887  0.085529  0  1.021646  0
C  C87  1  0.84167934  0.69683628  0.90108338  1  0.43127  0  0.006353  -0.050406  0  3.960285  0
C  C88  1  0.87922337  0.66446672  0.88081802  1  -0.007245  0  -0.036564  -0.039321  0  4.084656  0
C  C89  1  0.88722387  0.68419641  0.83179322  1  0.429585  0  0.006082  -0.052592  0  3.958276  0
C  C90  1  0.68663049  0.89922872  0.84210081  1  0.380506  0  0.005773  -0.052875  0  3.959662  0
C  C91  1  0.66447133  0.88550352  0.88863828  1  0.046987  0  -0.036288  -0.038534  0  4.088608  0
C  C92  1  0.69408683  0.84376211  0.90504450  1  0.402046  0  0.006497  -0.051142  0  3.960845  0
C  C93  1  0.88116168  0.83048000  0.68162608  1  0.391018  0  0.005609  -0.053096  0  3.960323  0
C  C94  1  0.86884089  0.87758937  0.65916258  1  0.064869  0  -0.036351  -0.037866  0  4.084954  0
C  C95  1  0.82851360  0.89599818  0.68906131  1  0.399197  0  0.006152  -0.05327  0  3.96235  0
C  C96  1  0.83911735  0.31618401  0.10468397  1  0.364836  0  0.004971  -0.054072  0  3.961023  0
C  C97  1  0.88743682  0.33697776  0.11574439  1  0.080035  0  -0.03581  -0.037165  0  4.084734  0
C  C98  1  0.90577484  0.30695192  0.15632618  1  0.413125  0  0.005246  -0.054271  0  3.963057  0
C  C99  1  0.68099212  0.12013617  0.17332914  1  0.445832  0  0.005418  -0.052488  0  3.961156  0
C  C100  1  0.66019893  0.12897541  0.12459509  1  -0.014738  0  -0.035936  -0.038758  0  4.088044  0
C  C101  1  0.68988234  0.16918927  0.10569362  1  0.388817  0  0.00643  -0.050673  0  3.95858  0
C  C102  1  0.90309947  0.15811856  0.30365228  1  0.401119  0  0.006945  -0.050248  0  3.958021  0
C  C103  1  0.88158380  0.12240796  0.33703003  1  0.081847  0  -0.036688  -0.03934  0  4.082896  0
C  C104  1  0.83065149  0.11838046  0.31980866  1  0.366512  0  0.005922  -0.051642  0  3.959457  0
C  C105  1  0.16974768  0.68579714  0.10452716  1  0.42759  0  0.005446  -0.054792  0  3.966  0
C  C106  1  0.12573940  0.65851871  0.11794553  1  0.022055  0  -0.035519  -0.036237  0  4.089617  0
C  C107  1  0.10937207  0.68246123  0.16274266  1  0.384014  0  0.004515  -0.054786  0  3.962414  0
C  C108  1  0.31012546  0.89635075  0.16863365  1  0.393538  0  0.005993  -0.051212  0  3.960277  0
C  C109  1  0.33787379  0.88120771  0.12562610  1  0.060991  0  -0.035528  -0.037464  0  4.085824  0
C  C110  1  0.31409091  0.83562207  0.11069852  1  0.393129  0  0.005669  -0.053088  0  3.960534  0
C  C111  1  0.10247568  0.82863935  0.31195676  1  0.453878  0  0.005232  -0.053308  0  3.958042  0
C  C112  1  0.11627087  0.87278757  0.33886359  1  0.020693  0  -0.036445  -0.03883  0  4.086106  0
C  C113  1  0.16063512  0.88949488  0.31418250  1  0.42232  0  0.005886  -0.053148  0  3.96099  0
C  C114  1  0.16830743  0.31565091  0.88315880  1  0.411688  0  0.005917  -0.052796  0  3.959631  0
C  C115  1  0.12235789  0.33991774  0.86883070  1  0.021375  0  -0.036002  -0.037829  0  4.082218  0
C  C116  1  0.10552757  0.31187549  0.82637565  1  0.407644  0  0.005622  -0.053549  0  3.959605  0
C  C117  1  0.31155237  0.10191408  0.83653164  1  0.405269  0  0.005979  -0.050299  0  3.959993  0
C  C118  1  0.33728589  0.11852477  0.88067075  1  0.02407  0  -0.036281  -0.040365  0  4.086145  0
C  C119  1  0.31274756  0.16470619  0.89236615  1  0.394713  0  0.006  -0.051512  0  3.961366  0
C  C120  1  0.10355043  0.15802521  0.68496128  1  0.382276  0  0.004607  -0.055639  0  3.963055  0
C  C121  1  0.11868901  0.11287430  0.66067295  1  0.020912  0  -0.03621  -0.037073  0  4.087266  0
C  C122  1  0.16382611  0.09881113  0.68663845  1  0.369004  0  0.004945  -0.055203  0  3.964639  0
C  C123  1  0.89828649  0.61215446  0.95802628  1  -0.046735  0  -0.097683  -0.141155  0  3.9822  0
C  C124  1  0.90547670  0.62204785  0.90592752  1  -0.039003  0  -0.007576  0.093198  0  4.048839  0
C  C125  1  0.94006954  0.59086777  0.87956426  1  -0.015539  0  -0.097929  -0.139943  0  3.981647  0
C  C126  1  0.96756415  0.55264608  0.90459063  1  -0.085286  0  -0.089564  -0.064357  0  4.050885  0
C  C127  1  0.96156525  0.54356508  0.95685509  1  -0.585505  0  -0.06597  -0.224993  0  3.992301  0
C  C128  1  0.92583104  0.57397001  0.98281190  1  -0.084923  0  -0.085665  -0.058982  0  4.037071  0
C  C129  1  0.96682076  0.38477288  0.09526253  1  -0.132853  0  -0.096296  -0.140656  0  3.983339  0
C  C130  1  0.91359871  0.37838788  0.08966995  1  -0.032568  0  -0.009111  0.093237  0  4.048182  0
C  C131  1  0.88712605  0.41200169  0.05704237  1  0.024072  0  -0.098378  -0.142646  0  3.981885  0
C  C132  1  0.91303074  0.44949657  0.03004890  1  -0.088168  0  -0.08922  -0.063597  0  4.046831  0
C  C133  1  0.96628371  0.45542452  0.03484321  1  -0.620528  0  -0.06598  -0.225786  0  3.991296  0
C  C134  1  0.99239967  0.42238979  0.06844992  1  0.002606  0  -0.084935  -0.056989  0  4.038572  0
C  C135  1  0.10863640  0.61082241  0.03770041  1  0.004214  0  -0.096489  -0.14039  0  3.980199  0
C  C136  1  0.10081800  0.61713144  0.09023051  1  -0.036246  0  -0.008399  0.092689  0  4.046917  0
C  C137  1  0.06670927  0.58387174  0.11439639  1  -0.06543  0  -0.098234  -0.140613  0  3.981973  0
C  C138  1  0.04015512  0.54698917  0.08677377  1  -0.025548  0  -0.088891  -0.06348  0  4.047788  0
C  C139  1  0.04679170  0.54142756  0.03408462  1  -0.681848  0  -0.06602  -0.22539  0  3.990305  0
C  C140  1  0.08213808  0.57386464  0.01036371  1  -0.027174  0  -0.084972  -0.057233  0  4.034976  0
C  C141  1  0.04362443  0.39036018  0.88701537  1  -0.077007  0  -0.096906  -0.140959  0  3.978777  0
C  C142  1  0.09641178  0.38192194  0.89445152  1  -0.04698  0  -0.008103  0.094187  0  4.043817  0
C  C143  1  0.12244464  0.41357687  0.92910573  1  -0.024446  0  -0.098352  -0.142787  0  3.981086  0
C  C144  1  0.09640072  0.45061356  0.95676764  1  -0.0551  0  -0.089252  -0.062567  0  4.045419  0
C  C145  1  0.04340648  0.45805992  0.95066455  1  -0.670301  0  -0.066661  -0.226549  0  3.988166  0
C  C146  1  0.01789727  0.42750818  0.91454051  1  -0.01143  0  -0.08474  -0.057068  0  4.0357  0
C  C147  1  0.60714246  0.89416910  0.96354630  1  -0.028592  0  -0.096878  -0.14076  0  3.978223  0
C  C148  1  0.62208761  0.91013977  0.91479438  1  -0.045546  0  -0.00855  0.093556  0  4.048327  0
C  C149  1  0.59584266  0.95156341  0.89272718  1  -0.094207  0  -0.098187  -0.141517  0  3.983277  0
C  C150  1  0.55737188  0.97682169  0.91896238  1  -0.066848  0  -0.088405  -0.062841  0  4.050307  0
C  C151  1  0.54313695  0.96177584  0.96814234  1  -0.586187  0  -0.066412  -0.226602  0  3.99738  0
C  C152  1  0.56865732  0.91956013  0.98959670  1  -0.092885  0  -0.085453  -0.057359  0  4.039286  0
C  C153  1  0.40251640  0.11586874  0.95087956  1  -0.006311  0  -0.098418  -0.142527  0  3.979971  0
C  C154  1  0.37841220  0.09281418  0.90876721  1  -0.066178  0  -0.008159  0.093981  0  4.045665  0
C  C155  1  0.39443224  0.04347645  0.89525465  1  -0.03646  0  -0.097328  -0.139735  0  3.980807  0
C  C156  1  0.43216170  0.01817223  0.92320202  1  -0.034371  0  -0.08594  -0.058771  0  4.040932  0
C  C157  1  0.45588459  0.04082552  0.96574954  1  -0.697929  0  -0.066548  -0.227337  0  3.993665  0
C  C158  1  0.44027739  0.09034488  0.97874766  1  -0.010121  0  -0.087453  -0.059646  0  4.044914  0
C  C159  1  0.59349189  0.06109166  0.12282291  1  -0.014888  0  -0.098692  -0.142691  0  3.981313  0
C  C160  1  0.61907589  0.10138775  0.09879829  1  3.9e-05  0  -0.007701  0.09454  0  4.046854  0
C  C161  1  0.60482542  0.11324309  0.04837857  1  -0.110668  0  -0.097315  -0.141432  0  3.981198  0
C  C162  1  0.56733323  0.08539435  0.02300445  1  0.026255  0  -0.085174  -0.05595  0  4.036658  0
C  C163  1  0.54219354  0.04453661  0.04663046  1  -0.622965  0  -0.066253  -0.22778  0  3.994839  0
C  C164  1  0.55607515  0.03321964  0.09717680  1  -0.098405  0  -0.088707  -0.061393  0  4.047975  0
C  C165  1  0.39503736  0.95656649  0.11651093  1  -0.127185  0  -0.097123  -0.140666  0  3.980957  0
C  C166  1  0.37991587  0.90763175  0.10080109  1  0.079209  0  -0.008325  0.092619  0  4.049369  0
C  C167  1  0.40552289  0.88578509  0.05931143  1  -0.039252  0  -0.097019  -0.138678  0  3.978263  0
C  C168  1  0.44344923  0.91238449  0.03375572  1  -0.052541  0  -0.088419  -0.062669  0  4.044971  0
C  C169  1  0.45777001  0.96178151  0.04855773  1  -0.657049  0  -0.066578  -0.22735  0  3.994493  0
C  C170  1  0.43295915  0.98296830  0.09085313  1  0.005018  0  -0.085738  -0.05735  0  4.040007  0
C  C171  1  0.88890569  0.95596319  0.60975693  1  -0.027383  0  -0.096889  -0.141153  0  3.980751  0
C  C172  1  0.89455161  0.90314937  0.61718592  1  -0.037381  0  -0.007999  0.094526  0  4.045519  0
C  C173  1  0.92765892  0.87669002  0.58459749  1  -0.026551  0  -0.098884  -0.143389  0  3.982144  0
C  C174  1  0.95558570  0.90230270  0.54764308  1  -0.058946  0  -0.089144  -0.0623  0  4.046757  0
C  C175  1  0.95134258  0.95525757  0.54118154  1  -0.616753  0  -0.065853  -0.224678  0  3.98661  0
C  C176  1  0.91670895  0.98128000  0.57271312  1  -0.126291  0  -0.085035  -0.057819  0  4.035402  0
C  C177  1  0.03669808  0.88919458  0.38795564  1  0.022537  0  -0.096482  -0.141264  0  3.983523  0
C  C178  1  0.08933814  0.89739144  0.38070927  1  -0.032715  0  -0.007888  0.094389  0  4.04302  0
C  C179  1  0.11442057  0.93150536  0.41365985  1  -0.029812  0  -0.098995  -0.142787  0  3.979697  0
C  C180  1  0.08756593  0.95779439  0.45102027  1  -0.053086  0  -0.088921  -0.063372  0  4.04753  0
C  C181  1  0.03469191  0.95087819  0.45743225  1  -0.594044  0  -0.066369  -0.225902  0  3.987862  0
C  C182  1  0.01014555  0.91544349  0.42537109  1  -0.12914  0  -0.085217  -0.057016  0  4.036403  0
C  C183  1  0.05758898  0.11102445  0.58692811  1  -0.015765  0  -0.097651  -0.140812  0  3.980505  0
C  C184  1  0.09227347  0.08585324  0.61961394  1  0.053434  0  -0.008302  0.093862  0  4.043556  0
C  C185  1  0.09964283  0.03322166  0.61261406  1  -0.106022  0  -0.09657  -0.141567  0  3.983366  0
C  C186  1  0.07248755  0.00685095  0.57531795  1  -0.00604  0  -0.085058  -0.057063  0  4.037343  0
C  C187  1  0.03688324  0.03164455  0.54317666  1  -0.643375  0  -0.065981  -0.225136  0  3.989909  0
C  C188  1  0.03042649  0.08437057  0.54967227  1  -0.075345  0  -0.08932  -0.06322  0  4.046321  0
C  C189  1  0.87947381  0.06266104  0.41117770  1  0.022517  0  -0.098546  -0.141786  0  3.980861  0
C  C190  1  0.90696303  0.09449556  0.37828596  1  0.010107  0  -0.008221  0.093885  0  4.045608  0
C  C191  1  0.96035101  0.09742373  0.38542893  1  -0.118311  0  -0.097197  -0.141331  0  3.979981  0
C  C192  1  0.98497987  0.06885043  0.42292842  1  -0.035764  0  -0.08458  -0.05698  0  4.03634  0
C  C193  1  0.95777672  0.03604491  0.45523158  1  -0.598462  0  -0.066953  -0.226654  0  3.990892  0
C  C194  1  0.90439965  0.03399164  0.44866264  1  -0.070649  0  -0.089034  -0.062957  0  4.047225  0
N  N195  1  0.85690752  0.72511973  0.82376378  1  -0.769145  0  -0.337213  -0.138882  0  3.764617  0
N  N196  1  0.82857668  0.73284826  0.86681611  1  -0.786764  0  -0.341187  -0.138955  0  3.782021  0
N  N197  1  0.73090074  0.83367602  0.87094900  1  -0.778879  0  -0.340703  -0.138737  0  3.784248  0
N  N198  1  0.72630538  0.86810172  0.83185278  1  -0.779018  0  -0.339111  -0.138261  0  3.776588  0
N  N199  1  0.81791636  0.86250398  0.72635107  1  -0.779765  0  -0.339549  -0.139032  0  3.777106  0
N  N200  1  0.85072991  0.82181827  0.72185473  1  -0.755881  0  -0.336742  -0.1388  0  3.766954  0
N  N201  1  0.87109655  0.27112453  0.16826796  1  -0.764911  0  -0.33846  -0.138921  0  3.774378  0
N  N202  1  0.82975718  0.27675667  0.13607065  1  -0.775048  0  -0.338482  -0.137697  0  3.774801  0
N  N203  1  0.72548129  0.18290991  0.14042980  1  -0.770188  0  -0.339603  -0.13971  0  3.777438  0
N  N204  1  0.72001215  0.15239271  0.18246968  1  -0.762044  0  -0.338354  -0.138713  0  3.769197  0
N  N205  1  0.82274585  0.14908463  0.27934090  1  -0.771153  0  -0.33886  -0.140519  0  3.769185  0
N  N206  1  0.86776302  0.17388086  0.26939479  1  -0.78498  0  -0.338969  -0.139282  0  3.772933  0
N  N207  1  0.14107851  0.72111210  0.17477142  1  -0.783978  0  -0.33779  -0.140542  0  3.772058  0
N  N208  1  0.17869219  0.72303665  0.13869745  1  -0.76549  0  -0.339394  -0.137019  0  3.774004  0
N  N209  1  0.27526412  0.82478410  0.14224111  1  -0.778895  0  -0.339067  -0.137307  0  3.773862  0
N  N210  1  0.27281464  0.86247814  0.17829401  1  -0.780179  0  -0.337444  -0.139255  0  3.768619  0
N  N211  1  0.17210115  0.85782407  0.27555968  1  -0.764244  0  -0.337802  -0.138168  0  3.770803  0
N  N212  1  0.13607019  0.81989317  0.27429780  1  -0.78876  0  -0.338219  -0.140423  0  3.771537  0
N  N213  1  0.13881354  0.27389833  0.81648075  1  -0.803418  0  -0.338031  -0.138368  0  3.770315  0
N  N214  1  0.17775275  0.27615343  0.85186703  1  -0.764275  0  -0.338861  -0.139998  0  3.771571  0
N  N215  1  0.27538805  0.17453581  0.85797989  1  -0.766683  0  -0.338348  -0.138374  0  3.771453  0
N  N216  1  0.27465790  0.13550982  0.82326401  1  -0.763273  0  -0.338442  -0.139977  0  3.772899  0
N  N217  1  0.17455119  0.13295850  0.72347473  1  -0.802191  0  -0.338356  -0.139645  0  3.771271  0
N  N218  1  0.13699290  0.16966921  0.72253669  1  -0.752394  0  -0.33689  -0.13684  0  3.76868  0
