# generated using pymatgen
data_Cd2H18C21N2O11
_symmetry_space_group_name_H-M   'P 1'
_cell_length_a   8.29262998
_cell_length_b   10.48052349
_cell_length_c   13.11625207
_cell_angle_alpha   100.17291941
_cell_angle_beta   94.29579204
_cell_angle_gamma   98.44116366
_symmetry_Int_Tables_number   1
_chemical_formula_structural   Cd2H18C21N2O11
_chemical_formula_sum   'Cd4 H36 C42 N4 O22'
_cell_volume   1103.90418850
_cell_formula_units_Z   2
loop_
 _symmetry_equiv_pos_site_id
 _symmetry_equiv_pos_as_xyz
  1  'x, y, z'
loop_
 _atom_site_type_symbol
 _atom_site_label
 _atom_site_symmetry_multiplicity
 _atom_site_fract_x
 _atom_site_fract_y
 _atom_site_fract_z
 _atom_site_occupancy
 _atom_site_hle17_bader_spin_density
 _atom_site_hle17_ddec_charge
 _atom_site_hle17_ddec_spin_density
 _atom_site_hle17_ddec_sum_bond_order
 _atom_site_hle17_magmom
 _atom_site_hse06_10hf_bader_spin_density
 _atom_site_hse06_10hf_ddec_charge
 _atom_site_hse06_10hf_ddec_spin_density
 _atom_site_hse06_10hf_ddec_sum_bond_order
 _atom_site_hse06_10hf_magmom
 _atom_site_hse06_bader_spin_density
 _atom_site_hse06_ddec_charge
 _atom_site_hse06_ddec_spin_density
 _atom_site_hse06_ddec_sum_bond_order
 _atom_site_hse06_magmom
 _atom_site_pbe_bader_spin_density
 _atom_site_pbe_cm5_charge
 _atom_site_pbe_ddec_charge
 _atom_site_pbe_ddec_spin_density
 _atom_site_pbe_ddec_sum_bond_order
 _atom_site_pbe_magmom
Cd  Cd0  1  0.52065911  0.55274335  0.79292088  1  0  1.190241  0  1.570826  0  0  1.005495  0  2.009002  0  0  1.065375  0  1.953594  0  0  0.777338  0.962715  0  2.047242  0
Cd  Cd1  1  0.47934179  0.44725809  0.20707934  1  0  1.190234  0  1.570805  0  0  1.005485  0  2.008983  0  0  1.065369  0  1.953569  0  0  0.777355  0.962706  0  2.04723  0
Cd  Cd2  1  0.86411946  0.24573916  0.11075064  1  0  1.187809  0  1.586361  0  0  1.001959  0  2.021997  0  0  1.06042  0  1.967953  0  0  0.77667  0.96022  0  2.05912  0
Cd  Cd3  1  0.13588105  0.75426031  0.88925003  1  0  1.187847  0  1.586305  0  0  1.002011  0  2.021928  0  0  1.060469  0  1.967887  0  0  0.776688  0.960275  0  2.059049  0
H  H4  1  0.16453702  0.19125541  0.21478482  1  0  0.438182  0  0.858509  0  0  0.406621  0  0.922766  0  0  0.417862  0  0.906464  0  0  0.290664  0.398666  0  0.934289  0
H  H5  1  0.83546248  0.80874505  0.78521595  1  0  0.43818  0  0.858514  0  0  0.406621  0  0.922766  0  0  0.417861  0  0.906466  0  0  0.290658  0.398665  0  0.934291  0
H  H6  1  0.07420249  0.05234440  0.14043713  1  0  0.431771  0  0.870299  0  0  0.399056  0  0.936993  0  0  0.410758  0  0.920036  0  0  0.286598  0.390775  0  0.948966  0
H  H7  1  0.92579680  0.94765508  0.85956349  1  0  0.431766  0  0.870316  0  0  0.399054  0  0.937003  0  0  0.410755  0  0.920048  0  0  0.286611  0.390771  0  0.948977  0
H  H8  1  0.72580719  0.94784719  0.00430638  1  0  0.100567  0  0.935374  0  0  0.107793  0  1.001372  0  0  0.111215  0  0.997666  0  0  0.122294  0.105251  0  1.004141  0
H  H9  1  0.27419329  0.05215230  0.99569201  1  0  0.100573  0  0.935384  0  0  0.107799  0  1.001388  0  0  0.111221  0  0.997682  0  0  0.122311  0.105257  0  1.004159  0
H  H10  1  0.31726596  0.54502694  0.55943375  1  0  0.113202  0  0.953992  0  0  0.118714  0  1.023183  0  0  0.122852  0  1.019606  0  0  0.105241  0.115681  0  1.025899  0
H  H11  1  0.68273212  0.45497254  0.44056605  1  0  0.11318  0  0.953991  0  0  0.118712  0  1.023155  0  0  0.12285  0  1.019579  0  0  0.10523  0.115673  0  1.025884  0
H  H12  1  0.87590554  0.34958356  0.65303669  1  0  0.118403  0  0.962253  0  0  0.125119  0  1.032087  0  0  0.128949  0  1.029332  0  0  0.108206  0.122353  0  1.03413  0
H  H13  1  0.12409355  0.65041494  0.34696301  1  0  0.118404  0  0.962258  0  0  0.125113  0  1.0321  0  0  0.128943  0  1.029345  0  0  0.108204  0.122343  0  1.034148  0
H  H14  1  0.42936874  0.28554246  0.64036594  1  0  0.083113  0  0.944121  0  0  0.093471  0  1.006471  0  0  0.095622  0  1.004564  0  0  0.119154  0.091859  0  1.007867  0
H  H15  1  0.57063217  0.71445898  0.35963580  1  0  0.083108  0  0.944136  0  0  0.093464  0  1.006484  0  0  0.095615  0  1.004577  0  0  0.119153  0.091856  0  1.007882  0
H  H16  1  0.05097021  0.19326881  0.36195184  1  0  0.121359  0  0.96365  0  0  0.130548  0  1.028737  0  0  0.134799  0  1.02486  0  0  0.107602  0.127449  0  1.031591  0
H  H17  1  0.94902868  0.80672870  0.63804771  1  0  0.121369  0  0.963641  0  0  0.130589  0  1.028699  0  0  0.134845  0  1.024819  0  0  0.107614  0.127492  0  1.031547  0
H  H18  1  0.59205947  0.18740194  0.26048355  1  0  0.098424  0  0.967178  0  0  0.104409  0  1.03331  0  0  0.107627  0  1.029458  0  0  0.118799  0.102077  0  1.03599  0
H  H19  1  0.40794343  0.81259756  0.73951494  1  0  0.098402  0  0.967165  0  0  0.104383  0  1.033306  0  0  0.107602  0  1.029453  0  0  0.118785  0.102056  0  1.035983  0
H  H20  1  0.32709856  0.79245911  0.16269450  1  0  0.105517  0  0.961035  0  0  0.11524  0  1.024038  0  0  0.118387  0  1.020707  0  0  0.110554  0.112892  0  1.026468  0
H  H21  1  0.67290395  0.20754431  0.83730455  1  0  0.105533  0  0.960961  0  0  0.115266  0  1.023957  0  0  0.118413  0  1.020622  0  0  0.110552  0.112918  0  1.026389  0
H  H22  1  0.22836473  0.07254821  0.60816564  1  0  0.110101  0  0.959677  0  0  0.116718  0  1.02164  0  0  0.120596  0  1.020274  0  0  0.107699  0.113879  0  1.022909  0
H  H23  1  0.77163597  0.92745224  0.39183518  1  0  0.110149  0  0.959663  0  0  0.116747  0  1.021641  0  0  0.120625  0  1.020276  0  0  0.107719  0.113913  0  1.022906  0
H  H24  1  0.03243167  0.03666029  0.74001404  1  0  0.105248  0  0.958578  0  0  0.117089  0  1.017746  0  0  0.120499  0  1.014201  0  0  0.110977  0.11444  0  1.020508  0
H  H25  1  0.96756822  0.96334214  0.25998551  1  0  0.105264  0  0.958607  0  0  0.117116  0  1.017756  0  0  0.120522  0  1.014216  0  0  0.110993  0.114466  0  1.020519  0
H  H26  1  0.23523348  0.42343919  0.91271410  1  0  0.101828  0  0.940155  0  0  0.106596  0  1.009584  0  0  0.110318  0  1.005269  0  0  0.121106  0.103785  0  1.012916  0
H  H27  1  0.76476500  0.57656226  0.08728601  1  0  0.101845  0  0.940155  0  0  0.10662  0  1.009565  0  0  0.110341  0  1.005252  0  0  0.121129  0.103813  0  1.01289  0
H  H28  1  0.36931602  0.01273403  0.28549482  1  0  0.101665  0  0.946435  0  0  0.11376  0  1.001226  0  0  0.116949  0  1.000575  0  0  0.108861  0.111366  0  1.002086  0
H  H29  1  0.63068730  0.98726741  0.71450551  1  0  0.101652  0  0.946435  0  0  0.113752  0  1.001217  0  0  0.116941  0  1.000566  0  0  0.108848  0.111358  0  1.002076  0
H  H30  1  0.58855114  0.08417043  0.49961186  1  0  0.081615  0  0.951622  0  0  0.100305  0  1.015679  0  0  0.10078  0  1.015493  0  0  0.10049  0.099896  0  1.015844  0
H  H31  1  0.41144895  0.91582710  0.50038698  1  0  0.081659  0  0.951608  0  0  0.100346  0  1.015666  0  0  0.100821  0  1.01548  0  0  0.100517  0.099943  0  1.015827  0
H  H32  1  0.64406749  0.25860774  0.54577635  1  0  0.101012  0  0.946553  0  0  0.117091  0  1.012012  0  0  0.118356  0  1.010646  0  0  0.103736  0.116082  0  1.013095  0
H  H33  1  0.35593119  0.74138880  0.45422305  1  0  0.101016  0  0.946604  0  0  0.117096  0  1.012059  0  0  0.118359  0  1.010696  0  0  0.103734  0.116084  0  1.013143  0
H  H34  1  0.71975401  0.14614605  0.61869447  1  0  0.079144  0  0.942239  0  0  0.097432  0  1.006279  0  0  0.097763  0  1.006089  0  0  0.096496  0.097204  0  1.006375  0
H  H35  1  0.28024346  0.85385049  0.38130411  1  0  0.079134  0  0.942291  0  0  0.097465  0  1.006284  0  0  0.097797  0  1.006094  0  0  0.096509  0.097232  0  1.00639  0
H  H36  1  0.73482315  0.41644587  0.90684350  1  0  0.435031  0  0.855423  0  0  0.405878  0  0.916002  0  0  0.416295  0  0.900795  0  0  0.294981  0.398428  0  0.926907  0
H  H37  1  0.26517735  0.58355361  0.09315641  1  0  0.435021  0  0.855436  0  0  0.405865  0  0.916021  0  0  0.416282  0  0.900814  0  0  0.294969  0.39842  0  0.926918  0
H  H38  1  0.83961282  0.47785450  0.82327158  1  0  0.443531  0  0.848069  0  0  0.411773  0  0.911984  0  0  0.422889  0  0.895792  0  0  0.296154  0.403871  0  0.923497  0
H  H39  1  0.16038768  0.52214498  0.17672833  1  0  0.443545  0  0.848053  0  0  0.411784  0  0.911971  0  0  0.422901  0  0.895777  0  0  0.296153  0.403883  0  0.923484  0
C  C40  1  0.49358149  0.73122241  0.99183722  1  0  0.637945  0  3.95201  0  0  0.583318  0  4.249163  0  0  0.61807  0  4.244716  0  0  0.200266  0.559649  0  4.251781  0
C  C41  1  0.50641799  0.26877807  0.00816127  1  0  0.63793  0  3.951973  0  0  0.583318  0  4.249094  0  0  0.618069  0  4.24465  0  0  0.200284  0.559645  0  4.251707  0
C  C42  1  0.64554655  0.95782153  0.06635883  1  0  0.126717  0  3.676082  0  0  0.082945  0  3.929472  0  0  0.09316  0  3.947402  0  0  0.052659  0.076393  0  3.917249  0
C  C43  1  0.35445515  0.04217796  0.93364037  1  0  0.126761  0  3.676051  0  0  0.082958  0  3.929476  0  0  0.093172  0  3.947406  0  0  0.052677  0.076409  0  3.917257  0
C  C44  1  0.21549712  0.46397311  0.54513779  1  0  -0.084376  0  3.708652  0  0  -0.127449  0  3.967666  0  0  -0.125595  0  3.986628  0  0  -0.085188  -0.128366  0  3.954828  0
C  C45  1  0.78450076  0.53602540  0.45486110  1  0  -0.084375  0  3.708628  0  0  -0.127466  0  3.967636  0  0  -0.125605  0  3.986582  0  0  -0.085206  -0.128384  0  3.95481  0
C  C46  1  0.10127170  0.45354640  0.61723724  1  0  -0.055959  0  3.804806  0  0  -0.028753  0  4.040336  0  0  -0.03754  0  4.065014  0  0  -0.022373  -0.023158  0  4.023811  0
C  C47  1  0.89872618  0.54645210  0.38276318  1  0  -0.055992  0  3.804805  0  0  -0.028783  0  4.040325  0  0  -0.037571  0  4.065007  0  0  -0.022386  -0.023192  0  4.023813  0
C  C48  1  0.52290674  0.85413540  0.07408550  1  0  -0.125717  0  3.750153  0  0  -0.097619  0  3.986432  0  0  -0.112209  0  4.011728  0  0  -0.016399  -0.088366  0  3.969606  0
C  C49  1  0.47709276  0.14586505  0.92591527  1  0  -0.125666  0  3.750082  0  0  -0.097528  0  3.986298  0  0  -0.112118  0  4.011593  0  0  -0.016345  -0.088279  0  3.969481  0
C  C50  1  0.00818609  0.21327177  0.92065138  1  0  0.640417  0  3.93691  0  0  0.587819  0  4.229414  0  0  0.622839  0  4.224169  0  0  0.201944  0.564184  0  4.232054  0
C  C51  1  0.99181360  0.78672968  0.07934878  1  0  0.640417  0  3.936865  0  0  0.587817  0  4.22938  0  0  0.622839  0  4.224133  0  0  0.201966  0.564191  0  4.232021  0
C  C52  1  0.96637600  0.35176619  0.59719588  1  0  -0.182723  0  3.706132  0  0  -0.219379  0  3.961031  0  0  -0.22114  0  3.981013  0  0  -0.096019  -0.217879  0  3.947572  0
C  C53  1  0.03362309  0.64823231  0.40280383  1  0  -0.182734  0  3.706126  0  0  -0.219388  0  3.961027  0  0  -0.221148  0  3.981009  0  0  -0.096014  -0.217887  0  3.947578  0
C  C54  1  0.12145302  0.55312779  0.71526800  1  0  0.651039  0  3.896817  0  0  0.595706  0  4.187613  0  0  0.630433  0  4.182374  0  0  0.203925  0.572148  0  4.190344  0
C  C55  1  0.87854607  0.44687072  0.28473095  1  0  0.651051  0  3.896787  0  0  0.595712  0  4.187581  0  0  0.630438  0  4.18235  0  0  0.203918  0.572157  0  4.190311  0
C  C56  1  0.33920790  0.26477309  0.69405222  1  0  0.133899  0  3.701939  0  0  0.101362  0  3.952624  0  0  0.109349  0  3.972919  0  0  0.051298  0.09629  0  3.938669  0
C  C57  1  0.66079180  0.73522835  0.30594871  1  0  0.133877  0  3.701937  0  0  0.101346  0  3.952606  0  0  0.109333  0  3.972903  0  0  0.051295  0.09628  0  3.938666  0
C  C58  1  0.11787107  0.22796738  0.83607007  1  0  -0.107874  0  3.728887  0  0  -0.080288  0  3.965558  0  0  -0.093145  0  3.988606  0  0  -0.010391  -0.07228  0  3.950239  0
C  C59  1  0.88212982  0.77203407  0.16392862  1  0  -0.107848  0  3.728839  0  0  -0.080264  0  3.965528  0  0  -0.093122  0  3.988576  0  0  -0.010357  -0.072253  0  3.950195  0
C  C60  1  0.06785202  0.26533524  0.43434095  1  0  -0.162337  0  3.671285  0  0  -0.200847  0  3.923519  0  0  -0.201337  0  3.939866  0  0  -0.091363  -0.200098  0  3.912487  0
C  C61  1  0.93214586  0.73466326  0.56565870  1  0  -0.162406  0  3.671373  0  0  -0.200944  0  3.923584  0  0  -0.201441  0  3.939938  0  0  -0.091415  -0.200201  0  3.912542  0
C  C62  1  0.31183832  0.39067790  0.37185653  1  0  0.646479  0  3.893522  0  0  0.595884  0  4.180554  0  0  0.630707  0  4.174292  0  0  0.199493  0.572305  0  4.1839  0
C  C63  1  0.68816097  0.60932158  0.62814333  1  0  0.646517  0  3.893622  0  0  0.595934  0  4.180638  0  0  0.630757  0  4.174376  0  0  0.199556  0.572354  0  4.183989  0
C  C64  1  0.95051193  0.25801727  0.50547841  1  0  0.258392  0  3.809625  0  0  0.256543  0  4.068435  0  0  0.264303  0  4.085655  0  0  0.080028  0.250783  0  4.056899  0
C  C65  1  0.04948857  0.74198221  0.49452226  1  0  0.258415  0  3.809519  0  0  0.256579  0  4.06834  0  0  0.264339  0  4.08556  0  0  0.080007  0.250818  0  4.056801  0
C  C66  1  0.56991296  0.09149651  0.20943059  1  0  0.145805  0  3.667915  0  0  0.109418  0  3.92174  0  0  0.119458  0  3.938361  0  0  0.049928  0.103159  0  3.910221  0
C  C67  1  0.43009015  0.90850396  0.79056806  1  0  0.145774  0  3.667833  0  0  0.109396  0  3.921658  0  0  0.119435  0  3.938281  0  0  0.049914  0.103139  0  3.910121  0
C  C68  1  0.42213047  0.87231153  0.15453916  1  0  0.006307  0  3.686278  0  0  -0.025855  0  3.936371  0  0  -0.018711  0  3.952987  0  0  -0.057805  -0.029922  0  3.924728  0
C  C69  1  0.57787123  0.12768795  0.84546004  1  0  0.006229  0  3.686375  0  0  -0.025943  0  3.936446  0  0  -0.018796  0  3.953058  0  0  -0.057837  -0.030006  0  3.924793  0
C  C70  1  0.22805517  0.14827811  0.67663567  1  0  -0.118006  0  3.73202  0  0  -0.127585  0  3.987106  0  0  -0.136417  0  4.009437  0  0  -0.081075  -0.122055  0  3.972245  0
C  C71  1  0.77194452  0.85172335  0.32336373  1  0  -0.118027  0  3.732087  0  0  -0.127594  0  3.987177  0  0  -0.136426  0  4.009505  0  0  -0.081085  -0.122061  0  3.972318  0
C  C72  1  0.19820981  0.37022524  0.45306757  1  0  -0.043239  0  3.770407  0  0  -0.016745  0  4.008017  0  0  -0.024261  0  4.030102  0  0  -0.017633  -0.012059  0  3.993156  0
C  C73  1  0.80178947  0.62977425  0.54693153  1  0  -0.043234  0  3.770462  0  0  -0.016739  0  4.00806  0  0  -0.024255  0  4.030149  0  0  -0.017636  -0.012049  0  3.993189  0
C  C74  1  0.11692439  0.12889790  0.74926393  1  0  -0.003445  0  3.6693  0  0  -0.034342  0  3.914907  0  0  -0.028364  0  3.931701  0  0  -0.058903  -0.037761  0  3.903379  0
C  C75  1  0.88307430  0.87110453  0.25073633  1  0  -0.003512  0  3.669414  0  0  -0.034422  0  3.915035  0  0  -0.028438  0  3.931826  0  0  -0.058949  -0.037841  0  3.903511  0
C  C76  1  0.23129474  0.34347555  0.84663594  1  0  0.136571  0  3.658345  0  0  0.092133  0  3.913166  0  0  0.10197  0  3.929646  0  0  0.056961  0.085801  0  3.902041  0
C  C77  1  0.76870495  0.65652590  0.15336422  1  0  0.136586  0  3.658276  0  0  0.092153  0  3.913094  0  0  0.101991  0  3.929576  0  0  0.056954  0.085822  0  3.901946  0
C  C78  1  0.44658021  0.99278796  0.22289751  1  0  -0.118953  0  3.728895  0  0  -0.12876  0  3.983435  0  0  -0.137991  0  4.004649  0  0  -0.08257  -0.123047  0  3.969207  0
C  C79  1  0.55342371  0.00721643  0.77710327  1  0  -0.118952  0  3.729006  0  0  -0.128764  0  3.983531  0  0  -0.137995  0  4.004746  0  0  -0.082575  -0.123048  0  3.969285  0
C  C80  1  0.68619187  0.16291786  0.53981996  1  0  -0.082273  0  3.652647  0  0  -0.176332  0  3.913011  0  0  -0.169982  0  3.917107  0  0  -0.139158  -0.180464  0  3.91004  0
C  C81  1  0.31380642  0.83708260  0.46018076  1  0  -0.082371  0  3.652845  0  0  -0.176449  0  3.913208  0  0  -0.170099  0  3.917303  0  0  -0.139206  -0.180584  0  3.910242  0
N  N82  1  0.34076282  0.36033423  0.77794436  1  0  -0.356056  0  3.298489  0  0  -0.27154  0  3.565165  0  0  -0.295496  0  3.58636  0  0  -0.334566  -0.255236  0  3.550358  0
N  N83  1  0.65923667  0.63966623  0.22205641  1  0  -0.356061  0  3.298505  0  0  -0.271544  0  3.56517  0  0  -0.295499  0  3.586362  0  0  -0.334556  -0.255238  0  3.550368  0
N  N84  1  0.66782263  0.07426183  0.13210690  1  0  -0.353551  0  3.27223  0  0  -0.268581  0  3.539073  0  0  -0.292859  0  3.559665  0  0  -0.330071  -0.252043  0  3.524667  0
N  N85  1  0.33217926  0.92573865  0.86789169  1  0  -0.353532  0  3.272214  0  0  -0.268558  0  3.539061  0  0  -0.292836  0  3.559656  0  0  -0.330054  -0.252011  0  3.524642  0
O  O86  1  0.82056791  0.15688113  0.47773897  1  0  -0.257817  0  2.321918  0  0  -0.183797  0  2.554853  0  0  -0.200799  0  2.557327  0  0  -0.193865  -0.171603  0  2.55273  0
O  O87  1  0.17943259  0.84311835  0.52226094  1  0  -0.25773  0  2.321978  0  0  -0.183749  0  2.554949  0  0  -0.20075  0  2.557423  0  0  -0.193832  -0.171551  0  2.552822  0
O  O88  1  0.05801600  0.13833640  0.18176191  1  0  -0.865743  0  1.875976  0  0  -0.803397  0  2.078989  0  0  -0.826709  0  2.042674  0  0  -0.593238  -0.786813  0  2.104225  0
O  O89  1  0.94198370  0.86166504  0.81823901  1  0  -0.865743  0  1.876003  0  0  -0.803407  0  2.079029  0  0  -0.82672  0  2.042716  0  0  -0.593262  -0.786843  0  2.104278  0
O  O90  1  0.35876453  0.65235114  0.98432295  1  0  -0.675051  0  1.997764  0  0  -0.609443  0  2.239876  0  0  -0.636658  0  2.227694  0  0  -0.32285  -0.590204  0  2.248188  0
O  O91  1  0.64123616  0.34764933  0.01567635  1  0  -0.675061  0  1.997698  0  0  -0.609466  0  2.239806  0  0  -0.63668  0  2.227621  0  0  -0.322852  -0.59021  0  2.248109  0
O  O92  1  0.25873662  0.63073397  0.74197631  1  0  -0.687147  0  2.052081  0  0  -0.614771  0  2.312714  0  0  -0.645271  0  2.30071  0  0  -0.327679  -0.593326  0  2.320277  0
O  O93  1  0.74126266  0.36926552  0.25802278  1  0  -0.687067  0  2.052024  0  0  -0.614684  0  2.312648  0  0  -0.645185  0  2.300647  0  0  -0.327609  -0.593224  0  2.320202  0
O  O94  1  0.00268952  0.56225236  0.77117793  1  0  -0.63219  0  2.006899  0  0  -0.554931  0  2.237283  0  0  -0.584361  0  2.228311  0  0  -0.310013  -0.534429  0  2.242807  0
O  O95  1  0.99731199  0.43774613  0.22882265  1  0  -0.632193  0  2.006893  0  0  -0.554949  0  2.237321  0  0  -0.584377  0  2.228343  0  0  -0.310017  -0.534453  0  2.242848  0
O  O96  1  0.92744389  0.10169509  0.92478518  1  0  -0.651005  0  1.979722  0  0  -0.589417  0  2.21086  0  0  -0.61776  0  2.202271  0  0  -0.316644  -0.569507  0  2.216022  0
O  O97  1  0.07255822  0.89830635  0.07521509  1  0  -0.651047  0  1.979694  0  0  -0.589451  0  2.210821  0  0  -0.617793  0  2.20223  0  0  -0.316663  -0.569534  0  2.215982  0
O  O98  1  0.00416236  0.31751276  0.98689297  1  0  -0.612082  0  1.987348  0  0  -0.543333  0  2.22836  0  0  -0.573412  0  2.2179  0  0  -0.319881  -0.522284  0  2.234822  0
O  O99  1  0.99583955  0.68248771  0.01310715  1  0  -0.612049  0  1.987305  0  0  -0.543314  0  2.228329  0  0  -0.573392  0  2.217868  0  0  -0.319923  -0.522306  0  2.234813  0
O  O100  1  0.60405875  0.71671846  0.93032676  1  0  -0.612661  0  2.016588  0  0  -0.545223  0  2.267976  0  0  -0.57578  0  2.258987  0  0  -0.314561  -0.524012  0  2.273752  0
O  O101  1  0.39594073  0.28328203  0.06967097  1  0  -0.612625  0  2.016564  0  0  -0.545214  0  2.267961  0  0  -0.57577  0  2.258976  0  0  -0.314561  -0.523992  0  2.273731  0
O  O102  1  0.39455393  0.50457404  0.37777484  1  0  -0.629694  0  1.947867  0  0  -0.567414  0  2.189727  0  0  -0.5967  0  2.181441  0  0  -0.320886  -0.54681  0  2.1946  0
O  O103  1  0.60544294  0.49542545  0.62222415  1  0  -0.629715  0  1.947883  0  0  -0.567451  0  2.189757  0  0  -0.596735  0  2.181466  0  0  -0.32093  -0.546874  0  2.194646  0
O  O104  1  0.32092619  0.29547751  0.29696166  1  0  -0.667651  0  1.981504  0  0  -0.597654  0  2.213306  0  0  -0.626953  0  2.202582  0  0  -0.329382  -0.576977  0  2.219933  0
O  O105  1  0.67907410  0.70452099  0.70303810  1  0  -0.667632  0  1.981603  0  0  -0.597649  0  2.213412  0  0  -0.626947  0  2.20269  0  0  -0.329388  -0.576977  0  2.220043  0
O  O106  1  0.73099338  0.43301995  0.83508663  1  0  -0.845823  0  1.844121  0  0  -0.786763  0  2.035496  0  0  -0.809177  0  2.001438  0  0  -0.587635  -0.770919  0  2.059327  0
O  O107  1  0.26900611  0.56698053  0.16491262  1  0  -0.845829  0  1.844124  0  0  -0.786763  0  2.035498  0  0  -0.809178  0  2.001441  0  0  -0.58762  -0.770922  0  2.059324  0
