# generated using pymatgen
data_CuH8C12(NO3)2
_symmetry_space_group_name_H-M   'P 1'
_cell_length_a   3.74036618
_cell_length_b   12.07942130
_cell_length_c   12.49275155
_cell_angle_alpha   90.00008151
_cell_angle_beta   89.99916171
_cell_angle_gamma   92.77111412
_symmetry_Int_Tables_number   1
_chemical_formula_structural   CuH8C12(NO3)2
_chemical_formula_sum   'Cu2 H16 C24 N4 O12'
_cell_volume   563.78070591
_cell_formula_units_Z   2
loop_
 _symmetry_equiv_pos_site_id
 _symmetry_equiv_pos_as_xyz
  1  'x, y, z'
loop_
 _atom_site_type_symbol
 _atom_site_label
 _atom_site_symmetry_multiplicity
 _atom_site_fract_x
 _atom_site_fract_y
 _atom_site_fract_z
 _atom_site_occupancy
 _atom_site_hle17_ddec_charge
 _atom_site_hle17_ddec_spin_density
 _atom_site_hle17_ddec_sum_bond_order
 _atom_site_hle17_magmom
 _atom_site_hse06_10hf_ddec_charge
 _atom_site_hse06_10hf_ddec_spin_density
 _atom_site_hse06_10hf_ddec_sum_bond_order
 _atom_site_hse06_10hf_magmom
 _atom_site_hse06_ddec_charge
 _atom_site_hse06_ddec_spin_density
 _atom_site_hse06_ddec_sum_bond_order
 _atom_site_hse06_magmom
 _atom_site_pbe_cm5_charge
 _atom_site_pbe_ddec_charge
 _atom_site_pbe_ddec_spin_density
 _atom_site_pbe_ddec_sum_bond_order
 _atom_site_pbe_magmom
Cu  Cu0  1  0.99999717  0.99999720  0.49999884  1  0.957361  0.684383  1.785257  0.513  0.952643  0.781062  2.207714  0.636  1.05211  0.845652  2.125784  0.725  0.700898  0.882984  0.73306  2.275287  0.575
Cu  Cu1  1  0.00000327  0.50000378  0.00000115  1  0.957535  0.684403  1.785247  0.513  0.952786  0.781076  2.207684  0.636  1.052228  0.845665  2.125763  0.725  0.700894  0.883138  0.733078  2.27525  0.575
H  H2  1  0.78780658  0.29054308  0.80484518  1  0.127631  2.4e-05  0.951851  0.0  0.132666  1.8e-05  1.016113  0.0  0.137382  -3.7e-05  1.013127  0.0  0.114866  0.129273  0.000102  1.018331  0.0
H  H3  1  0.21220824  0.20946779  0.30483965  1  0.127773  2.5e-05  0.951673  0.0  0.132786  1.8e-05  1.015952  0.0  0.1375  -3.7e-05  1.012966  0.0  0.114922  0.129395  0.000102  1.018173  0.0
H  H4  1  0.21216744  0.70945270  0.19515720  1  0.127657  2.1e-05  0.951744  0.0  0.132665  1.8e-05  1.016036  0.0  0.13738  -3.7e-05  1.013052  0.0  0.114884  0.129271  0.000102  1.018255  0.0
H  H5  1  0.78779475  0.79053862  0.69515392  1  0.127707  1.9e-05  0.951773  0.0  0.132726  1.8e-05  1.016059  0.0  0.137439  -3.7e-05  1.013076  0.0  0.114902  0.129338  0.000102  1.018277  0.0
H  H6  1  0.22625609  0.00215482  0.93902082  1  0.119902  0.000259  0.945366  0.0  0.12942  0.000196  1.003728  0.0  0.132381  0.000127  1.002948  0.0  0.117036  0.127268  0.000264  1.004496  0.0
H  H7  1  0.77373981  0.49784791  0.43903083  1  0.119964  0.00026  0.94532  0.0  0.129484  0.000196  1.003651  0.0  0.132447  0.000127  1.002866  0.0  0.117041  0.127329  0.000264  1.004419  0.0
H  H8  1  0.77371207  0.99783850  0.06097275  1  0.119904  0.000264  0.945337  0.0  0.129429  0.000196  1.003685  0.0  0.132391  0.000127  1.002903  0.0  0.117064  0.127277  0.000264  1.004447  0.0
H  H9  1  0.22626730  0.50215267  0.56097395  1  0.119926  0.000258  0.945314  0.0  0.129399  0.000196  1.00373  0.0  0.132361  0.000127  1.002947  0.0  0.117003  0.127244  0.000264  1.004495  0.0
H  H10  1  0.34281028  0.90411552  0.76989192  1  0.125985  -6.6e-05  0.942991  0.0  0.13355  0.000121  1.005496  0.0  0.137469  6.8e-05  1.001316  0.0  0.133929  0.130507  0.000185  1.008875  0.0
H  H11  1  0.65720408  0.59589962  0.26990348  1  0.126025  -6.9e-05  0.942934  0.0  0.133577  0.000121  1.005446  0.0  0.137495  6.8e-05  1.001267  0.0  0.133924  0.130527  0.000184  1.008831  0.0
H  H12  1  0.65719278  0.09587845  0.23010485  1  0.125998  -6.3e-05  0.943069  0.0  0.133539  0.000121  1.005587  0.0  0.137461  6.8e-05  1.001403  0.0  0.133926  0.130491  0.000184  1.008973  0.0
H  H13  1  0.34282545  0.40410583  0.73010050  1  0.12607  -6.8e-05  0.943051  0.0  0.133605  0.000121  1.005565  0.0  0.137528  6.8e-05  1.001387  0.0  0.133956  0.130554  0.000185  1.008952  0.0
H  H14  1  0.46972628  0.20206886  0.96045765  1  0.125736  2.2e-05  0.945074  0.0  0.132327  6.3e-05  1.00589  0.0  0.136853  2.4e-05  1.001517  0.0  0.113609  0.128842  0.000107  1.009357  0.0
H  H15  1  0.53026290  0.29793226  0.46045565  1  0.125777  3.3e-05  0.945093  0.0  0.132364  6.2e-05  1.005905  0.0  0.136892  2.4e-05  1.001527  0.0  0.113618  0.128877  0.000107  1.009372  0.0
H  H16  1  0.53021569  0.79792708  0.03953992  1  0.125642  2.8e-05  0.94514  0.0  0.132284  6.3e-05  1.005922  0.0  0.136813  2.4e-05  1.001542  0.0  0.1136  0.128803  0.000108  1.009392  0.0
H  H17  1  0.46974655  0.70206665  0.53954193  1  0.125802  2e-05  0.945007  0.0  0.132374  6.3e-05  1.005851  0.0  0.136902  2.4e-05  1.001477  0.0  0.113635  0.128891  0.000107  1.009319  0.0
C  C18  1  0.73873494  0.14760771  0.70517139  1  -0.019379  -0.001357  3.63628  0.0  -0.024508  -0.000371  3.881661  0.001  -0.023733  -0.000887  3.899199  0.0  0.10124  -0.025432  0.000117  3.870472  0.001
C  C19  1  0.26129237  0.35240139  0.20517465  1  -0.019451  -0.001438  3.636005  0.0  -0.02464  -0.000373  3.881465  0.001  -0.023866  -0.000883  3.899006  0.0  0.101085  -0.025569  0.000117  3.870279  0.001
C  C20  1  0.26127096  0.85238707  0.29482939  1  -0.019326  -0.001381  3.636724  0.0  -0.024386  -0.000371  3.882032  0.001  -0.023612  -0.000884  3.899573  0.0  0.101226  -0.02531  0.000119  3.870841  0.001
C  C21  1  0.73871044  0.64760419  0.79482773  1  -0.019434  -0.001376  3.636183  0.0  -0.024576  -0.000374  3.881583  0.001  -0.023795  -0.000886  3.899126  0.0  0.101127  -0.025504  0.000116  3.870402  0.001
C  C22  1  0.92952183  0.20768778  0.61361152  1  0.620228  -0.006608  3.933642  -0.006  0.5783  -0.00112  4.235723  -0.001  0.615539  -0.000899  4.227115  -0.001  0.208768  0.552765  -0.001288  4.240451  -0.002
C  C23  1  0.07050476  0.29232212  0.11362034  1  0.620331  -0.006584  3.933621  -0.006  0.578469  -0.001122  4.235597  -0.001  0.615709  -0.000899  4.226989  -0.001  0.20885  0.552935  -0.00129  4.24033  -0.002
C  C24  1  0.07048134  0.79231947  0.38639486  1  0.619665  -0.00662  3.934235  -0.006  0.577704  -0.001123  4.236346  -0.001  0.614944  -0.000901  4.227751  -0.001  0.208529  0.55217  -0.001291  4.241064  -0.002
C  C25  1  0.92950136  0.70769921  0.88637964  1  0.62021  -0.0066  3.934076  -0.006  0.578299  -0.001117  4.236105  -0.001  0.61552  -0.000896  4.22752  -0.001  0.208896  0.552769  -0.001284  4.240846  -0.002
C  C26  1  0.68481130  0.20494047  0.80047241  1  -0.093956  -0.000722  3.714326  0.0  -0.113485  -0.000358  3.966082  0.0  -0.118456  -0.000417  3.98468  0.0  -0.070393  -0.110524  -0.000206  3.954315  0.0
C  C27  1  0.31521744  0.29507199  0.30046815  1  -0.094097  -0.000661  3.7144  0.0  -0.113625  -0.000359  3.966249  0.0  -0.118603  -0.000416  3.984858  0.0  -0.070423  -0.110667  -0.000206  3.954481  0.0
C  C28  1  0.31517643  0.79505690  0.19953077  1  -0.093886  -0.000686  3.714249  0.0  -0.113435  -0.000358  3.966032  0.0  -0.118407  -0.000417  3.984633  0.0  -0.07034  -0.110475  -0.000206  3.954269  0.0
C  C29  1  0.68479072  0.70493357  0.69952463  1  -0.09408  -0.000712  3.714584  0.0  -0.113624  -0.000359  3.966386  0.0  -0.118598  -0.000414  3.984992  0.0  -0.070459  -0.110667  -0.000206  3.954621  0.0
C  C30  1  0.37514735  0.04640601  0.87632016  1  -0.07935  9.4e-05  3.723872  0.001  -0.092336  0.000665  3.979352  0.001  -0.097809  0.000477  3.998028  0.001  -0.068035  -0.089087  0.000847  3.96733  0.001
C  C31  1  0.62486651  0.45360407  0.37632036  1  -0.079392  0.000131  3.724048  0.001  -0.092361  0.000666  3.979459  0.001  -0.097821  0.000477  3.998115  0.001  -0.068006  -0.089118  0.000846  3.967434  0.001
C  C32  1  0.62483399  0.95358641  0.12367741  1  -0.079187  8.8e-05  3.723811  0.001  -0.092182  0.000666  3.979282  0.001  -0.097652  0.000476  3.997942  0.001  -0.068012  -0.088924  0.000847  3.967251  0.001
C  C33  1  0.37513916  0.54640233  0.62367561  1  -0.079295  8e-05  3.723555  0.001  -0.09225  0.000665  3.978983  0.001  -0.097719  0.00048  3.99765  0.001  -0.06796  -0.089004  0.000847  3.966953  0.001
C  C34  1  0.43479156  0.98959066  0.78283529  1  0.036269  0.003957  3.573067  0.004  -0.009108  0.00283  3.836665  0.003  -0.000279  0.001794  3.845738  0.002  0.044948  -0.015123  0.003699  3.831213  0.004
C  C35  1  0.56523146  0.51041781  0.28284393  1  0.036302  0.003934  3.573106  0.004  -0.009055  0.002829  3.836697  0.003  -0.000228  0.001794  3.845762  0.002  0.04501  -0.015073  0.003699  3.83124  0.004
C  C36  1  0.56520900  0.01040415  0.21716309  1  0.036193  0.003954  3.573021  0.004  -0.009115  0.00283  3.836521  0.003  -0.000306  0.001795  3.845637  0.002  0.044974  -0.015133  0.0037  3.831067  0.004
C  C37  1  0.43478332  0.48958108  0.71716485  1  0.036092  0.003979  3.572948  0.004  -0.009196  0.00283  3.836389  0.003  -0.000388  0.001789  3.845491  0.002  0.044928  -0.015209  0.003698  3.830931  0.004
C  C38  1  0.50541483  0.15592841  0.88690449  1  -0.000449  0.000794  3.667687  0.001  -0.025177  0.000377  3.924983  0.0  -0.018941  -5.3e-05  3.936895  0.0  -0.064197  -0.029349  0.000829  3.917462  0.001
C  C39  1  0.49459428  0.34407423  0.38690271  1  -0.000554  0.000736  3.667626  0.001  -0.025258  0.000378  3.924906  0.0  -0.019024  -5.6e-05  3.936817  0.0  -0.06428  -0.029429  0.000829  3.917381  0.001
C  C40  1  0.49455618  0.84406572  0.11309389  1  -0.000486  0.000771  3.667685  0.001  -0.025253  0.000378  3.924999  0.0  -0.019015  -5.2e-05  3.936914  0.0  -0.064248  -0.029433  0.00083  3.917482  0.001
C  C41  1  0.50542085  0.65592631  0.61310047  1  -0.000626  0.000809  3.667908  0.001  -0.025341  0.000377  3.925213  0.0  -0.019108  -5.8e-05  3.937125  0.0  -0.064336  -0.029512  0.000828  3.91769  0.001
N  N42  1  0.61525369  0.03893972  0.69958354  1  0.233896  -0.001257  3.663207  -0.002  0.288883  0.001071  3.927706  0.0  0.289798  0.000862  3.951292  0.001  -0.110669  0.287675  0.001352  3.911176  0.0
N  N43  1  0.38478046  0.46107516  0.19958561  1  0.233933  -0.001186  3.662671  -0.002  0.288889  0.001069  3.927203  0.0  0.289801  0.000866  3.950792  0.001  -0.110676  0.287682  0.001352  3.910667  0.0
N  N44  1  0.38475204  0.96105424  0.30041803  1  0.233793  -0.001228  3.663283  -0.002  0.288737  0.001067  3.927802  0.0  0.289649  0.000861  3.951389  0.001  -0.110776  0.287531  0.001351  3.911269  0.0
N  N45  1  0.61522840  0.53893372  0.80041356  1  0.234043  -0.001246  3.663016  -0.002  0.288977  0.001066  3.927514  0.0  0.289891  0.000867  3.951093  0.001  -0.110622  0.287769  0.001352  3.910982  0.0
O  O46  1  0.07162580  0.15306083  0.53691369  1  -0.597153  0.077294  2.098092  0.108  -0.573277  0.049525  2.396537  0.075  -0.616336  0.036515  2.382927  0.061  -0.334262  -0.542939  0.058288  2.405829  0.084
O  O47  1  0.92838459  0.34694331  0.03691961  1  -0.597318  0.077283  2.098145  0.108  -0.573442  0.049512  2.396559  0.075  -0.616491  0.036508  2.382933  0.061  -0.334299  -0.543105  0.058275  2.405855  0.084
O  O48  1  0.92836623  0.84693154  0.46308628  1  -0.59678  0.077274  2.098798  0.108  -0.572842  0.049504  2.397172  0.075  -0.61589  0.036505  2.383562  0.061  -0.334105  -0.542512  0.058264  2.406463  0.084
O  O49  1  0.07161840  0.65306311  0.96308197  1  -0.597199  0.077324  2.097789  0.108  -0.573331  0.049522  2.396265  0.075  -0.616383  0.036515  2.382655  0.061  -0.334303  -0.542988  0.058286  2.405559  0.084
O  O50  1  0.64612086  0.97435558  0.61347580  1  -0.515436  0.073204  1.922851  0.103  -0.513384  0.050454  2.236208  0.078  -0.553972  0.036859  2.230264  0.063  -0.239452  -0.484268  0.059533  2.240303  0.086
O  O51  1  0.35390288  0.52565529  0.11347499  1  -0.515474  0.0732  1.922821  0.103  -0.513351  0.05045  2.236145  0.078  -0.553918  0.036855  2.230173  0.063  -0.239431  -0.484233  0.059532  2.24023  0.086
O  O52  1  0.35389305  0.02563916  0.38652498  1  -0.515286  0.073195  1.9228  0.103  -0.51324  0.050453  2.236153  0.078  -0.553813  0.03686  2.230186  0.063  -0.239367  -0.484119  0.05953  2.240237  0.086
O  O53  1  0.64610830  0.47435191  0.88652338  1  -0.515441  0.073196  1.9227  0.103  -0.513314  0.050458  2.235993  0.078  -0.553892  0.036861  2.230047  0.063  -0.239388  -0.484197  0.059539  2.240083  0.086
O  O54  1  0.94954717  0.31074426  0.61921880  1  -0.562597  0.012173  1.914849  0.017  -0.520224  0.006007  2.138646  0.009  -0.545981  0.002748  2.133098  0.005  -0.297794  -0.501126  0.00965  2.141454  0.014
O  O55  1  0.05046492  0.18926157  0.11923476  1  -0.562656  0.012145  1.914855  0.017  -0.520291  0.006009  2.138588  0.009  -0.546049  0.002737  2.133042  0.005  -0.297855  -0.501193  0.009646  2.141399  0.014
O  O56  1  0.05046751  0.68924135  0.38078438  1  -0.562553  0.012169  1.914431  0.017  -0.520148  0.006016  2.13819  0.009  -0.545919  0.002741  2.132651  0.005  -0.297773  -0.501042  0.009659  2.140989  0.014
O  O57  1  0.94954150  0.81073571  0.88076922  1  -0.56251  0.012128  1.915668  0.017  -0.520128  0.006004  2.139432  0.009  -0.545874  0.002734  2.133885  0.005  -0.297826  -0.501041  0.009635  2.142252  0.014
