# generated using pymatgen
data_CuH11C11NO4
_symmetry_space_group_name_H-M   'P 1'
_cell_length_a   8.52957839
_cell_length_b   13.22300117
_cell_length_c   13.97693007
_cell_angle_alpha   118.25011276
_cell_angle_beta   90.66356480
_cell_angle_gamma   89.97904186
_symmetry_Int_Tables_number   1
_chemical_formula_structural   CuH11C11NO4
_chemical_formula_sum   'Cu4 H44 C44 N4 O16'
_cell_volume   1388.52763317
_cell_formula_units_Z   4
loop_
 _symmetry_equiv_pos_site_id
 _symmetry_equiv_pos_as_xyz
  1  'x, y, z'
loop_
 _atom_site_type_symbol
 _atom_site_label
 _atom_site_symmetry_multiplicity
 _atom_site_fract_x
 _atom_site_fract_y
 _atom_site_fract_z
 _atom_site_occupancy
 _atom_site_pbe_bader_charge
 _atom_site_pbe_bader_spin_density
 _atom_site_pbe_cm5_charge
 _atom_site_pbe_ddec_charge
 _atom_site_pbe_ddec_spin_density
 _atom_site_pbe_ddec_sum_bond_order
 _atom_site_pbe_magmom
Cu  Cu0  1  0.44684927  0.91248042  0.41396040  1  1.070034  0.577778  0.679483  0.75271  0.744262  2.386257  0.579
Cu  Cu1  1  0.05359600  0.49843842  0.58674645  1  1.059227  -0.53796  0.674621  0.744595  -0.72032  2.384595  -0.536
Cu  Cu2  1  0.55315449  0.08752069  0.58604225  1  1.070561  0.577811  0.6795  0.75271  0.744279  2.386277  0.579
Cu  Cu3  1  0.94639951  0.50156239  0.41324988  1  1.059417  0.538318  0.674611  0.744509  0.688889  2.384608  0.536
H  H4  1  0.35319395  0.66360439  0.35154705  1  0.103592  -1.6e-05  0.118657  0.095984  1.7e-05  0.992733  0.0
H  H5  1  0.14686018  0.31166510  0.64826414  1  0.089608  9e-06  0.118411  0.0955  -1.3e-05  0.992344  0.0
H  H6  1  0.64680864  0.33639552  0.64845525  1  0.103643  -9e-06  0.11867  0.096022  2.3e-05  0.992696  0.0
H  H7  1  0.85314003  0.68833290  0.35172936  1  0.089711  -2.6e-05  0.118348  0.095472  -1e-05  0.992481  0.0
H  H8  1  0.18201842  0.50703989  0.21863668  1  0.12028  6.2e-05  0.106779  0.125346  0.000108  1.029507  0.0
H  H9  1  0.31766414  0.28811658  0.78147306  1  0.115646  0.000115  0.106553  0.12525  0.000156  1.029995  0.0
H  H10  1  0.81798534  0.49295980  0.78136453  1  0.120288  -0.000105  0.106769  0.125345  -0.000133  1.029491  0.0
H  H11  1  0.68233491  0.71188117  0.21852191  1  0.115575  7.5e-05  0.106521  0.125232  0.000142  1.02998  0.0
H  H12  1  0.10309754  0.71627018  0.06009117  1  0.075434  -1.5e-05  0.104646  0.108234  -4e-06  1.008698  0.0
H  H13  1  0.39673252  0.65594022  0.93970856  1  0.079544  3.9e-05  0.104658  0.107785  2e-05  1.009283  0.0
H  H14  1  0.89690973  0.28372930  0.93990898  1  0.075462  -2.1e-05  0.104623  0.108187  -5e-06  1.008766  0.0
H  H15  1  0.60327123  0.34405875  0.06028936  1  0.079554  -3.9e-05  0.104646  0.107753  -2.4e-05  1.009269  0.0
H  H16  1  0.27845114  0.86339741  0.20094879  1  0.096904  -3.6e-05  0.114734  0.090423  1.5e-05  0.998404  0.0
H  H17  1  0.22156800  0.66207474  0.79870153  1  0.103761  7.1e-05  0.114709  0.090336  2.4e-05  0.998405  0.0
H  H18  1  0.72155146  0.13660249  0.79905352  1  0.096819  -3.6e-05  0.114742  0.090455  1.3e-05  0.998396  0.0
H  H19  1  0.77843460  0.33792161  0.20129461  1  0.10353  -6.6e-05  0.114699  0.090336  -2.8e-05  0.99838  0.0
H  H20  1  0.01829887  0.42999122  0.06169552  1  0.048474  -7e-06  0.103708  0.100752  -4e-06  1.006549  0.0
H  H21  1  0.48161631  0.36827556  0.93851434  1  0.054167  -8e-06  0.103593  0.100554  -9e-06  1.007088  0.0
H  H22  1  0.98170606  0.57000919  0.93830642  1  0.048414  -3e-06  0.103718  0.100765  1e-06  1.006496  0.0
H  H23  1  0.51837811  0.63171737  0.06147924  1  0.054292  2e-06  0.103603  0.100595  -4e-06  1.007016  0.0
H  H24  1  0.90333958  0.91615744  0.26415952  1  0.059957  0.002096  0.094515  0.107987  0.001068  0.9797  0.001
H  H25  1  0.59650986  0.65178316  0.73559071  1  0.052684  0.002083  0.09426  0.107605  0.001003  0.980085  0.001
H  H26  1  0.09665368  0.08383975  0.73584351  1  0.059909  0.002307  0.094531  0.108021  0.001204  0.979682  0.001
H  H27  1  0.40349044  0.34821244  0.26440984  1  0.053075  -0.001899  0.094275  0.10759  -0.000978  0.980066  -0.001
H  H28  1  0.00647870  0.91270765  0.37346535  1  0.079314  0.000117  0.105931  0.133475  4.2e-05  0.990177  0.0
H  H29  1  0.49360336  0.53892758  0.62620868  1  0.0916  0.000197  0.105885  0.132814  3.8e-05  0.991234  0.0
H  H30  1  0.99352622  0.08729228  0.62653440  1  0.079418  -0.000551  0.105951  0.133499  -0.00032  0.990152  0.0
H  H31  1  0.50638631  0.46107292  0.37379165  1  0.091794  0.000755  0.105883  0.132828  0.000404  0.991295  0.0
H  H32  1  0.10527919  0.07322509  0.34854875  1  0.043662  0.000971  0.09013  0.087203  0.000503  1.004949  0.001
H  H33  1  0.39476514  0.72456855  0.65140622  1  0.014538  -0.000806  0.090562  0.087889  -0.000506  1.00361  -0.001
H  H34  1  0.89471984  0.92677551  0.65144909  1  0.043671  0.001078  0.090142  0.087225  0.000555  1.004937  0.001
H  H35  1  0.60523865  0.27542875  0.34859432  1  0.014528  0.001021  0.090558  0.087902  0.000495  1.003625  0.001
H  H36  1  0.01749083  0.12393582  0.47668858  1  0.069908  -0.000164  0.094012  0.093983  -0.000156  0.998429  0.0
H  H37  1  0.48243728  0.64710765  0.52322692  1  0.066026  0.00045  0.094127  0.09405  0.000354  0.998693  0.0
H  H38  1  0.98251172  0.87606505  0.52331039  1  0.069882  0.000456  0.094011  0.093977  0.000351  0.99842  0.0
H  H39  1  0.51755821  0.35289530  0.47677157  1  0.066073  4e-05  0.094102  0.093988  3.7e-05  0.998774  0.0
H  H40  1  0.86195980  0.12550411  0.27766901  1  0.002802  -0.00154  0.095684  0.10987  -0.000757  0.972636  -0.001
H  H41  1  0.63793714  0.84782525  0.72228123  1  0.05103  0.002103  0.095923  0.1104  0.001097  0.971538  0.001
H  H42  1  0.13804160  0.87449650  0.72233143  1  0.002793  0.001575  0.095698  0.109879  0.000711  0.972611  0.001
H  H43  1  0.36206077  0.15217414  0.27772142  1  0.051071  0.002075  0.095901  0.110363  0.001083  0.971601  0.001
H  H44  1  0.76682792  0.16077617  0.40155534  1  0.07262  0.00031  0.10613  0.129116  0.000106  0.989738  0.0
H  H45  1  0.73323643  0.75903891  0.59844431  1  0.074573  4.7e-05  0.106194  0.129862  -6.3e-05  0.989205  0.0
H  H46  1  0.23317232  0.83922230  0.59844293  1  0.072697  -0.000371  0.106141  0.129101  -0.000225  0.989751  0.0
H  H47  1  0.26675793  0.24096330  0.40155860  1  0.074703  0.000226  0.106175  0.129828  5e-05  0.989228  0.0
C  C48  1  0.29681349  0.67074692  0.28458971  1  0.468875  -0.000563  0.049176  0.109806  -0.000391  3.930539  0.0
C  C49  1  0.20314190  0.38576457  0.71528226  1  0.508989  0.000652  0.050518  0.112125  0.000428  3.928407  0.0
C  C50  1  0.70318910  0.32925276  0.71541150  1  0.468895  -0.00058  0.049183  0.109782  -0.000406  3.930526  0.0
C  C51  1  0.79685948  0.61423700  0.28471742  1  0.508864  -0.000653  0.050603  0.112123  -0.000445  3.928417  0.0
C  C52  1  0.20119541  0.58354001  0.20956978  1  0.02132  0.000285  -0.080902  -0.171532  0.00018  3.906999  0.0
C  C53  1  0.29849509  0.37365985  0.79047712  1  -0.001228  -0.000136  -0.080855  -0.172056  -9.7e-05  3.907224  0.0
C  C54  1  0.79880834  0.41646015  0.79043105  1  0.021339  -5.6e-05  -0.080923  -0.171563  -4.2e-05  3.907013  0.0
C  C55  1  0.70150512  0.62633910  0.20951820  1  -0.001217  0.000572  -0.08087  -0.172011  0.000377  3.906957  0.0
C  C56  1  0.12974249  0.59560425  0.12447093  1  -0.055791  -0.000572  0.003615  0.140388  -0.000382  4.038518  0.0
C  C57  1  0.36995588  0.47091461  0.87554280  1  -0.053141  0.000675  0.003524  0.140221  0.000425  4.037297  0.0
C  C58  1  0.87026479  0.40439524  0.87552922  1  -0.055815  -0.0006  0.003654  0.140425  -0.000397  4.038456  0.0
C  C59  1  0.63004437  0.52908242  0.12445404  1  -0.053023  -0.000639  0.003565  0.140227  -0.000425  4.037249  0.0
C  C60  1  0.15722790  0.69938641  0.12204093  1  -0.022136  0.000271  -0.087855  -0.186843  0.000185  3.967061  0.0
C  C61  1  0.34261564  0.57706844  0.87780448  1  -0.047811  -0.000259  -0.087565  -0.185797  -0.000164  3.9665  0.0
C  C62  1  0.84277937  0.30061379  0.87795994  1  -0.02176  0.000245  -0.087793  -0.186714  0.000169  3.967083  0.0
C  C63  1  0.65738693  0.42293219  0.12219597  1  -0.048065  0.000297  -0.087574  -0.185785  0.000175  3.966614  0.0
C  C64  1  0.25496059  0.78177987  0.19999084  1  0.472245  -0.000468  0.038555  0.081537  -0.000342  3.986598  0.0
C  C65  1  0.24501739  0.58146313  0.79978093  1  0.483295  0.000657  0.038644  0.081605  0.000447  3.98706  0.0
C  C66  1  0.74504319  0.21821886  0.80001114  1  0.471841  -0.000454  0.038491  0.081378  -0.000332  3.986665  0.0
C  C67  1  0.75498402  0.41853439  0.20021554  1  0.483678  -0.000657  0.038751  0.081702  -0.000473  3.9868  0.0
C  C68  1  0.03382145  0.50206673  0.04483975  1  -0.0753  -0.000295  -0.080131  -0.115724  -0.000209  3.962388  0.0
C  C69  1  0.46603575  0.45716772  0.95523698  1  0.044733  -0.000722  -0.079933  -0.115235  -0.000489  3.961317  0.0
C  C70  1  0.96618348  0.49793273  0.95516038  1  0.024902  -0.000282  -0.080082  -0.115698  -0.000195  3.962302  0.0
C  C71  1  0.53396335  0.54282906  0.04476133  1  -0.098371  0.000709  -0.079932  -0.115273  0.000452  3.961226  0.0
C  C72  1  0.76883683  0.96786008  0.40746734  1  1.550275  -0.00097  0.213259  0.625259  0.000779  4.113714  -0.004
C  C73  1  0.73176272  0.56015442  0.59235511  1  1.526514  0.000607  0.213198  0.623259  0.000391  4.11634  0.001
C  C74  1  0.23116338  0.03214361  0.59253705  1  1.550275  -0.001019  0.213212  0.625283  0.000733  4.113569  -0.004
C  C75  1  0.26823164  0.43984399  0.40764053  1  1.526221  -0.000456  0.213166  0.623266  -0.000529  4.116314  -0.001
C  C76  1  0.92319796  0.96309724  0.35250025  1  -0.054514  0.018556  -0.162953  -0.292948  0.013263  3.901791  0.014
C  C77  1  0.57686185  0.61025066  0.64724115  1  -0.041296  0.00087  -0.16105  -0.289383  0.000451  3.897244  0.0
C  C78  1  0.07680463  0.03690410  0.64750349  1  -0.054617  0.016951  -0.162971  -0.293035  0.012167  3.901694  0.013
C  C79  1  0.42313610  0.38974563  0.35276010  1  -0.041912  0.001226  -0.161006  -0.289325  0.000845  3.897328  0.001
C  C80  1  0.99263717  0.08272604  0.38912411  1  -0.021557  0.003845  -0.165832  -0.10094  0.002564  3.928492  0.003
C  C81  1  0.50742152  0.69341060  0.61077386  1  0.007367  0.000323  -0.16658  -0.101556  0.000338  3.926398  0.0
C  C82  1  0.00736072  0.91727311  0.61087486  1  -0.021516  0.001015  -0.165844  -0.10095  0.000789  3.928261  0.0
C  C83  1  0.49258106  0.30658837  0.38922406  1  0.007309  0.003964  -0.166572  -0.101547  0.002655  3.926444  0.003
C  C84  1  0.88163567  0.15905258  0.36533696  1  0.005383  0.000913  -0.162336  -0.286131  0.000568  3.899933  0.001
C  C85  1  0.61837408  0.79359780  0.63457925  1  -0.046545  0.017773  -0.163596  -0.290057  0.012786  3.901624  0.014
C  C86  1  0.11836572  0.84094875  0.63466420  1  0.007922  -0.000818  -0.162348  -0.286097  -0.000761  3.899853  -0.001
C  C87  1  0.38162265  0.20640299  0.36542482  1  -0.046905  0.017898  -0.163585  -0.290026  0.012848  3.901768  0.014
C  C88  1  0.93072672  0.28434461  0.41396363  1  1.54189  -0.000196  0.216109  0.628143  -0.000181  4.11672  0.0
C  C89  1  0.56930355  0.87027032  0.58618003  1  1.53978  -0.001236  0.216303  0.629425  0.000611  4.109552  -0.004
C  C90  1  0.06926882  0.71565476  0.58603384  1  1.539376  0.000195  0.21616  0.628192  -6.5e-05  4.116581  0.0
C  C91  1  0.43069315  0.12973357  0.41382544  1  1.540075  -0.001199  0.21626  0.62943  0.000655  4.109817  -0.004
N  N92  1  0.32571352  0.76825199  0.27990877  1  -1.225269  -0.001416  -0.336178  -0.246615  -0.000354  3.498408  0.0
N  N93  1  0.17434103  0.48795021  0.71990166  1  -1.227431  0.001334  -0.338688  -0.248111  0.00054  3.506363  0.0
N  N94  1  0.67429024  0.23174841  0.72009317  1  -1.225206  -0.001491  -0.336173  -0.246541  -0.000408  3.498479  0.0
N  N95  1  0.82566155  0.51204804  0.28009553  1  -1.227278  -0.001179  -0.338798  -0.248179  -0.000479  3.506077  0.0
O  O96  1  0.66226794  0.89543453  0.35170450  1  -1.117695  0.09604  -0.317123  -0.533441  0.06182  2.352953  0.087
O  O97  1  0.83790349  0.54400534  0.64858039  1  -1.120789  -0.082774  -0.315666  -0.530588  -0.056255  2.356822  -0.075
O  O98  1  0.33773346  0.10456822  0.64830067  1  -1.117784  0.095989  -0.317124  -0.533471  0.061794  2.352781  0.087
O  O99  1  0.16209797  0.45598743  0.35141215  1  -1.12054  0.082947  -0.315634  -0.530532  0.053807  2.35685  0.075
O  O100  1  0.75634770  0.04580153  0.50563682  1  -1.133824  0.089489  -0.310818  -0.522631  0.057492  2.377427  0.082
O  O101  1  0.74406761  0.54047413  0.49442246  1  -1.115855  0.077744  -0.309836  -0.520311  0.050394  2.381715  0.07
O  O102  1  0.24364659  0.95420568  0.49436596  1  -1.13381  0.089508  -0.310762  -0.52258  0.057496  2.377319  0.082
O  O103  1  0.25592554  0.45952903  0.50557711  1  -1.115747  -0.077591  -0.309811  -0.520313  -0.052746  2.38168  -0.07
O  O104  1  0.90120748  0.33367787  0.35643246  1  -1.119338  0.089078  -0.317656  -0.536475  0.057879  2.359923  0.081
O  O105  1  0.59854270  0.97733635  0.64348190  1  -1.122042  0.102318  -0.317788  -0.536315  0.066009  2.356476  0.093
O  O106  1  0.09878924  0.66632056  0.64356578  1  -1.119257  -0.088979  -0.317663  -0.5365  -0.060551  2.359736  -0.081
O  O107  1  0.40145869  0.02266664  0.35652178  1  -1.121993  0.102288  -0.317782  -0.536319  0.065994  2.356478  0.093
O  O108  1  0.99245698  0.33107646  0.50872146  1  -1.122827  -0.07933  -0.311549  -0.525063  -0.053943  2.347119  -0.072
O  O109  1  0.50726550  0.82266546  0.49138571  1  -1.120729  0.091213  -0.311985  -0.525803  0.058755  2.344082  0.083
O  O110  1  0.00754091  0.66892341  0.49127823  1  -1.12291  0.079353  -0.31159  -0.525089  0.051485  2.34721  0.072
O  O111  1  0.49272417  0.17733931  0.50862151  1  -1.120784  0.091287  -0.311962  -0.525777  0.058827  2.344144  0.083
