# generated using pymatgen
data_ZnH12(C3N2)3
_symmetry_space_group_name_H-M   'P 1'
_cell_length_a   10.93056385
_cell_length_b   12.40094105
_cell_length_c   16.64446484
_cell_angle_alpha   90.00014005
_cell_angle_beta   95.04853325
_cell_angle_gamma   89.99985145
_symmetry_Int_Tables_number   1
_chemical_formula_structural   ZnH12(C3N2)3
_chemical_formula_sum   'Zn8 H96 C72 N48'
_cell_volume   2247.39250683
_cell_formula_units_Z   8
loop_
 _symmetry_equiv_pos_site_id
 _symmetry_equiv_pos_as_xyz
  1  'x, y, z'
loop_
 _atom_site_type_symbol
 _atom_site_label
 _atom_site_symmetry_multiplicity
 _atom_site_fract_x
 _atom_site_fract_y
 _atom_site_fract_z
 _atom_site_occupancy
 _atom_site_pbe_bader_charge
 _atom_site_pbe_bader_spin_density
 _atom_site_pbe_cm5_charge
 _atom_site_pbe_ddec_charge
 _atom_site_pbe_ddec_spin_density
 _atom_site_pbe_ddec_sum_bond_order
 _atom_site_pbe_magmom
Zn  Zn0  1  0.72703442  0.73642249  0.59558638  1  1.193885  0  0.737046  0.665248  0  2.506044  0
Zn  Zn1  1  0.77296328  0.23642057  0.90441350  1  1.193914  0  0.737058  0.665268  0  2.505931  0
Zn  Zn2  1  0.27296296  0.26357793  0.40441260  1  1.193917  0  0.737088  0.665308  0  2.506007  0
Zn  Zn3  1  0.22703593  0.76357743  0.09558798  1  1.194003  0  0.737069  0.66531  0  2.505987  0
Zn  Zn4  1  0.21059804  0.74344329  0.46257916  1  1.190228  0  0.743861  0.666639  0  2.518106  0
Zn  Zn5  1  0.28939999  0.24344013  0.03742013  1  1.190225  0  0.74383  0.666631  0  2.518071  0
Zn  Zn6  1  0.78940118  0.25656116  0.53741992  1  1.190184  0  0.743865  0.666722  0  2.51819  0
Zn  Zn7  1  0.71059830  0.75655707  0.96258130  1  1.190225  0  0.743848  0.666673  0  2.518011  0
H  H8  1  0.07292499  0.63139024  0.20320285  1  0.090993  0  0.099833  0.141273  0  1.03946  0
H  H9  1  0.42707426  0.13138922  0.29679631  1  0.091018  0  0.099833  0.141287  0  1.039457  0
H  H10  1  0.92707607  0.36861099  0.79679574  1  0.091035  0  0.09983  0.141313  0  1.039426  0
H  H11  1  0.57292127  0.86861120  0.70320616  1  0.091025  0  0.099836  0.141331  0  1.039458  0
H  H12  1  0.01076399  0.67242847  0.29316935  1  0.047748  0  0.10047  0.145988  0  1.001142  0
H  H13  1  0.48923607  0.17242541  0.20682993  1  0.047775  0  0.100487  0.146016  0  1.001107  0
H  H14  1  0.98923614  0.32757275  0.70682918  1  0.047743  0  0.100464  0.145993  0  1.001126  0
H  H15  1  0.51076038  0.82757501  0.79317320  1  0.047759  0  0.100463  0.145984  0  1.001107  0
H  H16  1  0.13085425  0.57576955  0.29703677  1  0.094474  0  0.100817  0.15264  0  1.010587  0
H  H17  1  0.36914515  0.07576836  0.20296289  1  0.094432  0  0.100848  0.152705  0  1.010567  0
H  H18  1  0.86914956  0.42423329  0.70296198  1  0.09441  0  0.100834  0.152683  0  1.01062  0
H  H19  1  0.63085130  0.92423206  0.79703963  1  0.094407  0  0.100858  0.1527  0  1.010606  0
H  H20  1  0.46987757  0.95975947  0.35515902  1  0.099597  0  0.117432  0.14896  0  0.978763  0
H  H21  1  0.03012171  0.45975886  0.14484074  1  0.099587  0  0.117413  0.14892  0  0.978801  0
H  H22  1  0.53012900  0.04023853  0.64483629  1  0.099718  0  0.117366  0.148905  0  0.978873  0
H  H23  1  0.96987659  0.54024156  0.85515829  1  0.099575  0  0.117422  0.148936  0  0.978851  0
H  H24  1  0.33871042  0.99360875  0.40559745  1  0.096717  0  0.109853  0.131572  0  0.986853  0
H  H25  1  0.16128876  0.49360687  0.09440296  1  0.096751  0  0.109866  0.131577  0  0.986829  0
H  H26  1  0.66129982  0.00639732  0.59439987  1  0.096772  0  0.10987  0.131605  0  0.986813  0
H  H27  1  0.83871045  0.50639436  0.90559732  1  0.096778  0  0.109821  0.13153  0  0.986798  0
H  H28  1  0.49902496  0.66758212  0.66817096  1  0.040973  0  0.097309  0.137501  0  1.032988  0
H  H29  1  0.00097266  0.16757897  0.83182819  1  0.040825  0  0.097292  0.137472  0  1.03297  0
H  H30  1  0.50096599  0.33241991  0.33182644  1  0.040849  0  0.09726  0.137445  0  1.033006  0
H  H31  1  0.99903114  0.83241580  0.16817296  1  0.04089  0  0.097275  0.137477  0  1.033011  0
H  H32  1  0.36099708  0.62912381  0.60997370  1  0.083179  0  0.101302  0.148607  0  1.013015  0
H  H33  1  0.13900064  0.12912134  0.89002599  1  0.083158  0  0.101306  0.148616  0  1.013095  0
H  H34  1  0.63899387  0.37088064  0.39002310  1  0.083033  0  0.101299  0.148626  0  1.012966  0
H  H35  1  0.86100224  0.87087504  0.10997511  1  0.083086  0  0.101286  0.148619  0  1.012986  0
H  H36  1  0.36244913  0.74466031  0.67212594  1  0.068021  0  0.105957  0.159157  0  0.986288  0
H  H37  1  0.13754828  0.24465602  0.82787394  1  0.068082  0  0.105981  0.159185  0  0.986186  0
H  H38  1  0.63754367  0.25534576  0.32786916  1  0.068074  0  0.105964  0.159187  0  0.986218  0
H  H39  1  0.86245552  0.75534117  0.17212721  1  0.068038  0  0.105953  0.159186  0  0.986288  0
H  H40  1  0.01359028  0.98888494  0.68807607  1  0.072427  0  0.101602  0.150056  0  0.995077  0
H  H41  1  0.48640463  0.48888787  0.81192351  1  0.07236  0  0.101593  0.15004  0  0.99509  0
H  H42  1  0.98641444  0.01111064  0.31192814  1  0.072508  0  0.101595  0.15003  0  0.995106  0
H  H43  1  0.51358907  0.51110932  0.18807525  1  0.072454  0  0.101585  0.149993  0  0.995066  0
H  H44  1  0.87059024  0.92169956  0.69799363  1  0.043756  0  0.093191  0.132743  0  1.019899  0
H  H45  1  0.62940511  0.42169924  0.80200645  1  0.043565  0  0.093208  0.132747  0  1.019862  0
H  H46  1  0.12941538  0.07829844  0.30201364  1  0.043828  0  0.093182  0.132683  0  1.019903  0
H  H47  1  0.37058584  0.57829956  0.19798974  1  0.043635  0  0.093163  0.132663  0  1.019897  0
H  H48  1  0.88018661  0.02735118  0.62648081  1  0.064048  0  0.095108  0.14071  0  1.0203  0
H  H49  1  0.61980981  0.52735022  0.87352042  1  0.064062  0  0.095099  0.140682  0  1.020281  0
H  H50  1  0.11981717  0.97265086  0.37352816  1  0.063923  0  0.095126  0.140713  0  1.020383  0
H  H51  1  0.38018390  0.47265019  0.12647533  1  0.063946  0  0.095109  0.1407  0  1.020405  0
H  H52  1  0.83726271  0.69738388  0.40301291  1  0.074058  0  0.109908  0.127657  0  0.981945  0
H  H53  1  0.66273939  0.19738926  0.09698353  1  0.073985  0  0.109892  0.127631  0  0.981987  0
H  H54  1  0.16274385  0.30261815  0.59698781  1  0.073979  0  0.109866  0.127609  0  0.98203  0
H  H55  1  0.33725707  0.80261600  0.90301479  1  0.074001  0  0.10989  0.127621  0  0.981972  0
H  H56  1  0.97682715  0.62477071  0.42318482  1  0.087543  0  0.114949  0.132242  0  1.00438  0
H  H57  1  0.52317422  0.12477393  0.07681746  1  0.087499  0  0.114931  0.132223  0  1.004396  0
H  H58  1  0.02317757  0.37523051  0.57681699  1  0.087596  0  0.114916  0.132225  0  1.004468  0
H  H59  1  0.47682407  0.87522729  0.92318698  1  0.087562  0  0.114944  0.13225  0  1.004457  0
H  H60  1  0.60979012  0.37767006  0.62825922  1  0.060996  0  0.100437  0.148278  0  1.013627  0
H  H61  1  0.89020995  0.87766607  0.87173805  1  0.060905  0  0.100415  0.148265  0  1.013673  0
H  H62  1  0.39021186  0.62233358  0.37173642  1  0.060904  0  0.100407  0.14823  0  1.013677  0
H  H63  1  0.10978650  0.12233274  0.12826327  1  0.060927  0  0.100432  0.148293  0  1.013651  0
H  H64  1  0.52292953  0.49040267  0.59036322  1  0.053713  0  0.101109  0.153086  0  0.982475  0
H  H65  1  0.97706748  0.99040022  0.90963648  1  0.053657  0  0.101117  0.15312  0  0.982499  0
H  H66  1  0.47706233  0.50959775  0.40963723  1  0.053755  0  0.101165  0.153165  0  0.98247  0
H  H67  1  0.02292989  0.00959859  0.09036429  1  0.053613  0  0.101108  0.153098  0  0.982492  0
H  H68  1  0.63173761  0.50615875  0.67527827  1  0.083265  0  0.099037  0.143053  0  1.023225  0
H  H69  1  0.86825980  0.00615635  0.82472057  1  0.083276  0  0.099033  0.143062  0  1.023199  0
H  H70  1  0.36826161  0.49384328  0.32471780  1  0.083194  0  0.099033  0.143066  0  1.023202  0
H  H71  1  0.13174033  0.99384165  0.17527917  1  0.083258  0  0.099021  0.143057  0  1.023187  0
H  H72  1  0.59662832  0.67946832  0.24764708  1  0.036317  0  0.082035  0.111149  0  1.032401  0
H  H73  1  0.90337934  0.17946722  0.25235025  1  0.036256  0  0.082038  0.11115  0  1.032444  0
H  H74  1  0.40336998  0.32053371  0.75234894  1  0.035997  0  0.081985  0.111124  0  1.032429  0
H  H75  1  0.09663825  0.82053240  0.74764871  1  0.03604  0  0.081982  0.111091  0  1.03244  0
H  H76  1  0.58740722  0.77178485  0.32876397  1  0.026032  0  0.079836  0.108016  0  1.036728  0
H  H77  1  0.91259926  0.27178668  0.17123527  1  0.026  0  0.079813  0.107939  0  1.036726  0
H  H78  1  0.41259934  0.22821154  0.67123494  1  0.025989  0  0.079827  0.107943  0  1.036705  0
H  H79  1  0.08740822  0.72821777  0.82876550  1  0.026034  0  0.07983  0.107943  0  1.036736  0
H  H80  1  0.73159953  0.74102970  0.29373431  1  -0.020854  0  0.075532  0.09317  0  1.039185  0
H  H81  1  0.76840612  0.24102875  0.20626422  1  -0.020778  0  0.075506  0.093104  0  1.039216  0
H  H82  1  0.26840153  0.25896346  0.70626067  1  -0.021052  0  0.075533  0.093142  0  1.039239  0
H  H83  1  0.23160411  0.75896280  0.79373611  1  -0.021121  0  0.075556  0.093144  0  1.039161  0
H  H84  1  0.65972753  0.82438856  0.15737291  1  0.047928  0  0.084168  0.073081  0  1.026105  0
H  H85  1  0.84027881  0.32438386  0.34262761  1  0.04796  0  0.084131  0.073071  0  1.02606  0
H  H86  1  0.34027720  0.17561590  0.84262709  1  0.047948  0  0.084133  0.073042  0  1.026041  0
H  H87  1  0.15972683  0.67560930  0.65737425  1  0.047982  0  0.084133  0.073061  0  1.026034  0
H  H88  1  0.52034139  0.85771850  0.19400093  1  0.097631  0  0.087822  0.086233  0  1.01967  0
H  H89  1  0.97966119  0.35771821  0.30600003  1  0.097661  0  0.087834  0.08628  0  1.019715  0
H  H90  1  0.47966150  0.14228433  0.80599956  1  0.097833  0  0.08783  0.086241  0  1.01973  0
H  H91  1  0.02033986  0.64228544  0.69400096  1  0.097862  0  0.087816  0.086256  0  1.019725  0
H  H92  1  0.67335128  0.01409687  0.19431874  1  0.035563  0  0.084218  0.070164  0  1.031062  0
H  H93  1  0.82664854  0.51409200  0.30568624  1  0.035523  0  0.084216  0.070125  0  1.031023  0
H  H94  1  0.32665160  0.98590678  0.80568356  1  0.035565  0  0.084201  0.070139  0  1.031068  0
H  H95  1  0.17334055  0.48590197  0.69431825  1  0.035604  0  0.08423  0.070202  0  1.031057  0
H  H96  1  0.70716844  0.92348133  0.36808179  1  0.073577  0  0.084505  0.126811  0  1.061475  0
H  H97  1  0.79283303  0.42348653  0.13192223  1  0.072915  0  0.084532  0.126903  0  1.061457  0
H  H98  1  0.29283169  0.07651425  0.63192035  1  0.072885  0  0.084518  0.126863  0  1.061473  0
H  H99  1  0.20717720  0.57651631  0.86808050  1  0.072929  0  0.084445  0.126712  0  1.061532  0
H  H100  1  0.74530745  0.05970081  0.33386343  1  0.048219  0  0.08119  0.119432  0  1.076974  0
H  H101  1  0.75469408  0.55970532  0.16614234  1  0.048345  0  0.081223  0.119481  0  1.076898  0
H  H102  1  0.25469726  0.94029799  0.66614258  1  0.048307  0  0.081187  0.119423  0  1.077052  0
H  H103  1  0.24531064  0.44029510  0.83385947  1  0.048334  0  0.081147  0.119377  0  1.077073  0
C  C104  1  0.09591904  0.64993165  0.26699148  1  -0.089435  0  -0.234585  -0.472124  0  3.937687  0
C  C105  1  0.40408016  0.14993048  0.23300831  1  -0.089299  0  -0.234626  -0.472226  0  3.937715  0
C  C106  1  0.90408109  0.35007119  0.73300705  1  -0.089161  0  -0.234601  -0.47223  0  3.93778  0
C  C107  1  0.59591629  0.85007075  0.76699422  1  -0.089323  0  -0.234633  -0.472249  0  3.937841  0
C  C108  1  0.18729970  0.73867241  0.27593353  1  0.97131  0  0.211556  0.376836  0  4.02213  0
C  C109  1  0.31270109  0.23867141  0.22406651  1  0.97112  0  0.211573  0.376816  0  4.022069  0
C  C110  1  0.81270227  0.26133285  0.72406571  1  0.970938  0  0.211582  0.376847  0  4.022078  0
C  C111  1  0.68729536  0.76132739  0.77593541  1  0.971086  0  0.21153  0.376814  0  4.022285  0
C  C112  1  0.31627715  0.85787942  0.32567226  1  0.975002  0  0.210167  0.327141  0  4.017101  0
C  C113  1  0.18372332  0.35787937  0.17432858  1  0.975008  0  0.210161  0.327187  0  4.017106  0
C  C114  1  0.68372481  0.14212503  0.67432938  1  0.975017  0  0.210239  0.327248  0  4.017295  0
C  C115  1  0.81627497  0.64212186  0.82567345  1  0.974933  0  0.21018  0.327262  0  4.017171  0
C  C116  1  0.39325170  0.92562187  0.38510444  1  -0.019076  0  -0.139335  -0.330432  0  3.936864  0
C  C117  1  0.10674766  0.42562099  0.11489646  1  -0.019063  0  -0.139315  -0.330352  0  3.936786  0
C  C118  1  0.60675210  0.07438096  0.61489491  1  -0.019105  0  -0.139302  -0.330447  0  3.936699  0
C  C119  1  0.89325156  0.57438023  0.88510142  1  -0.019056  0  -0.13925  -0.330329  0  3.936643  0
C  C120  1  0.44403761  0.86462011  0.45801930  1  0.992164  0  0.211692  0.338486  0  4.009375  0
C  C121  1  0.05596193  0.36461911  0.04197970  1  0.992203  0  0.211617  0.338363  0  4.009492  0
C  C122  1  0.55596345  0.13538192  0.54197689  1  0.992259  0  0.211699  0.338531  0  4.009399  0
C  C123  1  0.94404188  0.63538212  0.95801965  1  0.992296  0  0.211682  0.338482  0  4.009481  0
C  C124  1  0.45254425  0.76588826  0.56460055  1  0.973003  0  0.213549  0.382604  0  4.006703  0
C  C125  1  0.04745310  0.26588614  0.93539937  1  0.972962  0  0.213611  0.382752  0  4.006548  0
C  C126  1  0.54745313  0.23411378  0.43539723  1  0.972962  0  0.213603  0.382763  0  4.006639  0
C  C127  1  0.95254795  0.73411024  0.06460102  1  0.973041  0  0.213613  0.382683  0  4.006741  0
C  C128  1  0.41747579  0.69784357  0.63234087  1  -0.043675  0  -0.23233  -0.472747  0  3.937235  0
C  C129  1  0.08252266  0.19783954  0.86765899  1  -0.04357  0  -0.232329  -0.472754  0  3.937041  0
C  C130  1  0.58251700  0.30216007  0.36765603  1  -0.043534  0  -0.232245  -0.472734  0  3.93702  0
C  C131  1  0.91748022  0.80215523  0.13234331  1  -0.043514  0  -0.232309  -0.472795  0  3.937202  0
C  C132  1  0.92934403  0.95819665  0.65519982  1  -0.068104  0  -0.232685  -0.456473  0  3.931305  0
C  C133  1  0.57065215  0.45819742  0.84480097  1  -0.067844  0  -0.232697  -0.456513  0  3.9312  0
C  C134  1  0.07065884  0.04180135  0.34480728  1  -0.068039  0  -0.23269  -0.456406  0  3.931379  0
C  C135  1  0.42934156  0.54179897  0.15519538  1  -0.067934  0  -0.23264  -0.456339  0  3.931316  0
C  C136  1  0.96101599  0.87859046  0.59364598  1  0.974825  0  0.211622  0.382657  0  4.009574  0
C  C137  1  0.53898040  0.37858827  0.90635408  1  0.974746  0  0.211724  0.382889  0  4.009211  0
C  C138  1  0.03898597  0.12140996  0.40635806  1  0.974794  0  0.211642  0.382689  0  4.009534  0
C  C139  1  0.46101422  0.62140489  0.09364414  1  0.974783  0  0.211684  0.38272  0  4.009489  0
C  C140  1  0.94774057  0.74991945  0.50661175  1  1.037001  0  0.218677  0.347945  0  3.992366  0
C  C141  1  0.55225710  0.24992236  0.99338635  1  1.037725  0  0.218668  0.347892  0  3.992665  0
C  C142  1  0.05226415  0.25008016  0.49339066  1  1.037698  0  0.218716  0.347922  0  3.9925  0
C  C143  1  0.44773661  0.75007564  0.00661060  1  1.037858  0  0.218648  0.347891  0  3.992577  0
C  C144  1  0.90023510  0.66156967  0.45138997  1  0.013736  0  -0.136707  -0.330433  0  3.982021  0
C  C145  1  0.59976709  0.16157342  0.04861062  1  0.013205  0  -0.13665  -0.330325  0  3.98194  0
C  C146  1  0.09976962  0.33842752  0.54861184  1  0.013074  0  -0.136661  -0.330408  0  3.982013  0
C  C147  1  0.40023120  0.83842780  0.95139021  1  0.013035  0  -0.136701  -0.330416  0  3.98206  0
C  C148  1  0.83471236  0.57343537  0.49122534  1  0.973283  0  0.210792  0.33735  0  4.01433  0
C  C149  1  0.66528824  0.07343400  0.00877259  1  0.97336  0  0.21077  0.33725  0  4.014455  0
C  C150  1  0.16528778  0.42656747  0.50877139  1  0.973388  0  0.210785  0.337358  0  4.014214  0
C  C151  1  0.33471189  0.92656399  0.99122955  1  0.9739  0  0.210789  0.337394  0  4.014335  0
C  C152  1  0.71099338  0.49016130  0.56317619  1  0.993721  0  0.210691  0.375846  0  4.022551  0
C  C153  1  0.78900363  0.99015856  0.93682231  1  0.993438  0  0.210735  0.37595  0  4.022412  0
C  C154  1  0.28899758  0.50984234  0.43681640  1  0.993446  0  0.21077  0.375873  0  4.022527  0
C  C155  1  0.21099283  0.00984025  0.06317781  1  0.99369  0  0.210717  0.375932  0  4.022446  0
C  C156  1  0.61372769  0.46458199  0.61720670  1  -0.055745  0  -0.231837  -0.464003  0  3.931895  0
C  C157  1  0.88627307  0.96457724  0.88279198  1  -0.055612  0  -0.231817  -0.464064  0  3.931946  0
C  C158  1  0.38626969  0.53542085  0.38278927  1  -0.055625  0  -0.231888  -0.464079  0  3.93198  0
C  C159  1  0.11372707  0.03542076  0.11720716  1  -0.055614  0  -0.231837  -0.464093  0  3.931947  0
C  C160  1  0.63391087  0.75479164  0.27425968  1  -0.059017  0  -0.249787  -0.342829  0  3.951682  0
C  C161  1  0.86609291  0.25479134  0.22574117  1  -0.059027  0  -0.24972  -0.342641  0  3.951742  0
C  C162  1  0.36608926  0.24520797  0.72574006  1  -0.05848  0  -0.249727  -0.34268  0  3.951647  0
C  C163  1  0.13391457  0.74520666  0.77426080  1  -0.058629  0  -0.249724  -0.342565  0  3.951541  0
C  C164  1  0.61876643  0.84646847  0.21316790  1  -0.069407  0  -0.174432  -0.116762  0  4.009896  0
C  C165  1  0.88123709  0.34646914  0.28683189  1  -0.0695  0  -0.174432  -0.1169  0  4.010045  0
C  C166  1  0.38123737  0.15353114  0.78683205  1  -0.069684  0  -0.174414  -0.11676  0  4.009937  0
C  C167  1  0.11876395  0.65352967  0.71316970  1  -0.069537  0  -0.174398  -0.116803  0  4.009987  0
C  C168  1  0.67003031  0.95330148  0.24186257  1  -0.070029  0  -0.104748  -0.017945  0  4.013885  0
C  C169  1  0.82996649  0.45329895  0.25813883  1  -0.070046  0  -0.104758  -0.017784  0  4.013944  0
C  C170  1  0.32997165  0.04669975  0.75814028  1  -0.069959  0  -0.104707  -0.017872  0  4.013838  0
C  C171  1  0.17002262  0.54669583  0.74185966  1  -0.070172  0  -0.104894  -0.01821  0  4.013914  0
C  C172  1  0.70932076  0.97984874  0.31779493  1  -0.148101  0  -0.204967  -0.351728  0  3.91529  0
C  C173  1  0.79067872  0.47984846  0.18220848  1  -0.147502  0  -0.205005  -0.351925  0  3.915399  0
C  C174  1  0.29067845  0.02015087  0.68220716  1  -0.147518  0  -0.204983  -0.351802  0  3.915327  0
C  C175  1  0.20932967  0.52014470  0.81779414  1  -0.147509  0  -0.204743  -0.351397  0  3.915049  0
N  N176  1  0.88198754  0.80110928  0.56042999  1  -1.263901  0  -0.365079  -0.423818  0  3.427152  0
N  N177  1  0.61800722  0.30110783  0.93956983  1  -1.263832  0  -0.365166  -0.423891  0  3.427235  0
N  N178  1  0.11801442  0.19888953  0.43957346  1  -1.263954  0  -0.365135  -0.423819  0  3.427259  0
N  N179  1  0.38198556  0.69888775  0.06042887  1  -1.263995  0  -0.365131  -0.423834  0  3.427152  0
N  N180  1  0.06880771  0.87604323  0.56279916  1  -0.687665  0  -0.244425  -0.280423  0  3.13404  0
N  N181  1  0.43118750  0.37604187  0.93720083  1  -0.687623  0  -0.244408  -0.280455  0  3.133959  0
N  N182  1  0.93119241  0.12396122  0.43720298  1  -0.687542  0  -0.244329  -0.280346  0  3.134042  0
N  N183  1  0.56880804  0.62395694  0.06279803  1  -0.687656  0  -0.244404  -0.280393  0  3.134182  0
N  N184  1  0.05979064  0.79348893  0.50725046  1  -0.842384  0  -0.272856  -0.257187  0  3.590405  0
N  N185  1  0.44020755  0.29348853  0.99274955  1  -0.842465  0  -0.27289  -0.257219  0  3.590449  0
N  N186  1  0.94021132  0.20651390  0.49275359  1  -0.842478  0  -0.27299  -0.257341  0  3.590398  0
N  N187  1  0.55978891  0.70650866  0.00724816  1  -0.842432  0  -0.27287  -0.257244  0  3.590568  0
N  N188  1  0.74662384  0.59065280  0.54342840  1  -1.26908  0  -0.369079  -0.431246  0  3.442027  0
N  N189  1  0.75337425  0.09065109  0.95657123  1  -1.269083  0  -0.369036  -0.431183  0  3.442055  0
N  N190  1  0.25337262  0.40934843  0.45656811  1  -1.26908  0  -0.369042  -0.431196  0  3.44202  0
N  N191  1  0.24662496  0.90934771  0.04343085  1  -1.269115  0  -0.369099  -0.431285  0  3.442086  0
N  N192  1  0.85377237  0.46963756  0.47826804  1  -0.691681  0  -0.242686  -0.275624  0  3.188999  0
N  N193  1  0.64622806  0.96963861  0.02173360  1  -0.691742  0  -0.242665  -0.275571  0  3.188974  0
N  N194  1  0.14622776  0.53036286  0.52173230  1  -0.691698  0  -0.242682  -0.275631  0  3.188907  0
N  N195  1  0.35377115  0.03036019  0.97826848  1  -0.692153  0  -0.242633  -0.275626  0  3.188996  0
N  N196  1  0.77467447  0.41664900  0.52477246  1  -0.832609  0  -0.274594  -0.279774  0  3.567631  0
N  N197  1  0.72532366  0.91664895  0.97522717  1  -0.832282  0  -0.27468  -0.279889  0  3.567537  0
N  N198  1  0.22532199  0.58335222  0.47522585  1  -0.832376  0  -0.27468  -0.279804  0  3.567528  0
N  N199  1  0.27467371  0.08335066  0.02477301  1  -0.832594  0  -0.27462  -0.2798  0  3.567589  0
N  N200  1  0.56683775  0.79872674  0.55322149  1  -0.814519  0  -0.277772  -0.281168  0  3.577339  0
N  N201  1  0.93316161  0.29872701  0.94677860  1  -0.814591  0  -0.277804  -0.281223  0  3.577342  0
N  N202  1  0.43316054  0.20127367  0.44677694  1  -0.814629  0  -0.277813  -0.281273  0  3.577282  0
N  N203  1  0.06683944  0.70127098  0.05322119  1  -0.814623  0  -0.277814  -0.281275  0  3.577301  0
N  N204  1  0.56197243  0.86189926  0.48472654  1  -0.71846  0  -0.244655  -0.282365  0  3.166959  0
N  N205  1  0.93802645  0.36189810  0.01527421  1  -0.718468  0  -0.244607  -0.282294  0  3.167018  0
N  N206  1  0.43803137  0.13810196  0.51527341  1  -0.718391  0  -0.244674  -0.282361  0  3.167062  0
N  N207  1  0.06197092  0.63810070  0.98472416  1  -0.71858  0  -0.244688  -0.282347  0  3.167149  0
N  N208  1  0.37233540  0.80602956  0.50560112  1  -1.276716  0  -0.370305  -0.422433  0  3.441738  0
N  N209  1  0.12766276  0.30602665  0.99439831  1  -1.276683  0  -0.370325  -0.422537  0  3.441755  0
N  N210  1  0.62766382  0.19397409  0.49439616  1  -1.276757  0  -0.370366  -0.422606  0  3.441784  0
N  N211  1  0.87233829  0.69397215  0.00560148  1  -1.27672  0  -0.370305  -0.422483  0  3.4418  0
N  N212  1  0.23318167  0.78233609  0.34693137  1  -1.248548  0  -0.370911  -0.445771  0  3.483357  0
N  N213  1  0.26681717  0.28233497  0.15306804  1  -1.248538  0  -0.37096  -0.445847  0  3.483251  0
N  N214  1  0.76681662  0.21766836  0.65306706  1  -1.248589  0  -0.370965  -0.44586  0  3.483535  0
N  N215  1  0.73318021  0.71766545  0.84693094  1  -1.248612  0  -0.370891  -0.445785  0  3.483599  0
N  N216  1  0.32100908  0.86326114  0.24639547  1  -0.69099  0  -0.240387  -0.271126  0  3.175412  0
N  N217  1  0.17899046  0.36326135  0.25360413  1  -0.691008  0  -0.240395  -0.271199  0  3.175405  0
N  N218  1  0.67899198  0.13674009  0.75360192  1  -0.690958  0  -0.24044  -0.27121  0  3.175522  0
N  N219  1  0.82100600  0.63673987  0.74639359  1  -0.690821  0  -0.240407  -0.271256  0  3.175331  0
N  N220  1  0.23867668  0.78664361  0.21493581  1  -0.83495  0  -0.273086  -0.275889  0  3.558864  0
N  N221  1  0.26132398  0.28664293  0.28506371  1  -0.834922  0  -0.273081  -0.275802  0  3.558746  0
N  N222  1  0.76132437  0.21335762  0.78506398  1  -0.834899  0  -0.273057  -0.27583  0  3.558762  0
N  N223  1  0.73867156  0.71335829  0.71493636  1  -0.834908  0  -0.273077  -0.275857  0  3.558939  0
