# generated using pymatgen
data_CdH20C18N4O7
_symmetry_space_group_name_H-M   'P 1'
_cell_length_a   11.95676847
_cell_length_b   13.16356878
_cell_length_c   13.16365602
_cell_angle_alpha   120.00076006
_cell_angle_beta   89.99963074
_cell_angle_gamma   89.99681762
_symmetry_Int_Tables_number   1
_chemical_formula_structural   CdH20C18N4O7
_chemical_formula_sum   'Cd3 H60 C54 N12 O21'
_cell_volume   1794.28446137
_cell_formula_units_Z   3
loop_
 _symmetry_equiv_pos_site_id
 _symmetry_equiv_pos_as_xyz
  1  'x, y, z'
loop_
 _atom_site_type_symbol
 _atom_site_label
 _atom_site_symmetry_multiplicity
 _atom_site_fract_x
 _atom_site_fract_y
 _atom_site_fract_z
 _atom_site_occupancy
 _atom_site_pbe_bader_charge
 _atom_site_pbe_bader_spin_density
 _atom_site_pbe_cm5_charge
 _atom_site_pbe_ddec_charge
 _atom_site_pbe_ddec_spin_density
 _atom_site_pbe_ddec_sum_bond_order
 _atom_site_pbe_magmom
Cd  Cd0  1  0.33334884  0.16976179  0.99998999  1  1.285372  0  0.776808  0.903842  0  2.152601  0
Cd  Cd1  1  0.66664744  0.83023197  0.83022411  1  1.289108  0  0.776822  0.903904  0  2.152553  0
Cd  Cd2  1  0.99999467  0.99999738  0.16978281  1  1.285287  0  0.776827  0.903798  0  2.152808  0
H  H3  1  0.38791033  0.99398674  0.23832748  1  0.07696  0  0.122476  0.088486  0  0.951527  0
H  H4  1  0.72125005  0.24435719  0.00601691  1  0.072727  0  0.122445  0.08844  0  0.951617  0
H  H5  1  0.05457641  0.76166309  0.75566584  1  0.071087  0  0.122419  0.088388  0  0.951629  0
H  H6  1  0.61208490  0.00601858  0.24434935  1  0.074038  0  0.122488  0.088535  0  0.95157  0
H  H7  1  0.27875086  0.75564393  0.76165870  1  0.071217  0  0.122437  0.088419  0  0.95162  0
H  H8  1  0.94542100  0.23833826  0.99401527  1  0.07802  0  0.122388  0.088315  0  0.951719  0
H  H9  1  0.38319012  0.79141989  0.07355326  1  0.060392  0  0.094638  0.132856  0  1.034668  0
H  H10  1  0.71651360  0.28213872  0.20857408  1  0.057011  0  0.094643  0.132867  0  1.034714  0
H  H11  1  0.04985030  0.92643490  0.71786831  1  0.055883  0  0.09463  0.132825  0  1.034804  0
H  H12  1  0.61680556  0.20858361  0.28213682  1  0.056369  0  0.094648  0.132863  0  1.034577  0
H  H13  1  0.28348348  0.71785914  0.92643128  1  0.055897  0  0.094654  0.132889  0  1.034695  0
H  H14  1  0.95014127  0.07356553  0.79144539  1  0.060193  0  0.094618  0.132808  0  1.034667  0
H  H15  1  0.46711275  0.79612490  0.18798930  1  0.100593  0  0.090977  0.135797  0  1.041984  0
H  H16  1  0.80041251  0.39188263  0.20388370  1  0.091412  0  0.090943  0.135658  0  1.041977  0
H  H17  1  0.13377321  0.81198672  0.60813061  1  0.106027  0  0.090981  0.135772  0  1.041967  0
H  H18  1  0.53288297  0.20387794  0.39187200  1  0.091285  0  0.090948  0.135755  0  1.041951  0
H  H19  1  0.19958416  0.60811993  0.81200013  1  0.102182  0  0.090958  0.135682  0  1.04195  0
H  H20  1  0.86622041  0.18801185  0.79615401  1  0.100556  0  0.090975  0.135739  0  1.041903  0
H  H21  1  0.32789222  0.73807503  0.16366719  1  0.03553  0  0.09133  0.128976  0  0.985896  0
H  H22  1  0.66118636  0.42559128  0.26191539  1  0.028382  0  0.091362  0.128974  0  0.985967  0
H  H23  1  0.99455532  0.83631510  0.57440889  1  0.036058  0  0.091333  0.128936  0  0.98596  0
H  H24  1  0.67210597  0.26192184  0.42559420  1  0.028838  0  0.091303  0.128954  0  0.985939  0
H  H25  1  0.33880835  0.57441013  0.83632277  1  0.035907  0  0.091341  0.128982  0  0.985909  0
H  H26  1  0.00543778  0.16367847  0.73810304  1  0.036125  0  0.091258  0.128813  0  0.986093  0
H  H27  1  0.48685520  0.21139127  0.64207301  1  0.088361  0  0.111549  0.1193  0  0.992436  0
H  H28  1  0.82018548  0.43067884  0.78860722  1  0.099683  0  0.111532  0.119277  0  0.992556  0
H  H29  1  0.15354266  0.35789529  0.56928551  1  0.08631  0  0.111588  0.119368  0  0.992471  0
H  H30  1  0.51315215  0.78861321  0.43067807  1  0.100355  0  0.111579  0.119346  0  0.992528  0
H  H31  1  0.17982411  0.56932302  0.35792749  1  0.087024  0  0.111592  0.119382  0  0.992473  0
H  H32  1  0.84645401  0.64210065  0.21138569  1  0.088536  0  0.111605  0.119377  0  0.992511  0
H  H33  1  0.49274180  0.22997978  0.84043201  1  0.149921  0  0.116319  0.09577  0  1.030149  0
H  H34  1  0.82607709  0.61043973  0.76999795  1  0.142882  0  0.116309  0.095784  0  1.029943  0
H  H35  1  0.15941470  0.15953049  0.38952591  1  0.148693  0  0.116279  0.095585  0  1.030032  0
H  H36  1  0.50725667  0.77001461  0.61044454  1  0.141538  0  0.11629  0.095723  0  1.030123  0
H  H37  1  0.17392658  0.38956078  0.15955558  1  0.148917  0  0.116295  0.095834  0  1.02983  0
H  H38  1  0.84057753  0.84046549  0.22998962  1  0.149544  0  0.116282  0.095534  0  1.030101  0
H  H39  1  0.24958830  0.97428736  0.74871662  1  0.105346  0  0.120243  0.089113  0  1.007141  0
H  H40  1  0.58293375  0.77444903  0.02570497  1  0.116614  0  0.120267  0.089064  0  1.007162  0
H  H41  1  0.91625910  0.25128023  0.22556302  1  0.107325  0  0.120245  0.089085  0  1.007152  0
H  H42  1  0.75040824  0.02571490  0.77443652  1  0.116856  0  0.120242  0.089099  0  1.007178  0
H  H43  1  0.41707308  0.22554647  0.25125143  1  0.107429  0  0.120296  0.08907  0  1.007263  0
H  H44  1  0.08374110  0.74871635  0.97428176  1  0.10608  0  0.120244  0.089105  0  1.00711  0
H  H45  1  0.23625115  0.94123011  0.54515104  1  0.084594  0  0.115336  0.123957  0  0.992423  0
H  H46  1  0.56958243  0.60395426  0.05878543  1  0.080515  0  0.115327  0.123995  0  0.992499  0
H  H47  1  0.90293006  0.45485247  0.39608180  1  0.075919  0  0.115311  0.123973  0  0.992575  0
H  H48  1  0.76375090  0.05877348  0.60392836  1  0.078744  0  0.11532  0.123958  0  0.992438  0
H  H49  1  0.43042774  0.39604600  0.45482732  1  0.075731  0  0.115303  0.123932  0  0.992466  0
H  H50  1  0.09706964  0.54514735  0.94123178  1  0.084152  0  0.115286  0.123953  0  0.992596  0
H  H51  1  0.33904453  0.88752692  0.38454081  1  0.449946  0  0.322765  0.274716  0  0.933245  0
H  H52  1  0.67236664  0.49702896  0.11248539  1  0.460315  0  0.322829  0.274794  0  0.933121  0
H  H53  1  0.00570656  0.61545412  0.50298923  1  0.451526  0  0.322773  0.274715  0  0.933233  0
H  H54  1  0.66096098  0.11248359  0.49701870  1  0.46049  0  0.322774  0.274777  0  0.93324  0
H  H55  1  0.32763440  0.50297180  0.61545509  1  0.451344  0  0.322834  0.27483  0  0.933044  0
H  H56  1  0.99429128  0.38454459  0.88754212  1  0.449861  0  0.322789  0.274718  0  0.933215  0
H  H57  1  0.38427834  0.92994067  0.95301661  1  0.665794  0  0.281631  0.390061  0  0.951449  0
H  H58  1  0.71759176  0.02305678  0.07007127  1  0.654177  0  0.281579  0.390018  0  0.951497  0
H  H59  1  0.05093693  0.04698993  0.97693388  1  0.667914  0  0.281559  0.39002  0  0.951466  0
H  H60  1  0.61571429  0.07006065  0.02307068  1  0.65424  0  0.281642  0.390139  0  0.951365  0
H  H61  1  0.28240226  0.97694987  0.04702650  1  0.665843  0  0.281636  0.390118  0  0.951364  0
H  H62  1  0.94905573  0.95299993  0.92993974  1  0.66633  0  0.281551  0.389998  0  0.951569  0
C  C63  1  0.21580185  0.94502754  0.22215516  1  1.575671  0  0.19489  0.544167  0  4.189389  0
C  C64  1  0.54914049  0.27711730  0.05494088  1  1.573557  0  0.195049  0.544399  0  4.189411  0
C  C65  1  0.88247614  0.77785205  0.72290331  1  1.596733  0  0.19511  0.54446  0  4.189205  0
C  C66  1  0.78418663  0.05496301  0.27711554  1  1.574971  0  0.195023  0.544351  0  4.189255  0
C  C67  1  0.45085767  0.72288755  0.77782742  1  1.593285  0  0.194999  0.544313  0  4.18961  0
C  C68  1  0.11752155  0.22214566  0.94505727  1  1.572992  0  0.194973  0.544361  0  4.189658  0
C  C69  1  0.33844744  0.92857387  0.24764339  1  0.36183  0  0.012877  0.079596  0  3.876412  0
C  C70  1  0.67177428  0.31907724  0.07142545  1  0.356358  0  0.012916  0.079619  0  3.876469  0
C  C71  1  0.00511376  0.75235092  0.68093947  1  0.339753  0  0.012939  0.079564  0  3.876462  0
C  C72  1  0.66154832  0.07142871  0.31907126  1  0.354915  0  0.012897  0.079439  0  3.876781  0
C  C73  1  0.32822559  0.68092397  0.75234892  1  0.342108  0  0.012919  0.079616  0  3.876537  0
C  C74  1  0.99488163  0.24764962  0.92859634  1  0.36047  0  0.013011  0.079476  0  3.876784  0
C  C75  1  0.38176675  0.80543462  0.16281642  1  -0.141049  0  -0.242351  -0.416902  0  3.904654  0
C  C76  1  0.71507450  0.35738778  0.19456034  1  -0.10146  0  -0.242369  -0.416776  0  3.905006  0
C  C77  1  0.04842734  0.83717103  0.64262224  1  -0.121555  0  -0.242363  -0.416741  0  3.904914  0
C  C78  1  0.61822918  0.19456891  0.35738551  1  -0.1015  0  -0.242333  -0.416804  0  3.904641  0
C  C79  1  0.28492212  0.64261140  0.83716910  1  -0.117941  0  -0.242373  -0.416825  0  3.904908  0
C  C80  1  0.95156696  0.16282922  0.80546195  1  -0.14124  0  -0.242262  -0.416494  0  3.904876  0
C  C81  1  0.35837666  0.06447805  0.45917462  1  1.414455  0  0.23821  0.4661  0  4.170081  0
C  C82  1  0.69169148  0.39470903  0.93552192  1  1.420027  0  0.238298  0.466242  0  4.169989  0
C  C83  1  0.02503646  0.54080855  0.60529548  1  1.41305  0  0.238179  0.465963  0  4.170392  0
C  C84  1  0.64162896  0.93552820  0.39469753  1  1.419867  0  0.23829  0.466224  0  4.170098  0
C  C85  1  0.30831526  0.60529028  0.54081548  1  1.413003  0  0.238229  0.466099  0  4.170392  0
C  C86  1  0.97496646  0.45919126  0.06448837  1  1.414822  0  0.238239  0.466003  0  4.170287  0
C  C87  1  0.36195383  0.07408914  0.57746818  1  -0.048249  0  0.006434  0.017588  0  3.987404  0
C  C88  1  0.69528279  0.50338741  0.92591837  1  -0.032085  0  0.006402  0.017534  0  3.9876  0
C  C89  1  0.02863929  0.42252650  0.49661569  1  -0.097417  0  0.006413  0.017749  0  3.987425  0
C  C90  1  0.63805348  0.92591227  0.50337801  1  -0.027316  0  0.006477  0.017594  0  3.987559  0
C  C91  1  0.30472441  0.49661243  0.42253200  1  -0.098474  0  0.006525  0.017629  0  3.987676  0
C  C92  1  0.97136232  0.57747504  0.07409437  1  -0.048091  0  0.006436  0.017777  0  3.987391  0
C  C93  1  0.43409507  0.15622967  0.66220676  1  -0.033284  0  -0.077701  -0.146948  0  3.950327  0
C  C94  1  0.76742875  0.50597961  0.84377371  1  -0.025856  0  -0.077711  -0.146992  0  3.950522  0
C  C95  1  0.10078765  0.33776713  0.49399832  1  0.000197  0  -0.077882  -0.147334  0  3.950736  0
C  C96  1  0.56590942  0.84377166  0.50597462  1  -0.031074  0  -0.077801  -0.147066  0  3.950578  0
C  C97  1  0.23258239  0.49402511  0.33779429  1  -0.000461  0  -0.077856  -0.147172  0  3.950475  0
C  C98  1  0.89920363  0.66222900  0.15622762  1  -0.032553  0  -0.077929  -0.147342  0  3.950779  0
C  C99  1  0.43718883  0.16714071  0.77264595  1  0.476161  0  0.052946  0.11009  0  3.918983  0
C  C100  1  0.77051519  0.60549075  0.83283710  1  0.482841  0  0.052994  0.110223  0  3.919037  0
C  C101  1  0.10384909  0.22732510  0.39447253  1  0.468204  0  0.053067  0.11054  0  3.918919  0
C  C102  1  0.56280990  0.83286131  0.60550548  1  0.484554  0  0.053022  0.11021  0  3.919023  0
C  C103  1  0.22948467  0.39450732  0.22734627  1  0.468246  0  0.052984  0.110151  0  3.918843  0
C  C104  1  0.89614669  0.77267101  0.16714358  1  0.476287  0  0.053035  0.11049  0  3.918935  0
C  C105  1  0.30199804  0.02345280  0.72069015  1  0.476364  0  0.054192  0.107595  0  3.941783  0
C  C106  1  0.63533653  0.69724521  0.97654313  1  0.467357  0  0.054102  0.107548  0  3.942151  0
C  C107  1  0.96866343  0.27930960  0.30276107  1  0.480374  0  0.054206  0.107726  0  3.941753  0
C  C108  1  0.69800054  0.97655044  0.69724113  1  0.467582  0  0.05418  0.10761  0  3.941859  0
C  C109  1  0.36467100  0.30275202  0.27929046  1  0.480045  0  0.054027  0.107512  0  3.942209  0
C  C110  1  0.03133487  0.72068797  0.02345050  1  0.477358  0  0.054186  0.107647  0  3.941843  0
C  C111  1  0.29513008  0.00562583  0.60732620  1  0.047463  0  -0.079729  -0.159533  0  3.937994  0
C  C112  1  0.62846548  0.60171720  0.99438908  1  0.022573  0  -0.07972  -0.159543  0  3.938276  0
C  C113  1  0.96181076  0.39267996  0.39829676  1  0.079171  0  -0.079635  -0.159579  0  3.937975  0
C  C114  1  0.70486925  0.99437733  0.60170404  1  0.024324  0  -0.07972  -0.159517  0  3.938174  0
C  C115  1  0.37153991  0.39828097  0.39266807  1  0.080221  0  -0.079635  -0.159331  0  3.938191  0
C  C116  1  0.03818977  0.60732055  0.00561888  1  0.046893  0  -0.079594  -0.159518  0  3.937941  0
N  N117  1  0.35166385  0.95383191  0.36752970  1  -1.205911  0  -0.415441  -0.367571  0  3.581742  0
N  N118  1  0.68499493  0.41371323  0.04617096  1  -1.214667  0  -0.415579  -0.367664  0  3.581353  0
N  N119  1  0.01833708  0.63245628  0.58630149  1  -1.201542  0  -0.415352  -0.367335  0  3.581554  0
N  N120  1  0.64833700  0.04617739  0.41370398  1  -1.215276  0  -0.41552  -0.367664  0  3.581823  0
N  N121  1  0.31500796  0.58628739  0.63245925  1  -1.20086  0  -0.415547  -0.36761  0  3.581392  0
N  N122  1  0.98166358  0.36754244  0.95385060  1  -1.205552  0  -0.415428  -0.36734  0  3.58175  0
N  N123  1  0.37115530  0.10297630  0.80203535  1  -1.227143  0  -0.323202  -0.236173  0  3.485721  0
N  N124  1  0.70448755  0.69905808  0.89701029  1  -1.234059  0  -0.32315  -0.236233  0  3.486154  0
N  N125  1  0.03781242  0.19795181  0.30092786  1  -1.234443  0  -0.323247  -0.236382  0  3.485967  0
N  N126  1  0.62884383  0.89702436  0.69905846  1  -1.234937  0  -0.323217  -0.236234  0  3.485822  0
N  N127  1  0.29551637  0.30094102  0.19794839  1  -1.234059  0  -0.323125  -0.236271  0  3.486031  0
N  N128  1  0.96217974  0.80204400  0.10296817  1  -1.228808  0  -0.323232  -0.23631  0  3.48599  0
O  O129  1  0.33336874  0.99764972  0.00005912  1  -1.321428  0  -0.613342  -0.79141  0  2.068043  0
O  O130  1  0.66662820  0.00235405  0.00240072  1  -1.300646  0  -0.613307  -0.791409  0  2.06803  0
O  O131  1  0.00000008  0.99999198  0.99762427  1  -1.324233  0  -0.613197  -0.791297  0  2.06826  0
O  O132  1  0.36478456  0.15311888  0.44856069  1  -1.148137  0  -0.309593  -0.512034  0  2.111103  0
O  O133  1  0.69812134  0.29544677  0.84688029  1  -1.160707  0  -0.309605  -0.512106  0  2.111032  0
O  O134  1  0.03147314  0.55142711  0.70455285  1  -1.144488  0  -0.309604  -0.512062  0  2.111104  0
O  O135  1  0.63521893  0.84688555  0.29544474  1  -1.160782  0  -0.309582  -0.512042  0  2.111253  0
O  O136  1  0.30188234  0.70455211  0.55143451  1  -1.144763  0  -0.309607  -0.512081  0  2.111194  0
O  O137  1  0.96853330  0.44857816  0.15313232  1  -1.148541  0  -0.309668  -0.512124  0  2.110945  0
O  O138  1  0.14037448  0.95734663  0.29390594  1  -1.166749  0  -0.333299  -0.549252  0  2.1456  0
O  O139  1  0.47370779  0.33653889  0.04261343  1  -1.170756  0  -0.333347  -0.549363  0  2.145791  0
O  O140  1  0.80704430  0.70611462  0.66347726  1  -1.173986  0  -0.333433  -0.549462  0  2.145436  0
O  O141  1  0.85961939  0.04263684  0.33653558  1  -1.171105  0  -0.333294  -0.549258  0  2.14552  0
O  O142  1  0.52629402  0.66346310  0.70608162  1  -1.173085  0  -0.333309  -0.54933  0  2.145834  0
O  O143  1  0.19295273  0.29388157  0.95736989  1  -1.165506  0  -0.333332  -0.549345  0  2.145882  0
O  O144  1  0.19717003  0.94607073  0.12654886  1  -1.18063  0  -0.327267  -0.571969  0  2.253024  0
O  O145  1  0.53050800  0.18047299  0.05391525  1  -1.181185  0  -0.327266  -0.57204  0  2.252928  0
O  O146  1  0.86383404  0.87347491  0.81953336  1  -1.190772  0  -0.327333  -0.572081  0  2.253137  0
O  O147  1  0.80282080  0.05394511  0.18047939  1  -1.181635  0  -0.327389  -0.572081  0  2.253125  0
O  O148  1  0.46948816  0.81953008  0.87344787  1  -1.190195  0  -0.327254  -0.571972  0  2.25303  0
O  O149  1  0.13615829  0.12651988  0.94606036  1  -1.179198  0  -0.327298  -0.572039  0  2.253218  0
