# generated using pymatgen
data_Yb2CuH16C24(N2O5)4
_symmetry_space_group_name_H-M   'P 1'
_cell_length_a   6.00716051
_cell_length_b   12.07509373
_cell_length_c   21.63493616
_cell_angle_alpha   89.99958825
_cell_angle_beta   90.00012308
_cell_angle_gamma   92.51516674
_symmetry_Int_Tables_number   1
_chemical_formula_structural   Yb2CuH16C24(N2O5)4
_chemical_formula_sum   'Yb4 Cu2 H32 C48 N16 O40'
_cell_volume   1567.82209820
_cell_formula_units_Z   2
loop_
 _symmetry_equiv_pos_site_id
 _symmetry_equiv_pos_as_xyz
  1  'x, y, z'
loop_
 _atom_site_type_symbol
 _atom_site_label
 _atom_site_symmetry_multiplicity
 _atom_site_fract_x
 _atom_site_fract_y
 _atom_site_fract_z
 _atom_site_occupancy
 _atom_site_pbe_bader_charge
 _atom_site_pbe_bader_spin_density
 _atom_site_pbe_cm5_charge
 _atom_site_pbe_ddec_charge
 _atom_site_pbe_ddec_spin_density
 _atom_site_pbe_ddec_sum_bond_order
 _atom_site_pbe_magmom
Yb  Yb0  1  0.51930185  0.56362828  0.65761568  1  2.187534  7.6e-05  1.602668  2.054035  7.6e-05  2.180091  0.0
Yb  Yb1  1  0.98069141  0.93636602  0.15760880  1  2.187628  7.6e-05  1.602616  2.053977  7.6e-05  2.180088  0.0
Yb  Yb2  1  0.48069634  0.43636396  0.34238448  1  2.187515  7.6e-05  1.602692  2.053994  7.6e-05  2.18012  0.0
Yb  Yb3  1  0.01929570  0.06363127  0.84239044  1  2.187496  7.6e-05  1.602671  2.054055  7.6e-05  2.179954  0.0
Cu  Cu4  1  0.00001287  0.99999867  0.50000215  1  1.08591  0.570636  0.768261  0.771865  0.730478  2.282408  0.568
Cu  Cu5  1  0.50001102  0.50000938  0.99999832  1  1.086048  0.570646  0.768352  0.77198  0.730485  2.282401  0.568
H  H6  1  0.38044903  0.34063564  0.63156353  1  0.673489  -1e-06  0.304684  0.419097  -5e-06  0.908851  0.0
H  H7  1  0.11954480  0.15936341  0.13156051  1  0.673559  -1e-06  0.304659  0.419107  -5e-06  0.908849  0.0
H  H8  1  0.61953994  0.65936330  0.36843664  1  0.673537  -1e-06  0.30466  0.419035  -5e-06  0.90888  0.0
H  H9  1  0.88044622  0.84063883  0.86843826  1  0.673532  -1e-06  0.304648  0.419031  -5e-06  0.908934  0.0
H  H10  1  0.56330777  0.35119096  0.57828360  1  0.664356  -3.5e-05  0.306561  0.428751  -7e-05  0.881066  0.0
H  H11  1  0.93669107  0.14881053  0.07828154  1  0.664352  -3.5e-05  0.306579  0.42873  -7e-05  0.881104  0.0
H  H12  1  0.43669080  0.64880459  0.42171795  1  0.664338  -3.5e-05  0.30654  0.428696  -7e-05  0.88114  0.0
H  H13  1  0.06331011  0.85119330  0.92171677  1  0.663933  -3.5e-05  0.306643  0.428885  -7e-05  0.880892  0.0
H  H14  1  0.28720835  0.64958253  0.54605805  1  0.667662  0.000319  0.307519  0.419422  0.000345  0.899888  0.0
H  H15  1  0.21279631  0.85042044  0.04605067  1  0.667521  0.000319  0.307498  0.419357  0.000345  0.899954  0.0
H  H16  1  0.71277867  0.35041393  0.45394442  1  0.667576  0.000319  0.307461  0.419289  0.000345  0.900053  0.0
H  H17  1  0.78719351  0.14958595  0.95394903  1  0.66748  0.000319  0.307457  0.419283  0.000345  0.900057  0.0
H  H18  1  0.10514830  0.57951216  0.58919642  1  0.638616  1.1e-05  0.316894  0.427722  8e-06  0.879132  0.0
H  H19  1  0.39483973  0.92048514  0.08919497  1  0.638648  1.1e-05  0.316863  0.427688  8e-06  0.879167  0.0
H  H20  1  0.89483881  0.42048513  0.41080513  1  0.638705  1.1e-05  0.316873  0.427718  8e-06  0.879131  0.0
H  H21  1  0.60514591  0.07951382  0.91080935  1  0.638524  1.1e-05  0.316848  0.427682  8e-06  0.879196  0.0
H  H22  1  0.49810727  0.08267386  0.68573465  1  0.125175  0.001187  0.124782  0.108693  0.000648  0.981576  0.001
H  H23  1  0.00189135  0.41733804  0.18572251  1  0.125243  0.001187  0.124885  0.108834  0.000648  0.981547  0.001
H  H24  1  0.50193427  0.91731892  0.31426737  1  0.125186  0.001187  0.124855  0.108736  0.000648  0.981584  0.001
H  H25  1  0.99811763  0.58267570  0.81426841  1  0.125253  0.001187  0.124866  0.108765  0.000648  0.9815  0.001
H  H26  1  0.18327097  0.12432836  0.61306103  1  0.205555  0.002366  0.131345  0.1279  0.001128  1.012112  0.002
H  H27  1  0.31674037  0.37568289  0.11305158  1  0.205681  0.002366  0.131335  0.127886  0.001128  1.012023  0.002
H  H28  1  0.81675027  0.87567617  0.38694976  1  0.205599  0.002365  0.131385  0.12797  0.001127  1.011976  0.002
H  H29  1  0.68327712  0.62433245  0.88694350  1  0.205533  0.002366  0.131346  0.127876  0.001128  1.012095  0.002
H  H30  1  0.03483903  0.73322765  0.64957703  1  0.156292  -4e-06  0.129351  0.106517  -4e-06  1.027676  0.0
H  H31  1  0.46516237  0.76675898  0.14956812  1  0.156416  -4e-06  0.129326  0.106578  -4e-06  1.027688  0.0
H  H32  1  0.96515374  0.26677541  0.35042267  1  0.156306  -4e-06  0.129355  0.10657  -4e-06  1.027636  0.0
H  H33  1  0.53482318  0.23323915  0.85043204  1  0.156287  -4e-06  0.129331  0.10658  -4e-06  1.02768  0.0
H  H34  1  0.87438608  0.89519304  0.70647853  1  0.188868  1e-06  0.120287  0.08756  -2e-06  1.054233  0.0
H  H35  1  0.62561023  0.60479607  0.20646937  1  0.188757  1e-06  0.120277  0.087584  -2e-06  1.054274  0.0
H  H36  1  0.12560807  0.10480752  0.29352256  1  0.18887  1e-06  0.120314  0.087528  -2e-06  1.054291  0.0
H  H37  1  0.37440683  0.39520102  0.79353033  1  0.188881  1e-06  0.120284  0.087527  -2e-06  1.05437  0.0
C  C38  1  0.70610532  0.78897731  0.57545921  1  1.659682  0.001413  0.227622  0.619991  0.000967  4.218686  0.001
C  C39  1  0.79389835  0.71102004  0.07544354  1  1.658131  0.001412  0.227609  0.619897  0.000966  4.218363  0.001
C  C40  1  0.29389463  0.21101575  0.42454188  1  1.659547  0.001412  0.227648  0.620015  0.000966  4.218577  0.001
C  C41  1  0.20612076  0.28898036  0.92454830  1  1.657894  0.001413  0.22764  0.619924  0.000967  4.218712  0.001
C  C42  1  0.54091001  0.87740993  0.58749910  1  0.59773  0.002881  0.132661  0.061094  0.001941  3.942037  0.002
C  C43  1  0.95907661  0.62259039  0.08748554  1  0.598169  0.002881  0.132801  0.061494  0.001941  3.941423  0.002
C  C44  1  0.45910938  0.12259295  0.41249967  1  0.59826  0.002881  0.132655  0.06116  0.001941  3.941802  0.002
C  C45  1  0.04090618  0.37741274  0.91250446  1  0.598046  0.00288  0.132684  0.061163  0.001941  3.941953  0.002
C  C46  1  0.46166997  0.02952256  0.64595204  1  0.532209  0.006012  0.067534  0.088301  0.004063  3.896479  0.005
C  C47  1  0.03834020  0.47048165  0.14593613  1  0.532336  0.006011  0.067512  0.088361  0.004062  3.89681  0.005
C  C48  1  0.53835826  0.97047031  0.35405460  1  0.531516  0.006013  0.067524  0.088352  0.004062  3.896628  0.005
C  C49  1  0.96166155  0.52952716  0.85405387  1  0.531507  0.006013  0.067399  0.088119  0.004063  3.896518  0.005
C  C50  1  0.28532126  0.05313908  0.60654121  1  0.498208  -0.001142  0.062906  0.062114  -0.001567  3.849291  -0.001
C  C51  1  0.21467625  0.44686421  0.10652675  1  0.498762  -0.001142  0.063  0.062159  -0.001567  3.849343  -0.001
C  C52  1  0.71468719  0.94685558  0.39346727  1  0.498799  -0.001144  0.062873  0.062105  -0.001567  3.849271  -0.001
C  C53  1  0.78533263  0.55314869  0.89346509  1  0.498753  -0.001143  0.062982  0.062292  -0.001567  3.849253  -0.001
C  C54  1  0.36292499  0.89786185  0.54801893  1  0.430137  -2e-06  0.113325  0.023973  -0.001161  3.929341  0.0
C  C55  1  0.13706595  0.60213865  0.04800290  1  0.430248  -1e-06  0.113316  0.024072  -0.001161  3.928976  0.0
C  C56  1  0.63709373  0.10213523  0.45198261  1  0.430079  -5e-06  0.113344  0.024101  -0.001162  3.928729  0.0
C  C57  1  0.86292435  0.39787189  0.95198709  1  0.429534  -3e-06  0.113317  0.023958  -0.001162  3.929039  0.0
C  C58  1  0.29643934  0.83275225  0.49072935  1  1.642198  0.001325  0.213984  0.560326  0.001644  4.215675  0.001
C  C59  1  0.20357841  0.66725536  0.99071410  1  1.641434  0.001327  0.213907  0.560122  0.001647  4.216067  0.001
C  C60  1  0.70357791  0.16724650  0.50927498  1  1.642601  0.001324  0.214015  0.560255  0.001645  4.215159  0.001
C  C61  1  0.79642567  0.33275924  0.00927682  1  1.642242  0.001325  0.214073  0.560354  0.001644  4.215695  0.001
C  C62  1  0.63549490  0.72770396  0.77278372  1  1.622239  1.5e-05  0.22117  0.584589  1.4e-05  4.234002  0.0
C  C63  1  0.86450464  0.77229092  0.27277885  1  1.622374  1.5e-05  0.221011  0.584407  1.4e-05  4.234071  0.0
C  C64  1  0.36449972  0.27230075  0.22721551  1  1.622263  1.5e-05  0.221192  0.584607  1.4e-05  4.233808  0.0
C  C65  1  0.13548708  0.22770302  0.72722316  1  1.62221  1.5e-05  0.22099  0.584546  1.4e-05  4.234247  0.0
C  C66  1  0.43452552  0.78659505  0.75000385  1  0.591979  -2.2e-05  0.127867  0.063421  -3.8e-05  3.923605  0.0
C  C67  1  0.06547492  0.71339359  0.24999791  1  0.591954  -2.2e-05  0.127995  0.063419  -3.8e-05  3.923826  0.0
C  C68  1  0.56546141  0.21340058  0.24999631  1  0.592292  -2.2e-05  0.128  0.063659  -3.8e-05  3.923377  0.0
C  C69  1  0.93453520  0.28660106  0.75000502  1  0.591997  -2.2e-05  0.12789  0.06321  -3.8e-05  3.924047  0.0
C  C70  1  0.12419427  0.77432140  0.68749428  1  0.513371  -1e-06  0.068708  0.092685  -5e-06  3.86356  0.0
C  C71  1  0.37580069  0.72567296  0.18748701  1  0.513174  -1e-06  0.06879  0.092701  -5e-06  3.863747  0.0
C  C72  1  0.87578305  0.22567761  0.31251004  1  0.513619  -1e-06  0.068688  0.0926  -5e-06  3.863609  0.0
C  C73  1  0.62421128  0.27432333  0.81251731  1  0.513394  -1e-06  0.068784  0.092734  -5e-06  3.863716  0.0
C  C74  1  0.03814575  0.86519394  0.71810161  1  0.476552  -3.4e-05  0.066421  0.088088  -5.4e-05  3.871386  0.0
C  C75  1  0.46185708  0.63479838  0.21809641  1  0.476594  -3.4e-05  0.066396  0.088141  -5.4e-05  3.871026  0.0
C  C76  1  0.96184136  0.13480335  0.28190225  1  0.476418  -3.4e-05  0.066404  0.088205  -5.4e-05  3.871061  0.0
C  C77  1  0.53815637  0.36519625  0.78190652  1  0.476707  -3.4e-05  0.066421  0.088205  -5.4e-05  3.871226  0.0
C  C78  1  0.36094886  0.88570753  0.77510994  1  0.482112  -1.1e-05  0.138329  0.072405  -1.4e-05  3.894994  0.0
C  C79  1  0.13905159  0.61428016  0.27510690  1  0.482452  -1.1e-05  0.138281  0.072357  -1.4e-05  3.895242  0.0
C  C80  1  0.63903935  0.11428477  0.22489207  1  0.482344  -1.1e-05  0.138205  0.072093  -1.4e-05  3.895343  0.0
C  C81  1  0.86095530  0.38571534  0.72489788  1  0.482575  -1.1e-05  0.138367  0.072592  -1.4e-05  3.895268  0.0
C  C82  1  0.49771675  0.96619464  0.81490954  1  1.641648  1e-06  0.246364  0.633764  2e-06  4.137602  0.0
C  C83  1  0.00228074  0.53380317  0.31490634  1  1.641004  1e-06  0.246285  0.633684  2e-06  4.137735  0.0
C  C84  1  0.50226908  0.03380598  0.18509525  1  1.640928  1e-06  0.246189  0.633619  2e-06  4.137704  0.0
C  C85  1  0.99771792  0.46619321  0.68509983  1  1.641415  1e-06  0.246272  0.633623  2e-06  4.138078  0.0
N  N86  1  0.23964132  0.98642221  0.55871576  1  -1.206653  0.075325  -0.344501  -0.20571  0.050034  3.698239  0.065
N  N87  1  0.26035770  0.51358198  0.05870342  1  -1.207447  0.075322  -0.344635  -0.205973  0.050033  3.698182  0.065
N  N88  1  0.76037526  0.01357074  0.44129226  1  -1.206704  0.07532  -0.344635  -0.206012  0.05003  3.69799  0.065
N  N89  1  0.73962984  0.48643355  0.94128981  1  -1.206627  0.075325  -0.34463  -0.205959  0.050032  3.698146  0.065
N  N90  1  0.58724704  0.94252395  0.63689769  1  -1.161928  -0.002432  -0.284172  -0.22933  -0.003028  3.300947  -0.002
N  N91  1  0.91276350  0.55747932  0.13688502  1  -1.16196  -0.002432  -0.284289  -0.229635  -0.003027  3.301235  -0.002
N  N92  1  0.41278888  0.05747800  0.36309924  1  -1.162153  -0.002433  -0.284112  -0.229347  -0.003028  3.300889  -0.002
N  N93  1  0.08724101  0.44252449  0.86310497  1  -1.161594  -0.002434  -0.284112  -0.229249  -0.003029  3.301056  -0.002
N  N94  1  0.31626128  0.73254906  0.70557481  1  -1.21587  2.3e-05  -0.333492  -0.31382  1e-05  3.481805  0.0
N  N95  1  0.18374090  0.76744540  0.20557114  1  -1.215785  2.3e-05  -0.333526  -0.313912  1e-05  3.482282  0.0
N  N96  1  0.68372279  0.26745074  0.29442443  1  -1.216162  2.3e-05  -0.333604  -0.313991  1e-05  3.48201  0.0
N  N97  1  0.81626912  0.23254842  0.79443180  1  -1.216131  2.3e-05  -0.33356  -0.313975  1e-05  3.48234  0.0
N  N98  1  0.15477302  0.91882928  0.76241324  1  -1.203691  -0.0  -0.334139  -0.294536  -3e-06  3.473227  0.0
N  N99  1  0.34522190  0.58116142  0.26240810  1  -1.203794  -0.0  -0.334118  -0.294484  -3e-06  3.473074  0.0
N  N100  1  0.84521039  0.08116472  0.23759108  1  -1.203603  -0.0  -0.334032  -0.294317  -3e-06  3.473033  0.0
N  N101  1  0.65478480  0.41883243  0.73759391  1  -1.203888  -0.0  -0.334092  -0.294491  -3e-06  3.473031  0.0
O  O102  1  0.67783157  0.69625717  0.60326585  1  -1.202047  0.001584  -0.445105  -0.681281  0.001015  2.377494  0.001
O  O103  1  0.82215049  0.80374093  0.10325481  1  -1.2021  0.001584  -0.444922  -0.681158  0.001015  2.377055  0.001
O  O104  1  0.32217275  0.30374499  0.39673061  1  -1.201955  0.001583  -0.445226  -0.681434  0.001015  2.377184  0.001
O  O105  1  0.17783701  0.19625968  0.89673287  1  -1.201597  0.001585  -0.445167  -0.681374  0.001016  2.377212  0.001
O  O106  1  0.86842371  0.81708633  0.54231936  1  -1.142637  0.004444  -0.295212  -0.529786  0.002443  2.204753  0.005
O  O107  1  0.63155428  0.68290165  0.04231095  1  -1.141182  0.004449  -0.295332  -0.529795  0.002446  2.204729  0.005
O  O108  1  0.13160062  0.18290159  0.45767849  1  -1.142561  0.004436  -0.295111  -0.529662  0.002438  2.205119  0.005
O  O109  1  0.36841843  0.31710071  0.95767997  1  -1.141381  0.004444  -0.295142  -0.529565  0.002443  2.205187  0.005
O  O110  1  0.36686177  0.73661310  0.48398152  1  -1.180068  0.01839  -0.286593  -0.511113  0.011262  2.169214  0.015
O  O111  1  0.13314497  0.76339649  0.98397078  1  -1.179526  0.018385  -0.286623  -0.511123  0.011258  2.169581  0.015
O  O112  1  0.63314531  0.26338405  0.51602095  1  -1.180071  0.018384  -0.286564  -0.511031  0.011258  2.169298  0.015
O  O113  1  0.86686282  0.23662140  0.01602476  1  -1.179965  0.018388  -0.286685  -0.511136  0.011261  2.169497  0.015
O  O114  1  0.17415408  0.88405330  0.45276454  1  -1.100639  0.101584  -0.310264  -0.510521  0.064257  2.266105  0.091
O  O115  1  0.32587468  0.61595734  0.95275310  1  -1.100696  0.101558  -0.310245  -0.510542  0.064243  2.266098  0.091
O  O116  1  0.82587453  0.11594289  0.54723886  1  -1.100961  0.101591  -0.310352  -0.51059  0.064262  2.265729  0.091
O  O117  1  0.67412450  0.38405812  0.04723736  1  -1.10046  0.101584  -0.310329  -0.510598  0.064258  2.265977  0.091
O  O118  1  0.69331476  0.64659217  0.73910953  1  -1.183955  0.000104  -0.415264  -0.692525  5.8e-05  2.381572  0.0
O  O119  1  0.80667065  0.85340657  0.23910549  1  -1.183994  0.000104  -0.415259  -0.692488  5.8e-05  2.381364  0.0
O  O120  1  0.30666266  0.35340767  0.26088647  1  -1.18394  0.000104  -0.415187  -0.692349  5.8e-05  2.381577  0.0
O  O121  1  0.19331822  0.14659154  0.76089190  1  -1.184033  0.000103  -0.415149  -0.692384  5.8e-05  2.381571  0.0
O  O122  1  0.72466009  0.75710609  0.82262102  1  -1.184432  0.00021  -0.292455  -0.520795  0.000144  2.233598  0.0
O  O123  1  0.77534240  0.74289767  0.32261829  1  -1.184364  0.00021  -0.292388  -0.520698  0.000144  2.233593  0.0
O  O124  1  0.27533572  0.24289446  0.17737313  1  -1.184626  0.00021  -0.29253  -0.520989  0.000144  2.233293  0.0
O  O125  1  0.22465841  0.25710285  0.67737956  1  -1.1842  0.00021  -0.292433  -0.52083  0.000144  2.233392  0.0
O  O126  1  0.70011049  0.98599790  0.80078072  1  -1.193405  8.2e-05  -0.388483  -0.640289  5.8e-05  2.327928  0.0
O  O127  1  0.79989158  0.51400502  0.30077786  1  -1.193129  8.1e-05  -0.388465  -0.6402  5.7e-05  2.32778  0.0
O  O128  1  0.29987349  0.01400107  0.19922407  1  -1.193221  8.2e-05  -0.38839  -0.640136  5.8e-05  2.327659  0.0
O  O129  1  0.20012086  0.48599542  0.69922507  1  -1.193209  8.2e-05  -0.388509  -0.640272  5.8e-05  2.327883  0.0
O  O130  1  0.39243460  0.01444143  0.85736588  1  -1.174714  5.8e-05  -0.357152  -0.614985  2.7e-05  2.275601  0.0
O  O131  1  0.10755803  0.48555239  0.35736522  1  -1.174645  5.8e-05  -0.357092  -0.614943  2.7e-05  2.275512  0.0
O  O132  1  0.60755104  0.98555752  0.14263891  1  -1.17449  5.8e-05  -0.357044  -0.614924  2.7e-05  2.275771  0.0
O  O133  1  0.89244515  0.51443982  0.64264280  1  -1.174939  5.8e-05  -0.357082  -0.614938  2.7e-05  2.275913  0.0
O  O134  1  0.48470687  0.39377593  0.61013885  1  -1.307964  -7e-06  -0.667665  -0.888735  -2.8e-05  2.042353  0.0
O  O135  1  0.01529972  0.10622136  0.11013320  1  -1.308023  -7e-06  -0.667677  -0.888706  -2.8e-05  2.042273  0.0
O  O136  1  0.51528680  0.60622049  0.38986223  1  -1.308028  -7e-06  -0.667618  -0.888616  -2.8e-05  2.042381  0.0
O  O137  1  0.98467984  0.89378261  0.88986974  1  -1.307634  -7e-06  -0.667703  -0.888766  -2.8e-05  2.042233  0.0
O  O138  1  0.26258881  0.60402687  0.58379825  1  -1.280761  0.000974  -0.660638  -0.882988  0.000601  2.113001  0.001
O  O139  1  0.23740300  0.89597144  0.08379347  1  -1.280734  0.000974  -0.660574  -0.882887  0.000601  2.113068  0.001
O  O140  1  0.73739654  0.39596960  0.41620468  1  -1.280752  0.000974  -0.660557  -0.882871  0.000601  2.113099  0.001
O  O141  1  0.76258588  0.10402667  0.91620993  1  -1.280477  0.000974  -0.660487  -0.882801  0.000601  2.113175  0.001
