# generated using pymatgen
data_ZnH6C6SO6
_symmetry_space_group_name_H-M   'P 1'
_cell_length_a   4.91302675
_cell_length_b   6.53110499
_cell_length_c   14.28211671
_cell_angle_alpha   89.99949783
_cell_angle_beta   90.00042079
_cell_angle_gamma   112.24516132
_symmetry_Int_Tables_number   1
_chemical_formula_structural   ZnH6C6SO6
_chemical_formula_sum   'Zn2 H12 C12 S2 O12'
_cell_volume   424.16888094
_cell_formula_units_Z   2
loop_
 _symmetry_equiv_pos_site_id
 _symmetry_equiv_pos_as_xyz
  1  'x, y, z'
loop_
 _atom_site_type_symbol
 _atom_site_label
 _atom_site_symmetry_multiplicity
 _atom_site_fract_x
 _atom_site_fract_y
 _atom_site_fract_z
 _atom_site_occupancy
 _atom_site_pbe_bader_spin_density
 _atom_site_pbe_cm5_charge
 _atom_site_pbe_ddec_charge
 _atom_site_pbe_ddec_spin_density
 _atom_site_pbe_ddec_sum_bond_order
 _atom_site_pbe_magmom
Zn  Zn0  1  0.68870164  0.99468453  0.00129841  1  0  0.691145  1.011271  0  2.159295  0
Zn  Zn1  1  0.31129745  0.00529574  0.50129443  1  0  0.691147  1.011269  0  2.159286  0
H  H2  1  0.15348295  0.36591667  0.05958587  1  0  0.296901  0.413486  0  0.918128  0
H  H3  1  0.84650757  0.63406434  0.55957933  1  0  0.296971  0.413562  0  0.918028  0
H  H4  1  0.20951085  0.37214166  0.44194732  1  0  0.296856  0.413293  0  0.918617  0
H  H5  1  0.79049308  0.62785003  0.94194836  1  0  0.296814  0.413289  0  0.918633  0
H  H6  1  0.20850192  0.13554042  0.07858779  1  0  0.293664  0.393622  0  0.943844  0
H  H7  1  0.79150847  0.86444693  0.57858718  1  0  0.293666  0.393604  0  0.943867  0
H  H8  1  0.92678583  0.13870744  0.42406480  1  0  0.29404  0.394841  0  0.942319  0
H  H9  1  0.07319991  0.86128120  0.92406167  1  0  0.294055  0.394928  0  0.94221  0
H  H10  1  0.82946636  0.33520507  0.17990719  1  0  0.107828  0.125253  0  1.028211  0
H  H11  1  0.17050858  0.66480880  0.67990301  1  0  0.107807  0.125215  0  1.028257  0
H  H12  1  0.45902402  0.33810988  0.31241999  1  0  0.106798  0.122649  0  1.03288  0
H  H13  1  0.54095918  0.66189866  0.81242586  1  0  0.106782  0.122599  0  1.03294  0
C  C14  1  0.25291695  0.76286634  0.11802612  1  0  0.205205  0.574734  0  4.244764  0
C  C15  1  0.74707873  0.23714685  0.61801952  1  0  0.205238  0.574807  0  4.24475  0
C  C16  1  0.50178726  0.76714647  0.38305227  1  0  0.20489  0.574054  0  4.246229  0
C  C17  1  0.49824259  0.23287095  0.88305205  1  0  0.204767  0.574017  0  4.246421  0
C  C18  1  0.01568894  0.69640833  0.18801767  1  0  -0.023336  -0.133991  0  3.975768  0
C  C19  1  0.98432925  0.30360215  0.68801071  1  0  -0.023356  -0.134043  0  3.97572  0
C  C20  1  0.66505513  0.69904281  0.31134966  1  0  -0.022963  -0.131588  0  3.975594  0
C  C21  1  0.33493001  0.30095748  0.81135715  1  0  -0.022848  -0.131473  0  3.975628  0
C  C22  1  0.82485286  0.48436699  0.21249800  1  0  -0.087419  -0.080423  0  3.927098  0
C  C23  1  0.17514408  0.51564475  0.71250142  1  0  -0.087413  -0.080377  0  3.927088  0
C  C24  1  0.62578563  0.48595072  0.28294388  1  0  -0.088117  -0.081674  0  3.929636  0
C  C25  1  0.37420117  0.51405001  0.78295062  1  0  -0.088191  -0.08177  0  3.929773  0
S  S26  1  0.94687877  0.89545906  0.25141943  1  0  0.122136  0.199177  0  2.981274  0
S  S27  1  0.05314064  0.10454714  0.75141789  1  0  0.122076  0.199134  0  2.981335  0
O  O28  1  0.07032884  0.19939975  0.05289661  1  0  -0.585017  -0.802944  0  2.224467  0
O  O29  1  0.92965918  0.80058467  0.55289102  1  0  -0.585061  -0.802943  0  2.224476  0
O  O30  1  0.13073494  0.20544200  0.44851661  1  0  -0.583804  -0.801707  0  2.223394  0
O  O31  1  0.86925603  0.79454792  0.94850878  1  0  -0.583781  -0.801827  0  2.223377  0
O  O32  1  0.40307906  0.97433592  0.10765767  1  0  -0.321692  -0.589612  0  2.349771  0
O  O33  1  0.59692983  0.02566752  0.60765154  1  0  -0.321662  -0.589621  0  2.349633  0
O  O34  1  0.57127360  0.97894335  0.39492482  1  0  -0.322378  -0.588649  0  2.351222  0
O  O35  1  0.42872737  0.02106063  0.89492808  1  0  -0.322349  -0.588646  0  2.350979  0
O  O36  1  0.31319883  0.62447416  0.06957357  1  0  -0.292609  -0.506936  0  2.199324  0
O  O37  1  0.68682796  0.37553815  0.56956346  1  0  -0.292663  -0.506991  0  2.199607  0
O  O38  1  0.30143345  0.62902030  0.43133295  1  0  -0.292125  -0.504851  0  2.196223  0
O  O39  1  0.69857072  0.37096824  0.93133199  1  0  -0.292001  -0.504739  0  2.196553  0
