# generated using pymatgen
data_Al2H14C17O11
_symmetry_space_group_name_H-M   'P 1'
_cell_length_a   6.65705412
_cell_length_b   14.04293704
_cell_length_c   16.08382878
_cell_angle_alpha   90.34008806
_cell_angle_beta   89.32926966
_cell_angle_gamma   89.12244749
_symmetry_Int_Tables_number   1
_chemical_formula_structural   Al2H14C17O11
_chemical_formula_sum   'Al4 H28 C34 O22'
_cell_volume   1503.28268226
_cell_formula_units_Z   2
loop_
 _symmetry_equiv_pos_site_id
 _symmetry_equiv_pos_as_xyz
  1  'x, y, z'
loop_
 _atom_site_type_symbol
 _atom_site_label
 _atom_site_symmetry_multiplicity
 _atom_site_fract_x
 _atom_site_fract_y
 _atom_site_fract_z
 _atom_site_occupancy
 _atom_site_pbe_bader_charge
 _atom_site_pbe_bader_spin_density
 _atom_site_pbe_cm5_charge
 _atom_site_pbe_ddec_charge
 _atom_site_pbe_ddec_spin_density
 _atom_site_pbe_ddec_sum_bond_order
 _atom_site_pbe_magmom
Al  Al0  1  0.11113586  0.50143339  0.50118419  1  2.50082  0  0.398855  1.641934  0  2.580121  0
Al  Al1  1  0.61131900  0.49737866  0.49950260  1  2.502641  0  0.398864  1.646624  0  2.583191  0
Al  Al2  1  0.61660779  0.99525600  0.00425666  1  2.502592  0  0.396482  1.637988  0  2.577696  0
Al  Al3  1  0.11651221  0.99595187  0.00275409  1  2.501917  0  0.395666  1.640081  0  2.58077  0
H  H4  1  0.56113406  0.29837867  0.68859250  1  0.128524  0  0.115987  0.115945  0  0.974179  0
H  H5  1  0.01869783  0.31246481  0.71189409  1  0.075044  0  0.111052  0.125738  0  0.991911  0
H  H6  1  0.16612857  0.21280229  0.16202000  1  0.094235  0  0.116643  0.138774  0  0.99042  0
H  H7  1  0.56389839  0.27894594  0.33797047  1  0.082246  0  0.109873  0.113551  0  1.008315  0
H  H8  1  0.54889991  0.15717118  0.22497978  1  0.109664  0  0.11165  0.12059  0  0.991874  0
H  H9  1  0.06819743  0.82861420  0.80239260  1  0.125013  0  0.109643  0.115051  0  1.023373  0
H  H10  1  0.68152044  0.65445773  0.70630995  1  0.101013  0  0.117565  0.137913  0  0.992911  0
H  H11  1  0.05021175  0.73094861  0.33950819  1  0.088097  0  0.106762  0.107842  0  1.003708  0
H  H12  1  0.04983466  0.84623048  0.22053034  1  0.097142  0  0.112511  0.118474  0  0.993245  0
H  H13  1  0.67096857  0.77853148  0.17025829  1  0.115712  0  0.110563  0.11608  0  0.997195  0
H  H14  1  0.56319526  0.20297402  0.81841742  1  0.084216  0  0.110913  0.105357  0  0.983085  0
H  H15  1  0.66020054  0.73334710  0.95163608  1  0.051552  0  0.100706  0.061543  0  0.981957  0
H  H16  1  0.92180779  0.74648949  0.92925734  1  0.065496  0  0.109773  0.07399  0  0.980192  0
H  H17  1  0.92968880  0.59390680  0.84902175  1  0.050875  0  0.092192  0.129167  0  1.000731  0
H  H18  1  0.84354924  0.57596001  0.95315478  1  0.03346  0  0.092976  0.126584  0  0.995435  0
H  H19  1  0.66892441  0.57739651  0.87027186  1  0.015299  0  0.088589  0.121213  0  1.010267  0
H  H20  1  0.67227712  0.66394763  0.29011743  1  0.096396  0  0.108345  0.109974  0  0.99991  0
H  H21  1  0.01810564  0.17878372  0.78590244  1  0.073009  0  0.110139  0.126186  0  0.992019  0
H  H22  1  0.14679492  0.48681325  0.27256320  1  0.053103  0  0.095197  0.056954  0  0.999036  0
H  H23  1  0.14242389  0.42920879  0.17302967  1  0.029642  0  0.093171  0.046513  0  0.977857  0
H  H24  1  0.44655585  0.53113828  0.18637905  1  0.032845  0  0.087095  0.118701  0  1.016678  0
H  H25  1  0.52422991  0.46482931  0.27478777  1  0.071827  0  0.092184  0.134448  0  1.019853  0
H  H26  1  0.51712243  0.40844302  0.17543816  1  0.01962  0  0.088118  0.122349  0  1.002249  0
H  H27  1  0.04893866  0.71523219  0.68337118  1  0.107689  0  0.11025  0.117623  0  1.000786  0
H  H28  1  0.35754216  0.38761700  0.45632501  1  0.611964  0  0.35308  0.432088  0  0.854864  0
H  H29  1  0.85331131  0.62051201  0.47510869  1  0.605793  0  0.353742  0.431828  0  0.85181  0
H  H30  1  0.36682651  0.11291274  0.96932761  1  0.604541  0  0.35069  0.426897  0  0.860465  0
H  H31  1  0.87034393  0.88410843  0.95989960  1  0.608947  0  0.339216  0.407121  0  0.909506  0
C  C32  1  0.35941564  0.61018401  0.61547483  1  1.575056  0  0.269713  0.639435  0  4.096933  0
C  C33  1  0.35995386  0.62055677  0.39084827  1  1.579222  0  0.265094  0.635765  0  4.103339  0
C  C34  1  0.86878564  0.38464619  0.38504758  1  1.576842  0  0.268272  0.6568  0  4.085453  0
C  C35  1  0.86492566  0.38700553  0.61274690  1  1.56395  0  0.262104  0.676749  0  4.120841  0
C  C36  1  0.70670683  0.21680095  0.78734741  1  -0.061806  0  -0.066131  -0.017511  0  3.98068  0
C  C37  1  0.87174576  0.17142371  0.81620444  1  -0.002909  0  -0.085346  -0.233252  0  3.881096  0
C  C38  1  0.70553144  0.28127759  0.71710057  1  -0.026376  0  -0.065993  -0.025892  0  3.976409  0
C  C39  1  0.87021965  0.32326282  0.68526218  1  -0.061344  0  -0.081508  -0.22663  0  3.877954  0
C  C40  1  0.03405309  0.22657888  0.20119445  1  0.011936  0  -0.088688  -0.21073  0  3.954378  0
C  C41  1  0.04349736  0.29516009  0.26408196  1  0.536273  0  0.090277  0.240092  0  4.047017  0
C  C42  1  0.87279953  0.31387775  0.31524116  1  -0.052587  0  -0.0166  -0.147058  0  3.925254  0
C  C43  1  0.69646021  0.26289057  0.29989854  1  -0.021444  0  -0.077142  -0.06923  0  3.982579  0
C  C44  1  0.68698100  0.19533794  0.23672212  1  0.014425  0  -0.082974  -0.107764  0  3.974392  0
C  C45  1  0.85736605  0.17685028  0.18691919  1  -0.061798  0  -0.010062  -0.015701  0  3.992128  0
C  C46  1  0.19069094  0.72670977  0.71472719  1  0.003359  0  -0.084992  -0.107681  0  3.978819  0
C  C47  1  0.20215898  0.78974586  0.78135785  1  -0.067345  0  -0.079557  -0.074205  0  3.978778  0
C  C48  1  0.38376357  0.80555153  0.82265120  1  -0.034707  0  -0.018407  -0.147555  0  3.929317  0
C  C49  1  0.55814899  0.75500944  0.79495988  1  0.541709  0  0.092259  0.24916  0  4.021177  0
C  C50  1  0.54645336  0.69256554  0.72748267  1  -0.012384  0  -0.087255  -0.206284  0  3.948672  0
C  C51  1  0.36438265  0.67799868  0.68721668  1  -0.032928  0  -0.010333  -0.019467  0  3.994974  0
C  C52  1  0.18534414  0.74188389  0.30209891  1  -0.052294  0  -0.080675  -0.093549  0  3.976888  0
C  C53  1  0.18475792  0.80556347  0.23620300  1  -0.050404  0  -0.077506  -0.090235  0  3.963967  0
C  C54  1  0.36008821  0.81824681  0.18859285  1  0.029803  0  -0.00877  -0.034733  0  3.964545  0
C  C55  1  0.53652177  0.76770054  0.20819010  1  -0.051958  0  -0.079777  -0.095946  0  3.969422  0
C  C56  1  0.53725100  0.70465978  0.27458959  1  -0.057374  0  -0.079855  -0.09515  0  3.981655  0
C  C57  1  0.36119912  0.69085677  0.32151441  1  -0.026745  0  -0.010907  -0.037239  0  3.96501  0
C  C58  1  0.35816645  0.88492001  0.11663642  1  1.567277  0  0.268842  0.634303  0  4.102975  0
C  C59  1  0.38262248  0.87710262  0.89190694  1  1.570054  0  0.265695  0.653276  0  4.091241  0
C  C60  1  0.87123861  0.10865700  0.88935595  1  1.546601  0  0.256899  0.677411  0  4.115875  0
C  C61  1  0.85280748  0.10715718  0.11660936  1  1.577901  0  0.270936  0.637632  0  4.093921  0
C  C62  1  0.78124057  0.71623675  0.90634098  1  0.372492  0  -0.063658  0.084252  0  3.902087  0
C  C63  1  0.80694534  0.60950696  0.89350626  1  -0.041418  0  -0.247235  -0.405802  0  3.984405  0
C  C64  1  0.22513027  0.43437514  0.23191882  1  0.396874  0  -0.066435  0.095713  0  3.897412  0
C  C65  1  0.44148429  0.46107512  0.21627773  1  -0.067479  0  -0.250275  -0.399059  0  3.963912  0
O  O66  1  0.52992884  0.59332833  0.41847617  1  -1.258393  0  -0.239163  -0.603161  0  2.349119  0
O  O67  1  0.18901152  0.58988078  0.58563395  1  -1.254976  0  -0.232289  -0.582487  0  2.340031  0
O  O68  1  0.03521250  0.41740528  0.58824742  1  -1.241566  0  -0.235726  -0.585972  0  2.305998  0
O  O69  1  0.18843128  0.59297902  0.41657860  1  -1.264173  0  -0.239322  -0.605157  0  2.35003  0
O  O70  1  0.03463439  0.41010465  0.41615642  1  -1.251394  0  -0.23518  -0.599745  0  2.370659  0
O  O71  1  0.52810677  0.57807546  0.58901018  1  -1.265389  0  -0.231096  -0.583599  0  2.367059  0
O  O72  1  0.36151823  0.44142033  0.49445115  1  -1.414355  0  -0.447978  -0.987395  0  2.180595  0
O  O73  1  0.69503863  0.41358244  0.40981339  1  -1.264842  0  -0.23762  -0.606276  0  2.364172  0
O  O74  1  0.69614982  0.40628969  0.57980385  1  -1.263753  0  -0.235771  -0.592487  0  2.324607  0
O  O75  1  0.85802541  0.55771892  0.49963649  1  -1.409834  0  -0.449314  -0.992567  0  2.206717  0
O  O76  1  0.21255841  0.89650210  0.92637786  1  -1.259947  0  -0.240477  -0.60688  0  2.342235  0
O  O77  1  0.52494165  0.89970166  0.07968137  1  -1.256624  0  -0.233321  -0.588009  0  2.356295  0
O  O78  1  0.68494308  0.07032817  0.09886156  1  -1.258386  0  -0.23084  -0.576944  0  2.328285  0
O  O79  1  0.54872759  0.91426853  0.91152494  1  -1.256554  0  -0.237528  -0.599018  0  2.381936  0
O  O80  1  0.70508339  0.09319145  0.92713901  1  -1.262844  0  -0.242954  -0.611241  0  2.316986  0
O  O81  1  0.18929985  0.92108185  0.09668011  1  -1.257675  0  -0.228893  -0.574025  0  2.343792  0
O  O82  1  0.36518786  0.05488748  0.00165184  1  -1.409629  0  -0.448178  -0.986558  0  2.190697  0
O  O83  1  0.04391123  0.07507667  0.90941533  1  -1.24582  0  -0.244864  -0.606111  0  2.296096  0
O  O84  1  0.01800011  0.09094353  0.07810855  1  -1.259289  0  -0.232267  -0.586964  0  2.365938  0
O  O85  1  0.86883408  0.93622853  0.99982636  1  -1.416739  0  -0.451089  -0.983145  0  2.192508  0
O  O86  1  0.74450003  0.76634496  0.82949797  1  -1.082267  0  -0.201785  -0.244136  0  2.531987  0
O  O87  1  0.22263028  0.34185128  0.27172768  1  -1.066955  0  -0.202844  -0.243165  0  2.501288  0
