# generated using pymatgen
data_Zn4H56C81N20O13
_symmetry_space_group_name_H-M   'P 1'
_cell_length_a   19.48194609
_cell_length_b   20.21794971
_cell_length_c   21.55521813
_cell_angle_alpha   111.21352718
_cell_angle_beta   102.79390233
_cell_angle_gamma   113.66310315
_symmetry_Int_Tables_number   1
_chemical_formula_structural   Zn4H56C81N20O13
_chemical_formula_sum   'Zn4 H56 C81 N20 O13'
_cell_volume   6546.99964967
_cell_formula_units_Z   1
loop_
 _symmetry_equiv_pos_site_id
 _symmetry_equiv_pos_as_xyz
  1  'x, y, z'
loop_
 _atom_site_type_symbol
 _atom_site_label
 _atom_site_symmetry_multiplicity
 _atom_site_fract_x
 _atom_site_fract_y
 _atom_site_fract_z
 _atom_site_occupancy
 _atom_site_pbe_bader_charge
 _atom_site_pbe_bader_spin_density
 _atom_site_pbe_cm5_charge
 _atom_site_pbe_ddec_charge
 _atom_site_pbe_ddec_spin_density
 _atom_site_pbe_ddec_sum_bond_order
 _atom_site_pbe_magmom
Zn  Zn0  1  0.60266891  0.60289324  0.50480016  1  1.190818  0  0.746526  0.627691  0  2.392623  0
Zn  Zn1  1  0.38232523  0.38652248  0.49605747  1  1.188589  0  0.747643  0.623078  0  2.417671  0
Zn  Zn2  1  0.48884997  0.58952010  0.59846333  1  1.186749  0  0.749021  0.605703  0  2.514336  0
Zn  Zn3  1  0.49266107  0.40114916  0.40010762  1  1.19315  0  0.743357  0.64228  0  2.332807  0
H  H4  1  0.75235160  0.60764504  0.60825502  1  0.124142  0  0.12158  0.116976  0  1.024631  0
H  H5  1  0.23172007  0.36375710  0.37216606  1  0.140815  0  0.123079  0.125171  0  1.012846  0
H  H6  1  0.48976218  0.76095173  0.64392103  1  0.096024  0  0.123772  0.114289  0  0.982219  0
H  H7  1  0.34458063  0.22987443  0.23612929  1  0.067953  0  0.117037  0.102958  0  0.999225  0
H  H8  1  0.20497983  0.20464721  0.36552639  1  0.110184  0  0.124704  0.115943  0  0.983067  0
H  H9  1  0.60317099  0.75802918  0.49260092  1  0.086964  0  0.12325  0.111115  0  0.990076  0
H  H10  1  0.42297373  0.38330568  0.24665176  1  0.115302  0  0.115655  0.100642  0  1.009451  0
H  H11  1  0.38125062  0.63492558  0.50000987  1  0.103043  0  0.120565  0.11288  0  1.020101  0
H  H12  1  0.06533589  0.46231848  0.44596540  1  0.030757  0  0.099472  0.106179  0  0.96889  0
H  H13  1  0.96574242  0.49535839  0.46504340  1  0.055212  0  0.097292  0.100192  0  0.972043  0
H  H14  1  0.43496163  0.29137270  0.56584915  1  0.085284  0  0.117965  0.10486  0  1.011281  0
H  H15  1  0.00939221  0.62910767  0.47258964  1  0.058576  0  0.120662  0.114047  0  0.934226  0
H  H16  1  0.11306233  0.60437971  0.48626700  1  0.066549  0  0.115229  0.112906  0  0.952918  0
H  H17  1  0.88659479  0.40185806  0.26873885  1  0.071834  0  0.111279  0.097889  0  0.944722  0
H  H18  1  0.00699266  0.42649671  0.25886709  1  0.068272  0  0.114757  0.105389  0  0.945052  0
H  H19  1  0.89377951  0.40108290  0.38127695  1  0.056473  0  0.096274  0.100291  0  0.975143  0
H  H20  1  0.99960792  0.38801861  0.35185119  1  0.019094  0  0.09666  0.099955  0  0.973641  0
H  H21  1  0.48659330  0.61495686  0.75298015  1  0.077405  0  0.1196  0.10566  0  0.994715  0
H  H22  1  0.57818948  0.05339150  0.46400285  1  0.00296  0  0.09362  0.093315  0  0.974246  0
H  H23  1  0.61440863  0.13030396  0.55612595  1  0.084712  0  0.096344  0.106793  0  0.992953  0
H  H24  1  0.59277990  0.03467122  0.59911359  1  0.089034  0  0.09491  0.104953  0  0.990733  0
H  H25  1  0.60290544  0.97890022  0.52045551  1  0.031556  0  0.096496  0.101289  0  0.973242  0
H  H26  1  0.35475499  0.95226339  0.40693935  1  0.049321  0  0.101597  0.113124  0  0.980256  0
H  H27  1  0.43089711  0.97716209  0.37319616  1  0.046288  0  0.099792  0.108725  0  0.969573  0
H  H28  1  0.38377320  0.04048396  0.53000603  1  0.079248  0  0.116746  0.115457  0  0.944104  0
H  H29  1  0.35926227  0.91450671  0.50196116  1  0.106957  0  0.115953  0.116057  0  1.021057  0
H  H30  1  0.63307913  0.37344494  0.34397855  1  0.098777  0  0.117754  0.105872  0  0.995616  0
H  H31  1  0.47573941  0.89409005  0.39939355  1  0.062789  0  0.109277  0.103745  0  0.95507  0
H  H32  1  0.52069406  0.61434764  0.86024218  1  0.053268  0  0.096589  0.094814  0  1.007533  0
H  H33  1  0.56775397  0.61754172  0.97840850  1  0.094797  0  0.103887  0.103765  0  1.020474  0
H  H34  1  0.61143438  0.66837896  0.17357235  1  0.086608  0  0.10589  0.10667  0  0.996421  0
H  H35  1  0.58212010  0.66075784  0.27812325  1  0.05307  0  0.100651  0.100957  0  0.999282  0
H  H36  1  0.44584775  0.35486848  0.74189839  1  0.07249  0  0.101833  0.105432  0  0.998132  0
H  H37  1  0.50797590  0.40330069  0.05771983  1  0.103483  0  0.104747  0.104348  0  1.014474  0
H  H38  1  0.49181204  0.35931296  0.86099252  1  0.074685  0  0.107544  0.11072  0  0.991062  0
H  H39  1  0.48031646  0.39458038  0.16239608  1  0.049394  0  0.098307  0.09654  0  1.004605  0
H  H40  1  0.25089753  0.07072609  0.17185871  1  0.066501  0  0.103979  0.105292  0  0.995581  0
H  H41  1  0.37769687  0.34755857  0.63071005  1  0.072696  0  0.121111  0.106688  0  0.999976  0
H  H42  1  0.13637278  0.93683020  0.05952924  1  0.120599  0  0.110436  0.110742  0  1.003954  0
H  H43  1  0.99132987  0.74632258  0.85528226  1  0.077059  0  0.107349  0.103995  0  1.012147  0
H  H44  1  0.82226333  0.76497817  0.94803774  1  0.092639  0  0.110737  0.112297  0  1.001104  0
H  H45  1  0.95955943  0.99411435  0.11066670  1  0.087561  0  0.107015  0.102443  0  1.013636  0
H  H46  1  0.70528385  0.66117528  0.82631276  1  0.054274  0  0.103247  0.105191  0  1.009522  0
H  H47  1  0.78337115  0.64278752  0.48382609  1  0.084709  0  0.121811  0.111417  0  0.986787  0
H  H48  1  0.57426575  0.30532907  0.43523666  1  0.101874  0  0.121053  0.111234  0  0.995493  0
H  H49  1  0.59892012  0.57824206  0.72632976  1  0.10135  0  0.114648  0.096884  0  1.046527  0
H  H50  1  0.58086091  0.65236580  0.38331147  1  0.031179  0  0.116568  0.09814  0  1.01319  0
H  H51  1  0.94301639  0.64313612  0.35851983  1  0.125635  0  0.113804  0.064556  0  0.97983  0
H  H52  1  0.26345633  0.78598435  0.52307881  1  0.632494  0  0.323719  0.387402  0  0.895885  0
H  H53  1  0.87079390  0.44438438  0.17806327  1  0.046588  0  0.094934  0.024872  0  0.95997  0
H  H54  1  0.11188491  0.55345354  0.26626848  1  0.108722  0  0.115414  0.061093  0  0.956894  0
H  H55  1  0.48614397  0.99106215  0.70823909  1  0.612585  0  0.353954  0.388455  0  0.837864  0
H  H56  1  0.59651759  0.20657828  0.70422299  1  0.611549  0  0.350137  0.382648  0  0.846025  0
H  H57  1  0.24729130  0.75673225  0.38263994  1  0.674867  0  0.311863  0.377918  0  0.94702  0
H  H58  1  0.95563886  0.65589445  0.74529015  1  0.031199  0  0.091793  0.020749  0  0.969609  0
H  H59  1  0.99063436  0.11190542  0.19733239  1  0.022039  0  0.092493  0.02127  0  0.969347  0
C  C60  1  0.70479433  0.59898286  0.62811417  1  0.460932  0  0.026181  -0.00748  0  3.901289  0
C  C61  1  0.50412643  0.26684105  0.49873668  1  0.078674  0  -0.027782  0.051715  0  4.195948  0
C  C62  1  0.44508576  0.48142129  0.72238539  1  0.009051  0  -0.0339  -0.041349  0  4.080215  0
C  C63  1  0.73738327  0.50844584  0.40624825  1  0.128725  0  -0.029504  0.049546  0  4.204957  0
C  C64  1  0.54029579  0.58552917  0.36005417  1  0.499108  0  0.011859  -0.04207  0  3.966204  0
C  C65  1  0.27957710  0.42929776  0.41033784  1  0.441824  0  0.024246  -0.030626  0  3.886397  0
C  C66  1  0.52220722  0.75168794  0.60971539  1  0.413019  0  0.014524  -0.054244  0  3.975005  0
C  C67  1  0.32264152  0.23493340  0.27881959  1  0.424165  0  0.010278  -0.050518  0  3.996781  0
C  C68  1  0.25104956  0.22252113  0.34465287  1  0.459349  0  0.021017  -0.022692  0  3.98476  0
C  C69  1  0.57988875  0.74946770  0.53215055  1  0.45517  0  0.022991  -0.030756  0  3.942789  0
C  C70  1  0.46101249  0.44836580  0.29047883  1  0.35858  0  0.008388  -0.049605  0  3.962738  0
C  C71  1  0.46787095  0.30684607  0.53382686  1  0.426219  0  0.013238  -0.04775  0  3.947858  0
C  C72  1  0.35633032  0.56833931  0.47594405  1  0.443676  0  0.020852  -0.031075  0  3.910396  0
C  C73  1  0.50817736  0.52041042  0.28772689  1  -0.00502  0  -0.028542  -0.025225  0  4.054289  0
C  C74  1  0.27721039  0.50113813  0.42020358  1  0.092241  0  -0.024493  0.046902  0  4.160571  0
C  C75  1  0.53584814  0.78247619  0.56181636  1  0.104705  0  -0.02814  0.04114  0  4.200246  0
C  C76  1  0.24284153  0.18552374  0.27211893  1  0.007847  0  -0.036575  -0.049681  0  4.087092  0
C  C77  1  0.95137153  0.46188182  0.40634923  1  -0.056691  0  -0.155001  -0.195894  0  3.877231  0
C  C78  1  0.01194443  0.60335920  0.41892319  1  -0.015536  0  -0.073311  -0.118971  0  3.777679  0
C  C79  1  0.09316072  0.60160140  0.43309550  1  0.024714  0  -0.071219  -0.182173  0  3.747736  0
C  C80  1  0.20774706  0.50632450  0.39293966  1  -0.372525  0  -0.04723  -0.077224  0  4.147749  0
C  C81  1  0.93499504  0.51229787  0.37128960  1  0.119288  0  0.005923  0.150216  0  3.870063  0
C  C82  1  0.45617422  0.54927637  0.71221371  1  0.390425  0  0.006055  -0.05519  0  4.000555  0
C  C83  1  0.02255211  0.45138781  0.39544775  1  -0.000432  0  -0.153643  -0.19604  0  3.869284  0
C  C84  1  0.07271470  0.51480675  0.37420466  1  0.101961  0  0.012558  0.168916  0  3.838199  0
C  C85  1  0.01348836  0.48585760  0.29496347  1  -0.038194  0  -0.076995  -0.138217  0  3.811576  0
C  C86  1  0.92741538  0.46992883  0.29179809  1  -0.055896  0  -0.078567  -0.124803  0  3.785951  0
C  C87  1  0.14745184  0.51276669  0.37821049  1  0.046557  0  -0.063332  -0.15942  0  4.088013  0
C  C88  1  0.86119335  0.51133259  0.37555952  1  -0.149364  0  -0.058759  -0.142665  0  4.118413  0
C  C89  1  0.80376966  0.50952123  0.39005718  1  -0.201935  0  -0.055722  -0.098128  0  4.181325  0
C  C90  1  0.44385191  0.04569939  0.54911124  1  -0.000603  0  -0.067891  -0.162009  0  3.727149  0
C  C91  1  0.56633322  0.06579285  0.51334298  1  -0.025964  0  -0.161213  -0.193353  0  3.878286  0
C  C92  1  0.56623785  0.00437240  0.53880229  1  -0.04004  0  -0.15768  -0.195263  0  3.87496  0
C  C93  1  0.65834786  0.43907865  0.38135044  1  0.389157  0  0.011657  -0.056978  0  3.975315  0
C  C94  1  0.50823075  0.82986796  0.54261149  1  -0.496075  0  -0.053536  -0.09359  0  4.156126  0
C  C95  1  0.47947490  0.05468723  0.49218085  1  0.126225  0  0.005681  0.182115  0  3.859302  0
C  C96  1  0.42398735  0.95978773  0.54250481  1  0.006876  0  -0.076751  -0.190648  0  3.749613  0
C  C97  1  0.47617270  0.93011189  0.50699026  1  0.120595  0  0.013735  0.171215  0  3.822919  0
C  C98  1  0.43296889  0.90080519  0.42313719  1  0.000515  0  -0.076229  -0.159766  0  3.772055  0
C  C99  1  0.41929200  0.96985172  0.41855008  1  -0.024888  0  -0.151794  -0.218366  0  3.820407  0
C  C100  1  0.48353828  0.86758276  0.52095143  1  0.155402  0  -0.057235  -0.136501  0  4.075875  0
C  C101  1  0.48470833  0.12633866  0.48755828  1  -0.300431  0  -0.059844  -0.140915  0  4.080547  0
C  C102  1  0.49826428  0.19310189  0.49345662  1  -0.035998  0  -0.060734  -0.107524  0  4.188792  0
C  C103  1  0.52650496  0.52651713  0.22726717  1  0.008112  0  -0.000504  0.097265  0  4.020027  0
C  C104  1  0.40171510  0.41337526  0.64967476  1  0.426288  0  0.014586  -0.037068  0  3.963572  0
C  C105  1  0.50806062  0.45478412  0.16479203  1  -0.014146  0  -0.090277  -0.123794  0  3.982585  0
C  C106  1  0.52418136  0.45907004  0.10652414  1  -0.077097  0  -0.082772  -0.127544  0  3.955629  0
C  C107  1  0.56008756  0.53643561  0.10884648  1  0.386983  0  0.083043  0.165529  0  4.053804  0
C  C108  1  0.58290855  0.60893354  0.17237396  1  -0.030109  0  -0.080284  -0.132136  0  3.979179  0
C  C109  1  0.56612569  0.60399911  0.23040176  1  -0.067705  0  -0.092224  -0.129091  0  3.987038  0
C  C110  1  0.54134278  0.56074245  0.92612052  1  -0.07433  0  -0.087156  -0.134302  0  3.972736  0
C  C111  1  0.51451082  0.55802816  0.85970552  1  -0.052036  0  -0.096866  -0.131729  0  4.002952  0
C  C112  1  0.53072122  0.48791684  0.92694076  1  0.386094  0  0.081631  0.164386  0  4.056545  0
C  C113  1  0.47660191  0.48346012  0.79155844  1  -0.006812  0  -0.008414  0.08514  0  4.044506  0
C  C114  1  0.47177698  0.41275178  0.79322524  1  -0.036586  0  -0.094466  -0.133238  0  3.986861  0
C  C115  1  0.73513075  0.57684243  0.45264350  1  0.45728  0  0.015327  -0.051427  0  3.965289  0
C  C116  1  0.49820588  0.41488840  0.85975962  1  -0.026858  0  -0.081502  -0.132647  0  3.971267  0
C  C117  1  0.77913691  0.64703571  0.76662237  1  0.003859  0  0.022129  0.10265  0  3.915603  0
C  C118  1  0.76789259  0.67935081  0.83139561  1  -0.024101  0  -0.085914  -0.125476  0  3.967573  0
C  C119  1  0.83316388  0.73820322  0.90021819  1  -0.010826  0  -0.072429  -0.111268  0  3.944685  0
C  C120  1  0.91543059  0.76754789  0.90837060  1  0.349318  0  0.081465  0.164432  0  4.075413  0
C  C121  1  0.92777163  0.72768196  0.84780943  1  -0.104617  0  -0.069844  -0.159557  0  3.938088  0
C  C122  1  0.86186565  0.66790114  0.77740672  1  0.047849  0  -0.024639  -0.041501  0  3.969242  0
C  C123  1  0.12338084  0.97930572  0.09569500  1  -0.053042  0  -0.069852  -0.104597  0  3.929736  0
C  C124  1  0.18680372  0.05450066  0.15786599  1  -0.05376  0  -0.08531  -0.128181  0  3.979233  0
C  C125  1  0.04021164  0.95623925  0.07909740  1  0.391578  0  0.082159  0.16425  0  4.067906  0
C  C126  1  0.53886778  0.31329308  0.46670641  1  0.413945  0  0.015577  -0.047096  0  3.931137  0
C  C127  1  0.17186595  0.11037102  0.20632362  1  0.01266  0  0.017615  0.100005  0  3.946064  0
C  C128  1  0.08781263  0.08823105  0.18790213  1  0.038256  0  -0.02399  -0.04153  0  3.975205  0
C  C129  1  0.02410386  0.01138472  0.12536209  1  -0.098684  0  -0.067896  -0.154986  0  3.938221  0
C  C130  1  0.62669646  0.58420517  0.68875586  1  0.436101  0  0.018011  -0.027625  0  3.939126  0
C  C131  1  0.70793164  0.60549597  0.69642719  1  0.027711  0  -0.028912  -0.041929  0  4.011812  0
C  C132  1  0.00679327  0.66271954  0.39305582  1  0.945112  0  0.106501  0.302258  0  3.860132  0
C  C133  1  0.16678059  0.67669883  0.44202867  1  1.547709  0  0.245206  0.623879  0  4.066894  0
C  C134  1  0.88077642  0.48352183  0.23523369  1  0.953249  0  0.092956  0.296059  0  3.966873  0
C  C135  1  0.05098755  0.54203966  0.26544970  1  0.936231  0  0.106543  0.298744  0  3.89668  0
C  C136  1  0.42421275  0.94820588  0.60763079  1  1.512515  0  0.237631  0.61465  0  4.074776  0
C  C137  1  0.49107884  0.12152689  0.62647766  1  1.550499  0  0.226478  0.600391  0  4.079324  0
C  C138  1  0.35507566  0.81346965  0.38201385  1  1.536749  0  0.222256  0.597711  0  4.081997  0
C  C139  1  0.88740412  0.63089374  0.72138278  1  0.950323  0  0.090174  0.26796  0  4.008432  0
C  C140  1  0.05966046  0.14257277  0.22479953  1  0.948038  0  0.092279  0.27242  0  4.003105  0
N  N141  1  0.62953439  0.57909945  0.58617465  1  -0.817406  0  -0.278466  -0.182455  0  3.613972  0
N  N142  1  0.35398251  0.45324863  0.45839256  1  -0.839927  0  -0.282013  -0.19099  0  3.637578  0
N  N143  1  0.55391512  0.70299710  0.60740148  1  -0.785079  0  -0.281537  -0.192703  0  3.522248  0
N  N144  1  0.37328689  0.29648140  0.34906768  1  -0.779732  0  -0.266535  -0.183141  0  3.522189  0
N  N145  1  0.32865869  0.28750274  0.39014399  1  -0.80593  0  -0.267596  -0.176924  0  3.53265  0
N  N146  1  0.59000764  0.70182504  0.55891364  1  -0.796419  0  -0.27177  -0.189294  0  3.532832  0
N  N147  1  0.46717303  0.46922302  0.35946761  1  -0.77628  0  -0.282857  -0.193525  0  3.541373  0
N  N148  1  0.40097592  0.53842394  0.49865576  1  -0.763361  0  -0.287064  -0.193916  0  3.635972  0
N  N149  1  0.56672206  0.54659522  0.04894045  1  -0.486172  0  -0.158786  -0.148402  0  3.312727  0
N  N150  1  0.54111819  0.47986326  0.99008318  1  -0.512813  0  -0.161776  -0.154343  0  3.289058  0
N  N151  1  0.98638681  0.83714634  0.97196260  1  -0.477517  0  -0.160811  -0.148371  0  3.285209  0
N  N152  1  0.47824870  0.37028952  0.52168401  1  -0.770572  0  -0.282593  -0.187827  0  3.596423  0
N  N153  1  0.97031553  0.88289115  0.01720356  1  -0.511089  0  -0.160508  -0.151491  0  3.301241  0
N  N154  1  0.42456681  0.52429937  0.63990581  1  -0.77942  0  -0.282685  -0.189713  0  3.522652  0
N  N155  1  0.61316651  0.46445920  0.41044516  1  -0.789292  0  -0.267198  -0.186179  0  3.545002  0
N  N156  1  0.39018935  0.43897833  0.60068896  1  -0.788634  0  -0.271825  -0.183277  0  3.519502  0
N  N157  1  0.66089664  0.54995600  0.45465254  1  -0.785759  0  -0.267534  -0.179451  0  3.556678  0
N  N158  1  0.52195786  0.37428558  0.48029459  1  -0.777702  0  -0.278633  -0.184916  0  3.579252  0
N  N159  1  0.58131248  0.56961095  0.62334288  1  -0.792735  0  -0.282695  -0.182195  0  3.61926  0
N  N160  1  0.51657543  0.55449698  0.40257474  1  -0.78589  0  -0.283237  -0.189435  0  3.564712  0
O  O161  1  0.06764832  0.72931570  0.41213657  1  -1.086348  0  -0.257597  -0.345777  0  2.135078  0
O  O162  1  0.18352178  0.67819787  0.39053331  1  -1.145341  0  -0.259329  -0.484878  0  2.240525  0
O  O163  1  0.21337712  0.73574178  0.51313184  1  -1.1261  0  -0.330629  -0.479056  0  2.263564  0
O  O164  1  0.84649920  0.52264389  0.24657388  1  -1.06597  0  -0.267683  -0.361258  0  2.174456  0
O  O165  1  0.01500090  0.56931267  0.23842665  1  -1.067441  0  -0.23766  -0.323566  0  2.151503  0
O  O166  1  0.36687629  0.88846607  0.60344296  1  -1.163129  0  -0.285484  -0.506097  0  2.116251  0
O  O167  1  0.49369042  0.00686793  0.67116694  1  -1.117141  0  -0.321287  -0.469871  0  2.251158  0
O  O168  1  0.45637952  0.14717862  0.66055316  1  -1.137862  0  -0.310537  -0.508388  0  2.038874  0
O  O169  1  0.57501741  0.15955115  0.65492340  1  -1.141202  0  -0.324094  -0.469287  0  2.265589  0
O  O170  1  0.35320217  0.75029743  0.34445620  1  -1.134578  0  -0.310596  -0.49786  0  2.035481  0
O  O171  1  0.29033169  0.81390876  0.39478681  1  -1.189199  0  -0.343667  -0.499692  0  2.286942  0
O  O172  1  0.84368697  0.57759625  0.65606061  1  -1.096558  0  -0.27152  -0.362993  0  2.139337  0
O  O173  1  0.10182703  0.21411602  0.27771262  1  -1.097306  0  -0.269052  -0.370749  0  2.16109  0
