# generated using pymatgen
data_H22PbC20SN2O7
_symmetry_space_group_name_H-M   'P 1'
_cell_length_a   8.19160830
_cell_length_b   10.35911537
_cell_length_c   14.12900000
_cell_angle_alpha   108.50625505
_cell_angle_beta   105.06182523
_cell_angle_gamma   95.19309927
_symmetry_Int_Tables_number   1
_chemical_formula_structural   H22PbC20SN2O7
_chemical_formula_sum   'H44 Pb2 C40 S2 N4 O14'
_cell_volume   1078.12776643
_cell_formula_units_Z   2
loop_
 _symmetry_equiv_pos_site_id
 _symmetry_equiv_pos_as_xyz
  1  'x, y, z'
loop_
 _atom_site_type_symbol
 _atom_site_label
 _atom_site_symmetry_multiplicity
 _atom_site_fract_x
 _atom_site_fract_y
 _atom_site_fract_z
 _atom_site_occupancy
 _atom_site_hle17_bader_spin_density
 _atom_site_hle17_ddec_charge
 _atom_site_hle17_ddec_spin_density
 _atom_site_hle17_ddec_sum_bond_order
 _atom_site_hle17_magmom
 _atom_site_hse06_10hf_bader_spin_density
 _atom_site_hse06_10hf_ddec_charge
 _atom_site_hse06_10hf_ddec_spin_density
 _atom_site_hse06_10hf_ddec_sum_bond_order
 _atom_site_hse06_10hf_magmom
 _atom_site_hse06_bader_spin_density
 _atom_site_hse06_ddec_charge
 _atom_site_hse06_ddec_spin_density
 _atom_site_hse06_ddec_sum_bond_order
 _atom_site_hse06_magmom
 _atom_site_pbe_bader_charge
 _atom_site_pbe_bader_spin_density
 _atom_site_pbe_cm5_charge
 _atom_site_pbe_ddec_charge
 _atom_site_pbe_ddec_spin_density
 _atom_site_pbe_ddec_sum_bond_order
 _atom_site_pbe_magmom
H  H0  1  0.57789488  0.83710406  0.76967718  1  0  0.362779  0  0.925566  0  0  0.332905  0  1.007466  0  0  0.345357  0  0.994016  0  0.651504  0  0.303573  0.324139  0  1.016737  0
H  H1  1  0.42203426  0.16288841  0.23032589  1  0  0.362773  0  0.92563  0  0  0.33286  0  1.007562  0  0  0.345309  0  0.994112  0  0.651403  0  0.303646  0.324097  0  1.016829  0
H  H2  1  0.25441309  0.81020841  0.34241027  1  0  0.371108  0  0.896891  0  0  0.340381  0  0.98017  0  0  0.351737  0  0.967791  0  0.649389  0  0.312903  0.33237  0  0.988683  0
H  H3  1  0.74562337  0.18979961  0.65755456  1  0  0.371103  0  0.896789  0  0  0.340454  0  0.979987  0  0  0.351822  0  0.967599  0  0.649293  0  0.312848  0.332432  0  0.988526  0
H  H4  1  0.36866112  0.22469812  0.71097563  1  0  0.092057  0  0.955024  0  0  0.106912  0  1.021216  0  0  0.108444  0  1.020378  0  0.082709  0  0.099166  0.105868  0  1.021838  0
H  H5  1  0.63134037  0.77529020  0.28902252  1  0  0.091939  0  0.954747  0  0  0.106761  0  1.021095  0  0  0.108294  0  1.02025  0  0.08266  0  0.099121  0.105715  0  1.021722  0
H  H6  1  0.51400252  0.17216013  0.80303217  1  0  0.11079  0  0.914367  0  0  0.124376  0  0.975268  0  0  0.127711  0  0.972345  0  0.066865  0  0.106859  0.12202  0  0.977359  0
H  H7  1  0.48596757  0.82780746  0.19694509  1  0  0.110779  0  0.914101  0  0  0.124344  0  0.975085  0  0  0.127681  0  0.972169  0  0.066574  0  0.10681  0.12201  0  0.97715  0
H  H8  1  0.42093327  0.15566302  0.94087361  1  0  0.088194  0  0.971564  0  0  0.098745  0  1.035434  0  0  0.101504  0  1.034425  0  0.065297  0  0.096846  0.096875  0  1.036185  0
H  H9  1  0.57908243  0.84434810  0.05911004  1  0  0.088185  0  0.971941  0  0  0.098753  0  1.035782  0  0  0.101516  0  1.03476  0  0.064936  0  0.096854  0.096865  0  1.036558  0
H  H10  1  0.18978820  0.11745244  0.01854060  1  0  0.090068  0  0.96462  0  0  0.100949  0  1.025353  0  0  0.104145  0  1.023368  0  0.065529  0  0.098685  0.098741  0  1.026793  0
H  H11  1  0.81020688  0.88257320  0.98143837  1  0  0.09023  0  0.964208  0  0  0.10119  0  1.024862  0  0  0.104391  0  1.02287  0  0.06506  0  0.098735  0.098977  0  1.026312  0
H  H12  1  0.88219604  0.04311908  0.90511023  1  0  0.086521  0  0.961086  0  0  0.095843  0  1.025052  0  0  0.09889  0  1.023773  0  0.068826  0  0.09681  0.093733  0  1.026103  0
H  H13  1  0.11778780  0.95689101  0.09489669  1  0  0.086526  0  0.96094  0  0  0.095808  0  1.024982  0  0  0.098859  0  1.0237  0  0.068941  0  0.096745  0.093695  0  1.026033  0
H  H14  1  0.81191896  0.00808062  0.71563282  1  0  0.080358  0  0.968307  0  0  0.087395  0  1.036778  0  0  0.090683  0  1.034115  0  0.052112  0  0.095897  0.085134  0  1.038479  0
H  H15  1  0.18806649  0.99194710  0.28437774  1  0  0.080465  0  0.968281  0  0  0.08752  0  1.036697  0  0  0.090807  0  1.034038  0  0.052684  0  0.095886  0.085256  0  1.038399  0
H  H16  1  0.04123294  0.05448273  0.64008739  1  0  0.095554  0  0.952994  0  0  0.105291  0  1.017699  0  0  0.108281  0  1.016462  0  0.073982  0  0.094453  0.103096  0  1.018757  0
H  H17  1  0.95872966  0.94550144  0.35988765  1  0  0.095305  0  0.953206  0  0  0.104982  0  1.017992  0  0  0.107968  0  1.016756  0  0.074171  0  0.094359  0.102792  0  1.01905  0
H  H18  1  0.19897423  0.37687492  0.08072921  1  0  0.100634  0  0.951304  0  0  0.112738  0  1.020261  0  0  0.114218  0  1.019721  0  0.086689  0  0.102003  0.111592  0  1.020898  0
H  H19  1  0.80098015  0.62309578  0.91924287  1  0  0.100601  0  0.95154  0  0  0.112804  0  1.020354  0  0  0.114283  0  1.019812  0  0.085563  0  0.102033  0.111651  0  1.020998  0
H  H20  1  0.18451956  0.55399848  0.10118748  1  0  0.111338  0  0.924956  0  0  0.125764  0  0.983217  0  0  0.128236  0  0.981959  0  0.068409  0  0.106132  0.124041  0  0.984056  0
H  H21  1  0.81542622  0.44597325  0.89879204  1  0  0.111464  0  0.925006  0  0  0.125845  0  0.983311  0  0  0.128316  0  0.982049  0  0.068381  0  0.106205  0.124123  0  0.984148  0
H  H22  1  0.92158372  0.63420546  0.11483958  1  0  0.09888  0  0.961759  0  0  0.107741  0  1.027028  0  0  0.110028  0  1.02729  0  0.073385  0  0.099624  0.105613  0  1.0279  0
H  H23  1  0.07841345  0.36578597  0.88520959  1  0  0.09885  0  0.961865  0  0  0.107637  0  1.027187  0  0  0.109926  0  1.027447  0  0.073476  0  0.099552  0.105506  0  1.028057  0
H  H24  1  0.61419452  0.58039758  0.10346740  1  0  0.085749  0  0.961436  0  0  0.098532  0  1.018903  0  0  0.100313  0  1.019733  0  0.064539  0  0.096978  0.096991  0  1.018933  0
H  H25  1  0.38578529  0.41958452  0.89654585  1  0  0.085756  0  0.961364  0  0  0.098506  0  1.018911  0  0  0.100276  0  1.01974  0  0.0645  0  0.096934  0.096971  0  1.01894  0
H  H26  1  0.49391798  0.35376509  0.10933169  1  0  0.085776  0  0.979938  0  0  0.096841  0  1.042133  0  0  0.099061  0  1.041735  0  0.058371  0  0.095081  0.095194  0  1.042483  0
H  H27  1  0.50604579  0.64620250  0.89066019  1  0  0.085774  0  0.979939  0  0  0.096851  0  1.042117  0  0  0.099069  0  1.041719  0  0.058181  0  0.095114  0.095213  0  1.042456  0
H  H28  1  0.68115058  0.17978669  0.12197701  1  0  0.090392  0  0.957678  0  0  0.099826  0  1.018625  0  0  0.10296  0  1.017384  0  0.07199  0  0.097402  0.097182  0  1.020397  0
H  H29  1  0.31883584  0.82019126  0.87804264  1  0  0.090424  0  0.957703  0  0  0.099791  0  1.018712  0  0  0.102929  0  1.01747  0  0.072234  0  0.097487  0.097149  0  1.020482  0
H  H30  1  0.98733237  0.23238170  0.12928675  1  0  0.095025  0  0.968465  0  0  0.105005  0  1.032322  0  0  0.107323  0  1.032638  0  0.085573  0  0.097173  0.102877  0  1.033069  0
H  H31  1  0.01265215  0.76760973  0.87072584  1  0  0.095032  0  0.968538  0  0  0.104981  0  1.03243  0  0  0.107331  0  1.03271  0  0.085344  0  0.097248  0.102838  0  1.033186  0
H  H32  1  0.93402062  0.61582996  0.32738925  1  0  0.155866  0  0.947272  0  0  0.169578  0  1.009572  0  0  0.171301  0  1.010755  0  0.102808  0  0.103924  0.168219  0  1.008834  0
H  H33  1  0.06603704  0.38415525  0.67262937  1  0  0.155789  0  0.947355  0  0  0.169462  0  1.009718  0  0  0.171188  0  1.010896  0  0.106681  0  0.103852  0.1681  0  1.008982  0
H  H34  1  0.78569238  0.69069409  0.39193273  1  0  0.147243  0  0.981092  0  0  0.164099  0  1.043486  0  0  0.166237  0  1.042577  0  0.088775  0  0.102437  0.162426  0  1.044348  0
H  H35  1  0.21438274  0.30934399  0.60807110  1  0  0.147192  0  0.980917  0  0  0.164005  0  1.043372  0  0  0.166142  0  1.042469  0  0.088253  0  0.102438  0.162333  0  1.044234  0
H  H36  1  0.83623692  0.52494973  0.39574082  1  0  0.164442  0  0.947842  0  0  0.180271  0  1.004675  0  0  0.183189  0  1.003784  0  0.1256  0  0.10547  0.178021  0  1.005542  0
H  H37  1  0.16377883  0.47508316  0.60428754  1  0  0.164425  0  0.947709  0  0  0.180163  0  1.004641  0  0  0.183119  0  1.003709  0  0.125484  0  0.105498  0.177917  0  1.005505  0
H  H38  1  0.06660140  0.74329117  0.68253769  1  0  0.158214  0  0.933127  0  0  0.176878  0  0.987231  0  0  0.17846  0  0.988121  0  0.097616  0  0.108786  0.175558  0  0.986891  0
H  H39  1  0.93347843  0.25672928  0.31747832  1  0  0.158587  0  0.933136  0  0  0.177117  0  0.987346  0  0  0.178701  0  0.988236  0  0.09835  0  0.108929  0.175796  0  0.987003  0
H  H40  1  0.90453423  0.59616592  0.58726512  1  0  0.159172  0  0.964059  0  0  0.17287  0  1.024904  0  0  0.175715  0  1.024352  0  0.123514  0  0.103885  0.170699  0  1.025496  0
H  H41  1  0.09553515  0.40386386  0.41276635  1  0  0.159116  0  0.964204  0  0  0.172893  0  1.024915  0  0  0.17574  0  1.024359  0  0.123462  0  0.103833  0.170716  0  1.025521  0
H  H42  1  0.86940089  0.77340144  0.61086019  1  0  0.133145  0  0.980909  0  0  0.151283  0  1.046429  0  0  0.151778  0  1.048108  0  0.090942  0  0.103427  0.150878  0  1.045258  0
H  H43  1  0.13067680  0.22663145  0.38917962  1  0  0.133384  0  0.98078  0  0  0.151489  0  1.046277  0  0  0.151987  0  1.04795  0  0.090616  0  0.103486  0.151081  0  1.045112  0
Pb  Pb44  1  0.48524702  0.70589435  0.50691236  1  0  1.246762  0  1.592417  0  0  1.042824  0  2.015695  0  0  1.098484  0  1.974484  0  1.421744  0  0.609821  1.000946  0  2.047034  0
Pb  Pb45  1  0.51478185  0.29411366  0.49308317  1  0  1.246604  0  1.592541  0  0  1.042701  0  2.01583  0  0  1.09836  0  1.974617  0  1.421512  0  0.609752  1.000812  0  2.047179  0
C  C46  1  0.33153091  0.00506710  0.54026007  1  0  0.623821  0  3.933297  0  0  0.562922  0  4.252112  0  0  0.597297  0  4.242275  0  1.610832  0  0.210615  0.538915  0  4.258641  0
C  C47  1  0.66848450  0.99492122  0.45973380  1  0  0.624092  0  3.933287  0  0  0.563089  0  4.252267  0  0  0.597473  0  4.242426  0  1.610638  0  0.210674  0.539079  0  4.258799  0
C  C48  1  0.39851840  0.01595390  0.65344866  1  0  0.083942  0  3.649486  0  0  0.071169  0  3.927889  0  0  0.075895  0  3.939123  0  0.592574  0  0.117811  0.068082  0  3.920447  0
C  C49  1  0.60149725  0.98406241  0.34654610  1  0  0.083521  0  3.650136  0  0  0.070757  0  3.928723  0  0  0.075488  0  3.939961  0  0.592572  0  0.117686  0.067665  0  3.92129  0
C  C50  1  0.38935317  0.14015799  0.74111103  1  0  -0.202405  0  3.726518  0  0  -0.252772  0  3.970725  0  0  -0.25373  0  3.978976  0  -0.03518  0  -0.156096  -0.252041  0  3.965159  0
C  C51  1  0.61062557  0.85985729  0.25889987  1  0  -0.202151  0  3.726809  0  0  -0.252627  0  3.971245  0  0  -0.253596  0  3.979503  0  -0.034149  0  -0.156033  -0.251906  0  3.965678  0
C  C52  1  0.24729761  0.11025919  0.78617506  1  0  0.101243  0  3.736885  0  0  0.125918  0  3.970235  0  0  0.125378  0  3.996038  0  -0.03554  0  -0.0108  0.126287  0  3.95303  0
C  C53  1  0.75265098  0.88970839  0.21381170  1  0  0.100599  0  3.737732  0  0  0.125524  0  3.970866  0  0  0.124986  0  3.996663  0  -0.036325  0  -0.010949  0.125883  0  3.953688  0
C  C54  1  0.28665034  0.12520548  0.89208162  1  0  -0.128963  0  3.751465  0  0  -0.149807  0  3.996469  0  0  -0.152457  0  4.017886  0  -0.046987  0  -0.096565  -0.148206  0  3.983041  0
C  C55  1  0.71330725  0.87477351  0.10791056  1  0  -0.128833  0  3.752003  0  0  -0.149723  0  3.996892  0  0  -0.152371  0  4.018307  0  -0.045557  0  -0.096625  -0.148108  0  3.983474  0
C  C56  1  0.15648683  0.10210601  0.93530342  1  0  -0.077346  0  3.787602  0  0  -0.086777  0  4.033995  0  0  -0.088871  0  4.055912  0  -0.036666  0  -0.095294  -0.085206  0  4.020069  0
C  C57  1  0.84346546  0.89789889  0.06468480  1  0  -0.077385  0  3.786941  0  0  -0.08691  0  4.0334  0  0  -0.089009  0  4.055322  0  -0.037346  0  -0.095219  -0.085334  0  4.019464  0
C  C58  1  0.98489296  0.06044964  0.87207343  1  0  -0.080665  0  3.771079  0  0  -0.096636  0  4.020321  0  0  -0.098986  0  4.041628  0  -0.106904  0  -0.097159  -0.095398  0  4.006641  0
C  C59  1  0.01506409  0.93955942  0.12792426  1  0  -0.080876  0  3.770804  0  0  -0.096827  0  4.020137  0  0  -0.099178  0  4.041445  0  -0.106758  0  -0.097257  -0.095587  0  4.00645  0
C  C60  1  0.94520908  0.04198499  0.76577876  1  0  -0.060454  0  3.788615  0  0  -0.070936  0  4.037233  0  0  -0.070986  0  4.056734  0  -0.022618  0  -0.097203  -0.070461  0  4.023521  0
C  C61  1  0.05476995  0.95802614  0.23422768  1  0  -0.0608  0  3.78804  0  0  -0.071289  0  4.036694  0  0  -0.071344  0  4.0562  0  -0.022826  0  -0.09717  -0.07081  0  4.02299  0
C  C62  1  0.07491198  0.06782326  0.72311354  1  0  -0.133265  0  3.727852  0  0  -0.150932  0  3.970334  0  0  -0.154571  0  3.99253  0  -0.061823  0  -0.100029  -0.14805  0  3.954631  0
C  C63  1  0.92503914  0.93214432  0.27687290  1  0  -0.132306  0  3.727299  0  0  -0.149971  0  3.9697  0  0  -0.153605  0  3.991892  0  -0.062308  0  -0.099749  -0.147086  0  3.953981  0
C  C64  1  0.35895988  0.40472635  0.28106298  1  0  0.625496  0  3.917174  0  0  0.571101  0  4.22396  0  0  0.605052  0  4.214518  0  1.602574  0  0.220783  0.547838  0  4.229028  0
C  C65  1  0.64104750  0.59528167  0.71893143  1  0  0.625369  0  3.917093  0  0  0.570915  0  4.22388  0  0  0.604862  0  4.214449  0  1.603676  0  0.220812  0.547654  0  4.228942  0
C  C66  1  0.27521744  0.50892845  0.24043396  1  0  0.096915  0  3.632963  0  0  0.087377  0  3.90233  0  0  0.092758  0  3.912932  0  0.613222  0  0.124863  0.083796  0  3.89493  0
C  C67  1  0.72480419  0.49107024  0.75955122  1  0  0.096689  0  3.632978  0  0  0.087377  0  3.902087  0  0  0.092758  0  3.912685  0  0.61353  0  0.124754  0.083801  0  3.89468  0
C  C68  1  0.16288619  0.46848183  0.12927616  1  0  -0.212332  0  3.724193  0  0  -0.261172  0  3.966054  0  0  -0.262205  0  3.974327  0  -0.00327  0  -0.155343  -0.260248  0  3.960244  0
C  C69  1  0.83707952  0.53149405  0.87071936  1  0  -0.212272  0  3.724851  0  0  -0.261184  0  3.966662  0  0  -0.262203  0  3.974915  0  -0.001805  0  -0.155319  -0.260256  0  3.960856  0
C  C70  1  0.97443419  0.43639469  0.12200615  1  0  0.102344  0  3.719698  0  0  0.12574  0  3.954986  0  0  0.124874  0  3.979702  0  -0.075101  0  -0.009735  0.126271  0  3.937882  0
C  C71  1  0.02553955  0.56358845  0.87800217  1  0  0.10221  0  3.719768  0  0  0.125505  0  3.955217  0  0  0.12463  0  3.979949  0  -0.075152  0  -0.009774  0.12604  0  3.9381  0
C  C72  1  0.86843336  0.53414785  0.11541171  1  0  -0.129117  0  3.74688  0  0  -0.149565  0  3.994891  0  0  -0.151478  0  4.016044  0  0.015185  0  -0.095542  -0.14787  0  3.980658  0
C  C73  1  0.13156152  0.46584462  0.88461542  1  0  -0.128796  0  3.746744  0  0  -0.149077  0  3.994636  0  0  -0.150984  0  4.015784  0  0.014818  0  -0.095215  -0.147378  0  3.980394  0
C  C74  1  0.69574020  0.50407697  0.10994892  1  0  -0.078611  0  3.794231  0  0  -0.087891  0  4.039827  0  0  -0.090576  0  4.062927  0  -0.096834  0  -0.097907  -0.085831  0  4.024076  0
C  C75  1  0.30424807  0.49591964  0.89007676  1  0  -0.078961  0  3.794785  0  0  -0.088259  0  4.040358  0  0  -0.090932  0  4.06344  0  -0.097028  0  -0.098017  -0.086204  0  4.024612  0
C  C76  1  0.62805021  0.37714652  0.11269035  1  0  -0.086361  0  3.789329  0  0  -0.101061  0  4.035503  0  0  -0.103298  0  4.057751  0  -0.055197  0  -0.10158  -0.099307  0  4.019851  0
C  C77  1  0.37193417  0.62283351  0.88731815  1  0  -0.086154  0  3.78973  0  0  -0.100848  0  4.035841  0  0  -0.10309  0  4.0581  0  -0.054378  0  -0.101608  -0.099108  0  4.020197  0
C  C78  1  0.73308649  0.27925342  0.11971771  1  0  -0.075468  0  3.790862  0  0  -0.085608  0  4.036364  0  0  -0.087154  0  4.057026  0  -0.055348  0  -0.097678  -0.08423  0  4.022349  0
C  C79  1  0.26689658  0.72073179  0.88029888  1  0  -0.075457  0  3.791449  0  0  -0.08552  0  4.036952  0  0  -0.087076  0  4.057624  0  -0.055509  0  -0.097661  -0.084143  0  4.022931  0
C  C80  1  0.90511812  0.30862767  0.12395899  1  0  -0.134282  0  3.749102  0  0  -0.151348  0  3.98889  0  0  -0.154909  0  4.012368  0  -0.089956  0  -0.097259  -0.148563  0  3.973093  0
C  C81  1  0.09487355  0.69135650  0.87605016  1  0  -0.134429  0  3.749805  0  0  -0.151475  0  3.989683  0  0  -0.155059  0  4.013156  0  -0.089918  0  -0.097539  -0.148677  0  3.973892  0
C  C82  1  0.88459361  0.62605331  0.39396656  1  0  -0.437683  0  3.532552  0  0  -0.503691  0  3.772347  0  0  -0.507878  0  3.776589  0  -0.23494  0  -0.234484  -0.500332  0  3.769651  0
C  C83  1  0.11545136  0.37396403  0.60605126  1  0  -0.437404  0  3.532277  0  0  -0.503286  0  3.77214  0  0  -0.507503  0  3.776346  0  -0.238426  0  -0.234399  -0.499926  0  3.769447  0
C  C84  1  0.96355596  0.70455605  0.60751161  1  0  -0.438346  0  3.562801  0  0  -0.507284  0  3.804763  0  0  -0.511943  0  3.811403  0  -0.241071  0  -0.233004  -0.50379  0  3.800345  0
C  C85  1  0.03650690  0.29546752  0.39251036  1  0  -0.43893  0  3.563268  0  0  -0.507749  0  3.805112  0  0  -0.512415  0  3.811756  0  -0.241774  0  -0.233109  -0.504251  0  3.800693  0
S  S86  1  0.05898262  0.72173422  0.51038548  1  0  0.727563  0  3.54382  0  0  0.695564  0  3.985502  0  0  0.712392  0  3.983698  0  1.132204  0  0.299817  0.683358  0  3.986872  0
S  S87  1  0.94106516  0.27827897  0.48962543  1  0  0.727278  0  3.54366  0  0  0.695326  0  3.98527  0  0  0.712152  0  3.983474  0  1.133389  0  0.299694  0.683116  0  3.986631  0
N  N88  1  0.46371645  0.91251864  0.66937630  1  0  -0.155074  0  3.136834  0  0  -0.111862  0  3.419506  0  0  -0.116918  0  3.431109  0  -0.610151  0  -0.205426  -0.108502  0  3.411518  0
N  N89  1  0.53624037  0.08746242  0.33059219  1  0  -0.154813  0  3.137163  0  0  -0.111624  0  3.419869  0  0  -0.116675  0  3.431464  0  -0.61026  0  -0.205472  -0.10826  0  3.411877  0
N  N90  1  0.30233876  0.63172270  0.30953075  1  0  -0.145409  0  3.127021  0  0  -0.102296  0  3.406863  0  0  -0.108659  0  3.420389  0  -0.630312  0  -0.206635  -0.097959  0  3.397615  0
N  N91  1  0.69770120  0.36828946  0.69044335  1  0  -0.145209  0  3.127558  0  0  -0.102184  0  3.407334  0  0  -0.108541  0  3.420861  0  -0.630183  0  -0.206627  -0.097845  0  3.398073  0
O  O92  1  0.33577710  0.89225542  0.46898498  1  0  -0.68378  0  2.171051  0  0  -0.6134  0  2.423087  0  0  -0.642891  0  2.414893  0  -1.199333  0  -0.303849  -0.592021  0  2.428271  0
O  O93  1  0.66420855  0.10775156  0.53098397  1  0  -0.683871  0  2.171376  0  0  -0.613425  0  2.423399  0  0  -0.642943  0  2.415221  0  -1.198949  0  -0.303774  -0.592035  0  2.428587  0
O  O94  1  0.27594022  0.10668589  0.52178421  1  0  -0.633839  0  1.988224  0  0  -0.576922  0  2.233984  0  0  -0.602128  0  2.226894  0  -1.185466  0  -0.309163  -0.559161  0  2.239501  0
O  O95  1  0.72411588  0.89330347  0.47819196  1  0  -0.633847  0  1.988549  0  0  -0.576876  0  2.234284  0  0  -0.60209  0  2.227226  0  -1.185544  0  -0.30908  -0.559117  0  2.239803  0
O  O96  1  0.52441351  0.92384809  0.77182634  1  0  -0.37056  0  2.067125  0  0  -0.32521  0  2.288232  0  0  -0.345568  0  2.284561  0  -0.744256  0  -0.241733  -0.310411  0  2.290153  0
O  O97  1  0.47554769  0.07617859  0.22815908  1  0  -0.370422  0  2.067276  0  0  -0.324989  0  2.288364  0  0  -0.345347  0  2.284686  0  -0.744244  0  -0.241633  -0.310201  0  2.290282  0
O  O98  1  0.45437169  0.44748675  0.37652129  1  0  -0.682154  0  2.064994  0  0  -0.60336  0  2.310693  0  0  -0.634803  0  2.303949  0  -1.199502  0  -0.298556  -0.580101  0  2.314736  0
O  O99  1  0.54570124  0.55254200  0.62346730  1  0  -0.681966  0  2.065296  0  0  -0.603135  0  2.31094  0  0  -0.63457  0  2.304194  0  -1.200776  0  -0.298549  -0.57988  0  2.314981  0
O  O100  1  0.32684671  0.28147597  0.21692013  1  0  -0.587447  0  1.991291  0  0  -0.538486  0  2.219524  0  0  -0.562049  0  2.209572  0  -1.180337  0  -0.298315  -0.52206  0  2.22571  0
O  O101  1  0.67310417  0.71851753  0.78309000  1  0  -0.587418  0  1.991156  0  0  -0.538497  0  2.219415  0  0  -0.56206  0  2.209468  0  -1.180548  0  -0.298334  -0.522071  0  2.225602  0
O  O102  1  0.22301748  0.72669559  0.27535690  1  0  -0.372794  0  2.087048  0  0  -0.32797  0  2.316553  0  0  -0.348068  0  2.315646  0  -0.74323  0  -0.240805  -0.313696  0  2.31669  0
O  O103  1  0.77700328  0.27331554  0.72461265  1  0  -0.372855  0  2.087162  0  0  -0.328088  0  2.316582  0  0  -0.348203  0  2.315675  0  -0.743589  0  -0.240787  -0.313828  0  2.316761  0
O  O104  1  0.19661141  0.62905335  0.51210936  1  0  -0.6651  0  1.936037  0  0  -0.581906  0  2.19614  0  0  -0.607629  0  2.188891  0  -1.212581  0  -0.331083  -0.563358  0  2.20116  0
O  O105  1  0.80343035  0.37095570  0.48790321  1  0  -0.664839  0  1.935429  0  0  -0.581795  0  2.195636  0  0  -0.607512  0  2.188373  0  -1.213186  0  -0.331065  -0.563232  0  2.200631  0
