# generated using pymatgen
data_ZnH17C24N2O5
_symmetry_space_group_name_H-M   'P 1'
_cell_length_a   9.11143315
_cell_length_b   14.45321065
_cell_length_c   17.19720978
_cell_angle_alpha   90.00003212
_cell_angle_beta   101.64176614
_cell_angle_gamma   90.00048430
_symmetry_Int_Tables_number   1
_chemical_formula_structural   ZnH17C24N2O5
_chemical_formula_sum   'Zn4 H68 C96 N8 O20'
_cell_volume   2218.10301755
_cell_formula_units_Z   4
loop_
 _symmetry_equiv_pos_site_id
 _symmetry_equiv_pos_as_xyz
  1  'x, y, z'
loop_
 _atom_site_type_symbol
 _atom_site_label
 _atom_site_symmetry_multiplicity
 _atom_site_fract_x
 _atom_site_fract_y
 _atom_site_fract_z
 _atom_site_occupancy
 _atom_site_pbe_bader_charge
 _atom_site_pbe_bader_spin_density
 _atom_site_pbe_cm5_charge
 _atom_site_pbe_ddec_charge
 _atom_site_pbe_ddec_spin_density
 _atom_site_pbe_ddec_sum_bond_order
 _atom_site_pbe_magmom
Zn  Zn0  1  0.32716932  0.86123381  0.19508428  1  1.250473  0  0.69116  0.761668  0  2.391319  0
Zn  Zn1  1  0.17283239  0.36123104  0.30491194  1  1.250448  0  0.69123  0.761759  0  2.39147  0
Zn  Zn2  1  0.67283519  0.13876364  0.80490966  1  1.250483  0  0.691252  0.761839  0  2.391292  0
Zn  Zn3  1  0.82716323  0.63876850  0.69508690  1  1.250535  0  0.691182  0.761666  0  2.391409  0
H  H4  1  0.09734577  0.75166125  0.90284328  1  0.132818  0  0.1024  0.106956  0  1.037899  0
H  H5  1  0.40266466  0.25166440  0.59715968  1  0.13273  0  0.10244  0.107001  0  1.037691  0
H  H6  1  0.90265661  0.24833967  0.09715916  1  0.132805  0  0.102469  0.107046  0  1.037972  0
H  H7  1  0.59733544  0.74833997  0.40283904  1  0.132885  0  0.102489  0.107092  0  1.037719  0
H  H8  1  0.38875388  0.55438334  0.82386920  1  0.098396  0  0.104715  0.123091  0  1.024219  0
H  H9  1  0.11124376  0.05438914  0.67613757  1  0.098521  0  0.10477  0.123153  0  1.024143  0
H  H10  1  0.61124634  0.44560858  0.17613942  1  0.0983  0  0.104789  0.123156  0  1.024133  0
H  H11  1  0.88875526  0.94561246  0.32386452  1  0.098345  0  0.104752  0.123154  0  1.024246  0
H  H12  1  0.54365868  0.71643675  0.03685167  1  0.063388  0  0.100143  0.107391  0  1.063818  0
H  H13  1  0.95634193  0.21644045  0.46315031  1  0.063544  0  0.100122  0.107427  0  1.063787  0
H  H14  1  0.45633690  0.28356762  0.96314367  1  0.063459  0  0.10014  0.107452  0  1.063654  0
H  H15  1  0.04366268  0.78355493  0.53685061  1  0.063624  0  0.100157  0.10745  0  1.063582  0
H  H16  1  0.69209636  0.59243703  0.05871442  1  0.073912  0  0.101701  0.073054  0  0.982844  0
H  H17  1  0.80791363  0.09243853  0.44128265  1  0.074009  0  0.101681  0.07303  0  0.982756  0
H  H18  1  0.30791948  0.40757150  0.94129057  1  0.073882  0  0.101698  0.073029  0  0.98283  0
H  H19  1  0.19208300  0.90756723  0.55870815  1  0.073949  0  0.10168  0.073022  0  0.982818  0
H  H20  1  0.75941489  0.68307587  0.00426709  1  0.024145  0  0.102014  0.068276  0  0.982609  0
H  H21  1  0.74058402  0.18307775  0.49572713  1  0.024123  0  0.102021  0.068292  0  0.98259  0
H  H22  1  0.24058746  0.31692988  0.99573302  1  0.024238  0  0.10201  0.068307  0  0.982612  0
H  H23  1  0.25941263  0.81692801  0.50426483  1  0.024172  0  0.102011  0.068286  0  0.982646  0
H  H24  1  0.75125626  0.42397598  0.97890141  1  0.072403  0  0.09662  0.093282  0  1.053628  0
H  H25  1  0.74873837  0.92398029  0.52109955  1  0.072512  0  0.096659  0.093366  0  1.053674  0
H  H26  1  0.24874154  0.57602286  0.02109358  1  0.072427  0  0.096648  0.093257  0  1.053676  0
H  H27  1  0.25125388  0.07602340  0.47889836  1  0.072435  0  0.096625  0.093282  0  1.053649  0
H  H28  1  0.02142802  0.66959662  0.02347994  1  0.095007  0  0.098383  0.099617  0  1.02666  0
H  H29  1  0.47857208  0.16959491  0.47651253  1  0.094978  0  0.098401  0.099666  0  1.026687  0
H  H30  1  0.97857312  0.33040361  0.97651307  1  0.094985  0  0.098396  0.099646  0  1.026658  0
H  H31  1  0.52142915  0.83040600  0.52348747  1  0.09503  0  0.098386  0.099619  0  1.026689  0
H  H32  1  0.10158824  0.97959718  0.08640714  1  0.172477  0  0.118557  0.102414  0  1.01578  0
H  H33  1  0.39841184  0.47959638  0.41359420  1  0.172423  0  0.118602  0.102498  0  1.01582  0
H  H34  1  0.89841747  0.02040581  0.91359274  1  0.172506  0  0.118605  0.102466  0  1.015851  0
H  H35  1  0.60159053  0.52040522  0.58640765  1  0.172324  0  0.118578  0.102407  0  1.015861  0
H  H36  1  0.89688833  0.08309264  0.11116123  1  0.138695  0  0.111104  0.127922  0  1.020366  0
H  H37  1  0.60312379  0.58309434  0.38883664  1  0.138577  0  0.111097  0.127877  0  1.020331  0
H  H38  1  0.10311291  0.91690067  0.88883935  1  0.139044  0  0.111104  0.127899  0  1.020406  0
H  H39  1  0.39689538  0.41689412  0.61116580  1  0.138884  0  0.111157  0.127969  0  1.020437  0
H  H40  1  0.13569569  0.10383140  0.35531575  1  0.102222  0  0.109205  0.119328  0  1.017623  0
H  H41  1  0.36430919  0.60382880  0.14468474  1  0.102235  0  0.109213  0.119311  0  1.017594  0
H  H42  1  0.86431116  0.89616467  0.64468599  1  0.10221  0  0.10923  0.119349  0  1.017656  0
H  H43  1  0.63570660  0.39616796  0.85531618  1  0.102266  0  0.109228  0.119337  0  1.017583  0
H  H44  1  0.32887990  0.99783534  0.32026689  1  0.123338  0  0.120424  0.095  0  0.999018  0
H  H45  1  0.17112486  0.49783455  0.17973029  1  0.123126  0  0.120415  0.094964  0  0.998991  0
H  H46  1  0.67112018  0.00215935  0.67973066  1  0.123121  0  0.120445  0.095039  0  0.998986  0
H  H47  1  0.82888306  0.50216222  0.82026749  1  0.123266  0  0.120478  0.095058  0  0.999053  0
H  H48  1  0.90204372  0.19137800  0.31365036  1  0.083528  0  0.106352  0.108791  0  1.018159  0
H  H49  1  0.59794980  0.69137816  0.18635029  1  0.083499  0  0.10632  0.108753  0  1.01821  0
H  H50  1  0.09793633  0.80860977  0.68635559  1  0.083583  0  0.106322  0.108777  0  1.018117  0
H  H51  1  0.40206822  0.30860684  0.81365028  1  0.083444  0  0.106327  0.10879  0  1.018159  0
H  H52  1  0.69875196  0.09171651  0.17285554  1  0.087157  0  0.113153  0.120823  0  0.98123  0
H  H53  1  0.80123895  0.59170817  0.32713723  1  0.087203  0  0.113176  0.120929  0  0.981177  0
H  H54  1  0.30123466  0.90828441  0.82713887  1  0.087177  0  0.113185  0.120989  0  0.981138  0
H  H55  1  0.19877463  0.40828376  0.67286579  1  0.087252  0  0.113163  0.120985  0  0.981181  0
H  H56  1  0.44026092  0.13776785  0.14225696  1  0.07593  0  0.115113  0.125688  0  0.976739  0
H  H57  1  0.05972862  0.63776377  0.35773207  1  0.076391  0  0.115049  0.125622  0  0.976816  0
H  H58  1  0.55972117  0.86224275  0.85773350  1  0.07626  0  0.115079  0.125692  0  0.976763  0
H  H59  1  0.94028045  0.36224752  0.64226815  1  0.076226  0  0.115077  0.125685  0  0.976783  0
H  H60  1  0.22554769  0.22610406  0.17731554  1  0.128474  0  0.119791  0.09477  0  0.993407  0
H  H61  1  0.27444094  0.72610803  0.32268100  1  0.128645  0  0.119869  0.094882  0  0.993377  0
H  H62  1  0.77444008  0.77390515  0.82268190  1  0.128607  0  0.119827  0.094858  0  0.99326  0
H  H63  1  0.72555248  0.27390880  0.67732051  1  0.128569  0  0.1198  0.094819  0  0.993286  0
H  H64  1  0.49327596  0.32791061  0.38275449  1  0.118476  0  0.11692  0.089893  0  1.023469  0
H  H65  1  0.00672644  0.82791368  0.11724411  1  0.11836  0  0.116899  0.089903  0  1.023475  0
H  H66  1  0.50671749  0.67208131  0.61724936  1  0.118489  0  0.116867  0.089825  0  1.023529  0
H  H67  1  0.99326802  0.17208585  0.88275111  1  0.118485  0  0.116922  0.08993  0  1.023459  0
H  H68  1  0.72068354  0.25287321  0.35311468  1  0.076651  0  0.112512  0.119681  0  1.002172  0
H  H69  1  0.77931185  0.75287223  0.14687748  1  0.076367  0  0.112522  0.11978  0  1.002117  0
H  H70  1  0.27930204  0.74711456  0.64688661  1  0.076433  0  0.112558  0.119741  0  1.002206  0
H  H71  1  0.22068605  0.24712176  0.85312450  1  0.076326  0  0.112507  0.119703  0  1.002259  0
C  C72  1  0.31930362  0.74159144  0.97483264  1  -0.043037  0  -0.025675  -0.021162  0  4.017442  0
C  C73  1  0.18069877  0.24158920  0.52516541  1  -0.042847  0  -0.025633  -0.021082  0  4.017425  0
C  C74  1  0.68070993  0.25840671  0.02516805  1  -0.042896  0  -0.025489  -0.020773  0  4.017194  0
C  C75  1  0.81928685  0.75841171  0.47483879  1  -0.042913  0  -0.025508  -0.020963  0  4.017248  0
C  C76  1  0.20666546  0.71901274  0.91020587  1  -0.01888  0  -0.090111  -0.140741  0  3.986919  0
C  C77  1  0.29334112  0.21900839  0.58979493  1  -0.018773  0  -0.09021  -0.140806  0  3.986859  0
C  C78  1  0.79334473  0.28098748  0.08979506  1  -0.018502  0  -0.090167  -0.140801  0  3.987402  0
C  C79  1  0.70665121  0.78099599  0.41020938  1  -0.018537  0  -0.090211  -0.1409  0  3.987199  0
C  C80  1  0.23122154  0.65063836  0.85650350  1  -0.046113  0  -0.018273  -0.010218  0  3.985769  0
C  C81  1  0.26876948  0.15063184  0.64349275  1  -0.046116  0  -0.018245  -0.01025  0  3.985961  0
C  C82  1  0.76877627  0.34935979  0.14349149  1  -0.046741  0  -0.018276  -0.010283  0  3.985949  0
C  C83  1  0.73121725  0.84936493  0.35651098  1  -0.046715  0  -0.018274  -0.010124  0  3.986012  0
C  C84  1  0.37017132  0.60688237  0.86628827  1  0.009234  0  -0.090788  -0.198524  0  3.919767  0
C  C85  1  0.12982254  0.10688063  0.63371522  1  0.009671  0  -0.090911  -0.198702  0  3.920056  0
C  C86  1  0.62982662  0.39311439  0.13371720  1  0.009791  0  -0.09091  -0.198701  0  3.919916  0
C  C87  1  0.87016865  0.89312029  0.36628664  1  0.009715  0  -0.090915  -0.198829  0  3.920212  0
C  C88  1  0.48496241  0.63094725  0.93064690  1  0.440484  0  0.07711  0.247335  0  4.081803  0
C  C89  1  0.01503520  0.13094969  0.56936048  1  0.439871  0  0.077132  0.247503  0  4.081869  0
C  C90  1  0.51503558  0.36905020  0.06936206  1  0.440001  0  0.077152  0.247621  0  4.081701  0
C  C91  1  0.98495820  0.86905538  0.43063928  1  0.440144  0  0.07712  0.247465  0  4.081697  0
C  C92  1  0.45914816  0.69756077  0.98527052  1  -0.036022  0  -0.109961  -0.247494  0  3.997853  0
C  C93  1  0.04085703  0.19756124  0.51473245  1  -0.036251  0  -0.109983  -0.247624  0  3.997997  0
C  C94  1  0.54086209  0.30243737  0.01473448  1  -0.035931  0  -0.110077  -0.247924  0  3.997767  0
C  C95  1  0.95913414  0.80244106  0.48526825  1  -0.036178  0  -0.110027  -0.247651  0  3.997498  0
C  C96  1  0.28661707  0.80615038  0.03746455  1  1.545611  0  0.199227  0.569776  0  4.212316  0
C  C97  1  0.21339394  0.30614725  0.46253145  1  1.546171  0  0.199222  0.569703  0  4.212673  0
C  C98  1  0.71339312  0.19384776  0.96253579  1  1.546737  0  0.199047  0.569485  0  4.212846  0
C  C99  1  0.78660397  0.69385367  0.53747111  1  1.545542  0  0.199108  0.569546  0  4.212753  0
C  C100  1  0.10606715  0.62407159  0.78896928  1  1.557664  0  0.194183  0.56304  0  4.21362  0
C  C101  1  0.39393359  0.12407270  0.71102854  1  1.55743  0  0.19422  0.562972  0  4.213184  0
C  C102  1  0.89392517  0.37593210  0.21103387  1  1.557765  0  0.194264  0.563167  0  4.213323  0
C  C103  1  0.60606763  0.87593306  0.28897029  1  1.557603  0  0.194185  0.562976  0  4.213687  0
C  C104  1  0.73385477  0.60843979  0.00413299  1  0.400331  0  -0.058884  -0.00667  0  3.91818  0
C  C105  1  0.76614311  0.10844111  0.49586168  1  0.400376  0  -0.058822  -0.00655  0  3.917738  0
C  C106  1  0.26615543  0.39156112  0.99586794  1  0.400649  0  -0.058891  -0.006714  0  3.918287  0
C  C107  1  0.23383893  0.89155842  0.50412587  1  0.40071  0  -0.058868  -0.00679  0  3.918422  0
C  C108  1  0.87102798  0.55274389  0.00094039  1  0.111036  0  -0.017081  0.075236  0  3.986518  0
C  C109  1  0.62896463  0.05274447  0.49905370  1  0.111219  0  -0.017097  0.075324  0  3.986565  0
C  C110  1  0.12896646  0.44725634  0.99905367  1  0.111113  0  -0.0171  0.075389  0  3.986201  0
C  C111  1  0.37103656  0.94725575  0.50094338  1  0.11129  0  -0.017142  0.07531  0  3.986315  0
C  C112  1  0.86035185  0.45741936  0.98723986  1  -0.043626  0  -0.091411  -0.117324  0  3.984172  0
C  C113  1  0.63964103  0.95742169  0.51276151  1  -0.043588  0  -0.091426  -0.117462  0  3.984421  0
C  C114  1  0.13963589  0.54258363  0.01275467  1  -0.043579  0  -0.091456  -0.117398  0  3.984076  0
C  C115  1  0.36036021  0.04258199  0.48723907  1  -0.043705  0  -0.091395  -0.117335  0  3.984074  0
C  C116  1  0.01185514  0.59502561  0.01381858  1  -0.196258  0  -0.09103  -0.128552  0  3.979212  0
C  C117  1  0.48814168  0.09502743  0.48617468  1  -0.196374  0  -0.091098  -0.128715  0  3.97944  0
C  C118  1  0.98813595  0.40497461  0.98617630  1  -0.196397  0  -0.091031  -0.128654  0  3.9794  0
C  C119  1  0.51186064  0.90497695  0.51382369  1  -0.196643  0  -0.09103  -0.128592  0  3.979643  0
C  C120  1  0.10256281  0.00876654  0.14504060  1  0.368336  0  0.042224  0.079859  0  3.954266  0
C  C121  1  0.39744971  0.50876289  0.35496179  1  0.368257  0  0.042153  0.079723  0  3.954155  0
C  C122  1  0.89745077  0.99123783  0.85496242  1  0.367861  0  0.042193  0.079956  0  3.954058  0
C  C123  1  0.60256496  0.49122972  0.64503901  1  0.368338  0  0.042258  0.080056  0  3.954323  0
C  C124  1  0.98810423  0.06473850  0.16017364  1  0.008725  0  -0.075003  -0.163592  0  3.893734  0
C  C125  1  0.51190655  0.56473899  0.33982756  1  0.00864  0  -0.075042  -0.163531  0  3.893542  0
C  C126  1  0.01190266  0.93526172  0.83983101  1  0.008272  0  -0.075067  -0.163677  0  3.893767  0
C  C127  1  0.48811259  0.43525847  0.66017312  1  0.008292  0  -0.075085  -0.163796  0  3.894116  0
C  C128  1  0.99352298  0.09726419  0.23795994  1  -0.037571  0  0.018004  0.160704  0  3.992677  0
C  C129  1  0.50648040  0.59726736  0.26203936  1  -0.037077  0  0.018043  0.160676  0  3.993033  0
C  C130  1  0.00646931  0.90273396  0.76204088  1  -0.036736  0  0.018031  0.160664  0  3.992776  0
C  C131  1  0.49353874  0.40273355  0.73796074  1  -0.036978  0  0.017946  0.160556  0  3.99272  0
C  C132  1  0.12316450  0.07721719  0.29513337  1  0.010516  0  -0.075939  -0.167868  0  3.918379  0
C  C133  1  0.37684341  0.57722024  0.20487149  1  0.009971  0  -0.075991  -0.167828  0  3.918425  0
C  C134  1  0.87683563  0.92278165  0.70486825  1  0.010514  0  -0.075976  -0.167913  0  3.918643  0
C  C135  1  0.62317803  0.42278206  0.79513350  1  0.010494  0  -0.075973  -0.16783  0  3.918294  0
C  C136  1  0.23137792  0.01900134  0.27598656  1  0.446397  0  0.047749  0.09559  0  3.949071  0
C  C137  1  0.26862690  0.51899967  0.22401505  1  0.446932  0  0.047755  0.095649  0  3.948938  0
C  C138  1  0.76862553  0.98100096  0.72401193  1  0.44659  0  0.047777  0.095674  0  3.949169  0
C  C139  1  0.73138668  0.48100055  0.77598855  1  0.446342  0  0.047692  0.095592  0  3.949  0
C  C140  1  0.87088169  0.14734893  0.26124831  1  -0.13851  0  -0.075751  -0.11689  0  3.929652  0
C  C141  1  0.62910446  0.64735136  0.23874923  1  -0.138841  0  -0.075623  -0.11678  0  3.930247  0
C  C142  1  0.12910053  0.85264230  0.73875263  1  -0.139397  0  -0.075644  -0.11675  0  3.930017  0
C  C143  1  0.37089342  0.35264125  0.76125100  1  -0.138911  0  -0.075591  -0.116803  0  3.929901  0
C  C144  1  0.72655417  0.13888536  0.22323890  1  0.077658  0  -0.066306  -0.094383  0  3.927391  0
C  C145  1  0.77343181  0.63888237  0.27675455  1  0.078035  0  -0.066379  -0.09453  0  3.927431  0
C  C146  1  0.27342689  0.86111141  0.77675901  1  0.077995  0  -0.066287  -0.094522  0  3.927498  0
C  C147  1  0.22656717  0.36110955  0.72324405  1  0.077973  0  -0.066404  -0.094566  0  3.927743  0
C  C148  1  0.60036638  0.18713728  0.24469745  1  0.063004  0  0.019584  0.159801  0  3.994143  0
C  C149  1  0.89963595  0.68713564  0.25529655  1  0.062666  0  0.019532  0.159677  0  3.993816  0
C  C150  1  0.39962025  0.81286225  0.75529813  1  0.062555  0  0.019567  0.159858  0  3.993695  0
C  C151  1  0.10038094  0.31286319  0.74470274  1  0.062582  0  0.019629  0.159912  0  3.993851  0
C  C152  1  0.45721766  0.18038129  0.19559798  1  -0.033267  0  -0.074888  -0.164907  0  3.913558  0
C  C153  1  0.04278929  0.68038192  0.30439345  1  -0.03359  0  -0.074793  -0.164718  0  3.913562  0
C  C154  1  0.54277454  0.81962240  0.80439526  1  -0.033417  0  -0.074909  -0.165061  0  3.913607  0
C  C155  1  0.95722873  0.31962453  0.69560712  1  -0.033135  0  -0.074867  -0.165028  0  3.913559  0
C  C156  1  0.33745304  0.22854882  0.21480396  1  0.451202  0  0.048851  0.097811  0  3.945225  0
C  C157  1  0.16254678  0.72855215  0.28518967  1  0.451082  0  0.048894  0.097807  0  3.945284  0
C  C158  1  0.66253920  0.77145763  0.78519278  1  0.450964  0  0.04884  0.097837  0  3.945221  0
C  C159  1  0.83746000  0.27145845  0.71480683  1  0.451023  0  0.04877  0.097777  0  3.945029  0
C  C160  1  0.48783174  0.28669413  0.32913747  1  0.509052  0  0.042852  0.082992  0  3.963617  0
C  C161  1  0.01216442  0.78669727  0.17085640  1  0.50945  0  0.042965  0.083099  0  3.963609  0
C  C162  1  0.51216052  0.71330471  0.67086102  1  0.509197  0  0.042991  0.083238  0  3.963457  0
C  C163  1  0.98783564  0.21330641  0.82913999  1  0.509018  0  0.042832  0.082919  0  3.963545  0
C  C164  1  0.61324837  0.24288136  0.31283967  1  -0.066828  0  -0.074648  -0.159451  0  3.915427  0
C  C165  1  0.88674911  0.74287960  0.18715211  1  -0.066889  0  -0.074666  -0.15956  0  3.915305  0
C  C166  1  0.38673491  0.75711472  0.68715672  1  -0.066632  0  -0.074719  -0.159625  0  3.915238  0
C  C167  1  0.11325990  0.25711993  0.81284404  1  -0.066691  0  -0.074637  -0.15945  0  3.915223  0
N  N168  1  0.21989789  0.98309226  0.20253623  1  -1.266109  0  -0.34003  -0.256667  0  3.614974  0
N  N169  1  0.28010112  0.48308452  0.29746500  1  -1.266061  0  -0.339992  -0.256702  0  3.614843  0
N  N170  1  0.78010894  0.01691488  0.79746376  1  -1.26593  0  -0.340081  -0.256881  0  3.614972  0
N  N171  1  0.71990237  0.51690878  0.70253639  1  -1.266083  0  -0.340038  -0.256752  0  3.61485  0
N  N172  1  0.35136924  0.28062035  0.28089460  1  -1.242991  0  -0.328224  -0.238382  0  3.539326  0
N  N173  1  0.14861790  0.78062219  0.21910066  1  -1.242794  0  -0.328407  -0.238587  0  3.539308  0
N  N174  1  0.64861965  0.71938402  0.71910296  1  -1.242717  0  -0.328321  -0.238534  0  3.539281  0
N  N175  1  0.85137434  0.21937942  0.78089667  1  -1.24275  0  -0.328194  -0.238389  0  3.539189  0
O  O176  1  0.38617885  0.80492949  0.10337150  1  -1.16729  0  -0.338978  -0.552059  0  2.344944  0
O  O177  1  0.11382549  0.30492785  0.39662904  1  -1.167967  0  -0.338976  -0.552032  0  2.344955  0
O  O178  1  0.61384252  0.19506727  0.89662826  1  -1.168373  0  -0.338891  -0.551956  0  2.34508  0
O  O179  1  0.88617466  0.69507168  0.60337375  1  -1.167508  0  -0.339  -0.552025  0  2.344991  0
O  O180  1  0.16860239  0.85320881  0.02578238  1  -1.183297  0  -0.327615  -0.564877  0  2.132849  0
O  O181  1  0.33140479  0.35320147  0.47421266  1  -1.183192  0  -0.327591  -0.564812  0  2.133209  0
O  O182  1  0.83140230  0.14678934  0.97422554  1  -1.183325  0  -0.327587  -0.564814  0  2.133084  0
O  O183  1  0.66859427  0.64680014  0.52579234  1  -1.18314  0  -0.327525  -0.564698  0  2.133192  0
O  O184  1  0.97789569  0.66386509  0.79099600  1  -1.167864  0  -0.343904  -0.562898  0  2.321243  0
O  O185  1  0.52210537  0.16387112  0.70900432  1  -1.167823  0  -0.343907  -0.562878  0  2.321172  0
O  O186  1  0.02209442  0.33613237  0.20900924  1  -1.167681  0  -0.343989  -0.563032  0  2.321142  0
O  O187  1  0.47789585  0.83613394  0.29099509  1  -1.167706  0  -0.343951  -0.562923  0  2.321139  0
O  O188  1  0.12651173  0.56886590  0.73645714  1  -1.17454  0  -0.334094  -0.553158  0  2.091481  0
O  O189  1  0.37349059  0.06887040  0.76354954  1  -1.174435  0  -0.334159  -0.553171  0  2.091121  0
O  O190  1  0.87347278  0.43113156  0.26354753  1  -1.174763  0  -0.334112  -0.553185  0  2.091573  0
O  O191  1  0.62651295  0.93113259  0.23645593  1  -1.174586  0  -0.334052  -0.553081  0  2.091684  0
O  O192  1  0.61901447  0.58601365  0.93614658  1  -1.054544  0  -0.181485  -0.203959  0  2.538894  0
O  O193  1  0.88098102  0.08602151  0.56385313  1  -1.05475  0  -0.181457  -0.204062  0  2.538715  0
O  O194  1  0.38097559  0.41398104  0.06385459  1  -1.054988  0  -0.181468  -0.20405  0  2.538899  0
O  O195  1  0.11902244  0.91397871  0.43614593  1  -1.05501  0  -0.18138  -0.203819  0  2.539194  0
