# generated using pymatgen
data_ZnH15C12SN3O4
_symmetry_space_group_name_H-M   'P 1'
_cell_length_a   8.35718610
_cell_length_b   13.40030045
_cell_length_c   14.37428868
_cell_angle_alpha   89.99919146
_cell_angle_beta   90.00048866
_cell_angle_gamma   102.80599755
_symmetry_Int_Tables_number   1
_chemical_formula_structural   ZnH15C12SN3O4
_chemical_formula_sum   'Zn4 H60 C48 S4 N12 O16'
_cell_volume   1569.71850513
_cell_formula_units_Z   4
loop_
 _symmetry_equiv_pos_site_id
 _symmetry_equiv_pos_as_xyz
  1  'x, y, z'
loop_
 _atom_site_type_symbol
 _atom_site_label
 _atom_site_symmetry_multiplicity
 _atom_site_fract_x
 _atom_site_fract_y
 _atom_site_fract_z
 _atom_site_occupancy
 _atom_site_hle17_bader_spin_density
 _atom_site_hle17_ddec_charge
 _atom_site_hle17_ddec_spin_density
 _atom_site_hle17_ddec_sum_bond_order
 _atom_site_hle17_magmom
 _atom_site_hse06_10hf_bader_spin_density
 _atom_site_hse06_10hf_ddec_charge
 _atom_site_hse06_10hf_ddec_spin_density
 _atom_site_hse06_10hf_ddec_sum_bond_order
 _atom_site_hse06_10hf_magmom
 _atom_site_hse06_bader_spin_density
 _atom_site_hse06_ddec_charge
 _atom_site_hse06_ddec_spin_density
 _atom_site_hse06_ddec_sum_bond_order
 _atom_site_hse06_magmom
 _atom_site_pbe_bader_spin_density
 _atom_site_pbe_cm5_charge
 _atom_site_pbe_ddec_charge
 _atom_site_pbe_ddec_spin_density
 _atom_site_pbe_ddec_sum_bond_order
 _atom_site_pbe_magmom
Zn  Zn0  1  0.83272417  0.70375904  0.77938000  1  0  0.914573  0  1.899629  0  0  0.74867  0  2.340314  0  0  0.7979  0  2.289433  0  0  0.611619  0.714251  0  2.375064  0
Zn  Zn1  1  0.83272513  0.20376584  0.72062284  1  0  0.914572  0  1.899621  0  0  0.74865  0  2.340305  0  0  0.797879  0  2.289428  0  0  0.611617  0.714232  0  2.375079  0
Zn  Zn2  1  0.16727449  0.29623494  0.22062085  1  0  0.914537  0  1.899637  0  0  0.748592  0  2.340312  0  0  0.797821  0  2.289436  0  0  0.611591  0.714176  0  2.375053  0
Zn  Zn3  1  0.16727915  0.79623960  0.27937523  1  0  0.914507  0  1.899688  0  0  0.748573  0  2.340397  0  0  0.797807  0  2.289519  0  0  0.611574  0.714156  0  2.375146  0
H  H4  1  0.31931574  0.76054813  0.75964657  1  0  0.289018  0  0.850885  0  0  0.282002  0  0.896672  0  0  0.288209  0  0.892772  0  0  0.337957  0.277563  0  0.899599  0
H  H5  1  0.31931721  0.26054928  0.74035988  1  0  0.289035  0  0.850837  0  0  0.282043  0  0.896628  0  0  0.288256  0  0.892728  0  0  0.337987  0.277605  0  0.899546  0
H  H6  1  0.68068114  0.23944740  0.24035637  1  0  0.289118  0  0.850647  0  0  0.282105  0  0.896454  0  0  0.288317  0  0.89255  0  0  0.337985  0.277666  0  0.899382  0
H  H7  1  0.68068650  0.73945155  0.25964722  1  0  0.289033  0  0.850881  0  0  0.282016  0  0.896664  0  0  0.288224  0  0.892764  0  0  0.337973  0.277577  0  0.899588  0
H  H8  1  0.40890860  0.68960157  0.88198167  1  0  0.303871  0  0.950352  0  0  0.282947  0  1.017121  0  0  0.292323  0  1.009631  0  0  0.300505  0.276317  0  1.022477  0
H  H9  1  0.40890889  0.18960439  0.61802479  1  0  0.303871  0  0.950322  0  0  0.282978  0  1.017032  0  0  0.29235  0  1.00955  0  0  0.300548  0.27635  0  1.022382  0
H  H10  1  0.59108709  0.31039398  0.11801988  1  0  0.303809  0  0.950369  0  0  0.282916  0  1.017083  0  0  0.292288  0  1.009606  0  0  0.300525  0.27629  0  1.02243  0
H  H11  1  0.59109660  0.81039488  0.38198093  1  0  0.303933  0  0.950282  0  0  0.282995  0  1.017086  0  0  0.292372  0  1.009591  0  0  0.300523  0.276369  0  1.022434  0
H  H12  1  0.99015601  0.70411365  0.58502573  1  0  0.118635  0  0.936995  0  0  0.138621  0  0.997762  0  0  0.139479  0  0.99812  0  0  0.110232  0.137935  0  0.99756  0
H  H13  1  0.99015914  0.20411548  0.91498137  1  0  0.118622  0  0.936833  0  0  0.138656  0  0.997573  0  0  0.139513  0  0.997932  0  0  0.110281  0.13797  0  0.997365  0
H  H14  1  0.00984741  0.29588334  0.41497581  1  0  0.118675  0  0.936907  0  0  0.138655  0  0.997687  0  0  0.139517  0  0.998047  0  0  0.110251  0.137969  0  0.997484  0
H  H15  1  0.00983324  0.79588703  0.08502087  1  0  0.118686  0  0.936964  0  0  0.13868  0  0.997719  0  0  0.139537  0  0.998077  0  0  0.110254  0.137996  0  0.997515  0
H  H16  1  0.08036072  0.61672976  0.65000741  1  0  0.109498  0  0.939633  0  0  0.127915  0  1.003945  0  0  0.128389  0  1.004853  0  0  0.107007  0.127438  0  1.003504  0
H  H17  1  0.08036977  0.11673394  0.85000253  1  0  0.109615  0  0.939608  0  0  0.128048  0  1.003894  0  0  0.128522  0  1.004802  0  0  0.107062  0.127569  0  1.003461  0
H  H18  1  0.91964329  0.38326876  0.34999413  1  0  0.109578  0  0.93962  0  0  0.128001  0  1.003906  0  0  0.128477  0  1.004813  0  0  0.107062  0.127523  0  1.003475  0
H  H19  1  0.91962856  0.88326850  0.15000318  1  0  0.109549  0  0.939655  0  0  0.127965  0  1.003971  0  0  0.128438  0  1.004879  0  0  0.107011  0.127485  0  1.003533  0
H  H20  1  0.20935362  0.72526814  0.59474097  1  0  0.093838  0  0.956625  0  0  0.111435  0  1.022709  0  0  0.112256  0  1.02322  0  0  0.095766  0.110778  0  1.022426  0
H  H21  1  0.20935872  0.22527546  0.90526331  1  0  0.093833  0  0.95669  0  0  0.1114  0  1.022816  0  0  0.112213  0  1.023338  0  0  0.095749  0.110744  0  1.022525  0
H  H22  1  0.79064830  0.27473118  0.40526057  1  0  0.093862  0  0.956645  0  0  0.11144  0  1.022748  0  0  0.112259  0  1.023263  0  0  0.095767  0.110786  0  1.022462  0
H  H23  1  0.79063514  0.77472780  0.09474241  1  0  0.093817  0  0.956662  0  0  0.111429  0  1.022736  0  0  0.112247  0  1.023251  0  0  0.095765  0.110772  0  1.02245  0
H  H24  1  0.01419025  0.87663487  0.64331580  1  0  0.1118  0  0.935839  0  0  0.130531  0  1.000913  0  0  0.131466  0  1.00079  0  0  0.108165  0.12978  0  1.001131  0
H  H25  1  0.01418985  0.37663600  0.85668341  1  0  0.111769  0  0.935859  0  0  0.130498  0  1.00094  0  0  0.131434  0  1.000818  0  0  0.108156  0.129745  0  1.001155  0
H  H26  1  0.98580959  0.12336217  0.35668575  1  0  0.111767  0  0.93588  0  0  0.130487  0  1.000971  0  0  0.131423  0  1.00085  0  0  0.10815  0.129731  0  1.001185  0
H  H27  1  0.98580551  0.62336494  0.14331674  1  0  0.11178  0  0.935895  0  0  0.130514  0  1.000971  0  0  0.131452  0  1.000844  0  0  0.108142  0.129761  0  1.001186  0
H  H28  1  0.23041002  0.89706896  0.66429324  1  0  0.094429  0  0.921799  0  0  0.115367  0  0.981789  0  0  0.116697  0  0.980734  0  0  0.099679  0.114342  0  0.982627  0
H  H29  1  0.23040971  0.39707114  0.83570678  1  0  0.094364  0  0.921881  0  0  0.115382  0  0.981759  0  0  0.116714  0  0.980702  0  0  0.099703  0.114357  0  0.982597  0
H  H30  1  0.76959012  0.10292884  0.33570969  1  0  0.094369  0  0.921838  0  0  0.115395  0  0.981702  0  0  0.116728  0  0.980642  0  0  0.099704  0.114367  0  0.98254  0
H  H31  1  0.76958714  0.60293054  0.16429546  1  0  0.094336  0  0.921791  0  0  0.115328  0  0.981726  0  0  0.11666  0  0.980667  0  0  0.099675  0.114303  0  0.982566  0
H  H32  1  0.09111754  0.90922542  0.75735829  1  0  0.122179  0  0.949312  0  0  0.138511  0  1.014737  0  0  0.139819  0  1.014598  0  0  0.108907  0.137487  0  1.01496  0
H  H33  1  0.09111456  0.40922736  0.74263879  1  0  0.122163  0  0.949234  0  0  0.138463  0  1.014716  0  0  0.139771  0  1.014578  0  0  0.108887  0.137435  0  1.014937  0
H  H34  1  0.90887992  0.09077164  0.24264256  1  0  0.122191  0  0.949271  0  0  0.1385  0  1.01473  0  0  0.139808  0  1.014591  0  0  0.108913  0.137469  0  1.014952  0
H  H35  1  0.90888348  0.59077431  0.25735997  1  0  0.122174  0  0.949329  0  0  0.138482  0  1.014788  0  0  0.13979  0  1.01465  0  0  0.108898  0.137452  0  1.015016  0
H  H36  1  0.23681013  0.62258654  0.04005758  1  0  0.099555  0  0.92927  0  0  0.118462  0  0.994162  0  0  0.119661  0  0.993073  0  0  0.101146  0.117415  0  0.995126  0
H  H37  1  0.23680384  0.12259326  0.45995159  1  0  0.099497  0  0.929409  0  0  0.118429  0  0.994248  0  0  0.119629  0  0.993158  0  0  0.101171  0.117382  0  0.995208  0
H  H38  1  0.76318941  0.37741281  0.95994466  1  0  0.099513  0  0.929275  0  0  0.118423  0  0.994161  0  0  0.119624  0  0.993069  0  0  0.10114  0.117379  0  0.995119  0
H  H39  1  0.76319541  0.87740225  0.54005761  1  0  0.099462  0  0.929481  0  0  0.118423  0  0.994298  0  0  0.119623  0  0.993212  0  0  0.101178  0.117377  0  0.995265  0
H  H40  1  0.39448760  0.56780791  0.99175830  1  0  0.105039  0  0.915269  0  0  0.129993  0  0.967199  0  0  0.131109  0  0.966467  0  0  0.112742  0.129063  0  0.96785  0
H  H41  1  0.39447941  0.06780848  0.50824761  1  0  0.105026  0  0.915237  0  0  0.129967  0  0.967192  0  0  0.131082  0  0.96646  0  0  0.112747  0.129039  0  0.96784  0
H  H42  1  0.60551521  0.43219371  0.00824324  1  0  0.105002  0  0.915207  0  0  0.12994  0  0.967174  0  0  0.131056  0  0.966441  0  0  0.112744  0.129011  0  0.967821  0
H  H43  1  0.60552371  0.93218775  0.49175881  1  0  0.105057  0  0.915216  0  0  0.129997  0  0.967165  0  0  0.131113  0  0.966434  0  0  0.112767  0.129067  0  0.967812  0
H  H44  1  0.18368555  0.51254321  0.96729432  1  0  0.084732  0  0.980161  0  0  0.101323  0  1.053421  0  0  0.101877  0  1.054028  0  0  0.091564  0.100831  0  1.053063  0
H  H45  1  0.18367847  0.01254882  0.53271404  1  0  0.084706  0  0.980142  0  0  0.101292  0  1.05342  0  0  0.101845  0  1.054028  0  0  0.09152  0.100801  0  1.05306  0
H  H46  1  0.81631490  0.48745228  0.03271001  1  0  0.084695  0  0.98021  0  0  0.101297  0  1.053467  0  0  0.101851  0  1.054074  0  0  0.091538  0.100805  0  1.053108  0
H  H47  1  0.81632495  0.98744817  0.46729654  1  0  0.084732  0  0.980177  0  0  0.101278  0  1.053495  0  0  0.101833  0  1.054102  0  0  0.091524  0.100789  0  1.053132  0
H  H48  1  0.52986871  0.71487536  0.52301865  1  0  0.100718  0  0.964503  0  0  0.107571  0  1.034445  0  0  0.111239  0  1.031284  0  0  0.103696  0.104965  0  1.036653  0
H  H49  1  0.52986854  0.21488177  0.97698460  1  0  0.1007  0  0.964571  0  0  0.107539  0  1.034527  0  0  0.11121  0  1.031356  0  0  0.10364  0.104928  0  1.036735  0
H  H50  1  0.47013649  0.28512315  0.47698429  1  0  0.10075  0  0.964478  0  0  0.107597  0  1.03442  0  0  0.111265  0  1.031258  0  0  0.103685  0.104987  0  1.036627  0
H  H51  1  0.47013009  0.78512143  0.02301416  1  0  0.100765  0  0.964425  0  0  0.10758  0  1.034424  0  0  0.111249  0  1.031258  0  0  0.103678  0.104968  0  1.036635  0
H  H52  1  0.10655063  0.49357571  0.42985409  1  0  0.092772  0  0.97034  0  0  0.102866  0  1.035166  0  0  0.105868  0  1.033414  0  0  0.103006  0.100729  0  1.036375  0
H  H53  1  0.10654586  0.99357640  0.07013837  1  0  0.0927  0  0.97044  0  0  0.102882  0  1.035182  0  0  0.10589  0  1.033417  0  0  0.102994  0.100734  0  1.036402  0
H  H54  1  0.89345335  0.50642897  0.57013841  1  0  0.092732  0  0.970349  0  0  0.10281  0  1.035222  0  0  0.105821  0  1.033449  0  0  0.102987  0.100672  0  1.036422  0
H  H55  1  0.89344922  0.00642069  0.92984996  1  0  0.092805  0  0.970333  0  0  0.102906  0  1.035161  0  0  0.105927  0  1.033359  0  0  0.103001  0.100769  0  1.036371  0
H  H56  1  0.14328938  0.37683859  0.56062665  1  0  0.096312  0  0.956365  0  0  0.103954  0  1.021275  0  0  0.107344  0  1.019899  0  0  0.098615  0.101514  0  1.022471  0
H  H57  1  0.14329017  0.87684881  0.93936555  1  0  0.096456  0  0.956325  0  0  0.104003  0  1.021323  0  0  0.107396  0  1.019948  0  0  0.098616  0.101559  0  1.022526  0
H  H58  1  0.85670600  0.62315927  0.43936585  1  0  0.096362  0  0.956411  0  0  0.103956  0  1.021364  0  0  0.107342  0  1.019986  0  0  0.098614  0.101515  0  1.02256  0
H  H59  1  0.85671113  0.12315513  0.06061790  1  0  0.096487  0  0.956322  0  0  0.104077  0  1.021266  0  0  0.10746  0  1.019887  0  0  0.098676  0.101634  0  1.022459  0
H  H60  1  0.37856013  0.43294760  0.67115686  1  0  0.08945  0  0.969269  0  0  0.094229  0  1.042135  0  0  0.098274  0  1.038466  0  0  0.098603  0.091315  0  1.044721  0
H  H61  1  0.37856522  0.93296081  0.82884204  1  0  0.089275  0  0.969504  0  0  0.094095  0  1.042332  0  0  0.09814  0  1.03866  0  0  0.098536  0.091186  0  1.044919  0
H  H62  1  0.62143256  0.56704952  0.32883912  1  0  0.089492  0  0.96931  0  0  0.094194  0  1.042258  0  0  0.098239  0  1.038589  0  0  0.098619  0.091317  0  1.044812  0
H  H63  1  0.62144171  0.06705152  0.17114559  1  0  0.089295  0  0.969247  0  0  0.094097  0  1.042116  0  0  0.098141  0  1.038449  0  0  0.098555  0.091173  0  1.044707  0
C  C64  1  0.16195324  0.66976221  0.85058623  1  0  0.428889  0  3.830256  0  0  0.375139  0  4.141502  0  0  0.40312  0  4.147502  0  0  0.247715  0.356407  0  4.136771  0
C  C65  1  0.16195235  0.16976386  0.64941994  1  0  0.428944  0  3.830208  0  0  0.375259  0  4.141443  0  0  0.403245  0  4.147438  0  0  0.247782  0.356527  0  4.136715  0
C  C66  1  0.83804304  0.33023487  0.14941601  1  0  0.428815  0  3.830269  0  0  0.375077  0  4.141544  0  0  0.403065  0  4.147543  0  0  0.247682  0.356337  0  4.136826  0
C  C67  1  0.83805196  0.83023543  0.35058578  1  0  0.429022  0  3.830138  0  0  0.375286  0  4.141344  0  0  0.403265  0  4.147342  0  0  0.247776  0.356549  0  4.136626  0
C  C68  1  0.09194585  0.69714873  0.63082752  1  0  -0.217824  0  3.636052  0  0  -0.318195  0  3.89216  0  0  -0.316882  0  3.902578  0  0  -0.147761  -0.318807  0  3.88496  0
C  C69  1  0.09194915  0.19714965  0.86917793  1  0  -0.217918  0  3.635734  0  0  -0.318368  0  3.891914  0  0  -0.317052  0  3.902327  0  0  -0.147851  -0.318991  0  3.884743  0
C  C70  1  0.90805696  0.30284981  0.36917333  1  0  -0.217987  0  3.635962  0  0  -0.318414  0  3.892016  0  0  -0.317109  0  3.902432  0  0  -0.147817  -0.319038  0  3.884843  0
C  C71  1  0.90804651  0.80285205  0.13082500  1  0  -0.21786  0  3.635998  0  0  -0.31829  0  3.892204  0  0  -0.316969  0  3.902612  0  0  -0.1478  -0.318914  0  3.885026  0
C  C72  1  0.10737918  0.86725787  0.69418609  1  0  -0.203227  0  3.620296  0  0  -0.304069  0  3.877958  0  0  -0.301742  0  3.885923  0  0  -0.143592  -0.305385  0  3.872401  0
C  C73  1  0.10737799  0.36725893  0.80581440  1  0  -0.203101  0  3.620289  0  0  -0.303986  0  3.877874  0  0  -0.301659  0  3.885834  0  0  -0.143566  -0.305302  0  3.872322  0
C  C74  1  0.89261977  0.13273995  0.30581615  1  0  -0.203134  0  3.620341  0  0  -0.30406  0  3.877875  0  0  -0.301736  0  3.88584  0  0  -0.143596  -0.305373  0  3.872321  0
C  C75  1  0.89262065  0.63274120  0.19418783  1  0  -0.203061  0  3.620302  0  0  -0.303916  0  3.877924  0  0  -0.30159  0  3.885891  0  0  -0.14354  -0.305225  0  3.872368  0
C  C76  1  0.27394532  0.58447224  0.97844175  1  0  -0.113977  0  3.678447  0  0  -0.213082  0  3.934934  0  0  -0.20902  0  3.943189  0  0  -0.135617  -0.215537  0  3.929375  0
C  C77  1  0.27393963  0.08447568  0.52156542  1  0  -0.113816  0  3.678234  0  0  -0.212914  0  3.9347  0  0  -0.208854  0  3.942951  0  0  -0.135562  -0.215369  0  3.929133  0
C  C78  1  0.72605511  0.41552633  0.02156118  1  0  -0.113812  0  3.678304  0  0  -0.212919  0  3.934776  0  0  -0.208854  0  3.943031  0  0  -0.135577  -0.215374  0  3.929206  0
C  C79  1  0.72606468  0.91552054  0.47844378  1  0  -0.113867  0  3.678361  0  0  -0.212969  0  3.934889  0  0  -0.2089  0  3.943119  0  0  -0.135592  -0.215421  0  3.929323  0
C  C80  1  0.60239509  0.60807508  0.67316610  1  0  0.620624  0  3.928684  0  0  0.574136  0  4.21809  0  0  0.607636  0  4.213118  0  0  0.187633  0.55146  0  4.220675  0
C  C81  1  0.60239913  0.10808579  0.82684102  1  0  0.620659  0  3.928673  0  0  0.574099  0  4.21813  0  0  0.607595  0  4.213164  0  0  0.187566  0.551429  0  4.220712  0
C  C82  1  0.39759970  0.39192125  0.32683684  1  0  0.620534  0  3.928739  0  0  0.574025  0  4.218165  0  0  0.607525  0  4.213194  0  0  0.187582  0.551336  0  4.22077  0
C  C83  1  0.39760335  0.89192429  0.17315635  1  0  0.620449  0  3.929054  0  0  0.573805  0  4.21858  0  0  0.607303  0  4.213615  0  0  0.187409  0.551133  0  4.221158  0
C  C84  1  0.46656264  0.57695893  0.60401680  1  0  -0.068384  0  3.768993  0  0  -0.041003  0  3.996786  0  0  -0.051162  0  4.021802  0  0  -0.020084  -0.034579  0  3.980014  0
C  C85  1  0.46656974  0.07696558  0.89598656  1  0  -0.068353  0  3.769337  0  0  -0.040859  0  3.996929  0  0  -0.051017  0  4.021944  0  0  -0.019982  -0.034437  0  3.980155  0
C  C86  1  0.53343780  0.42303964  0.39598196  1  0  -0.068424  0  3.769089  0  0  -0.041053  0  3.99688  0  0  -0.051213  0  4.021895  0  0  -0.020111  -0.034635  0  3.980127  0
C  C87  1  0.53343544  0.92303908  0.10400941  1  0  -0.068453  0  3.769393  0  0  -0.040852  0  3.996913  0  0  -0.051012  0  4.021932  0  0  -0.019977  -0.034435  0  3.980136  0
C  C88  1  0.44564050  0.64075460  0.53026589  1  0  -0.074118  0  3.715203  0  0  -0.10918  0  3.961516  0  0  -0.105574  0  3.979562  0  0  -0.078781  -0.111224  0  3.949276  0
C  C89  1  0.44563996  0.14076034  0.96973374  1  0  -0.074156  0  3.715348  0  0  -0.109212  0  3.961601  0  0  -0.1056  0  3.979641  0  0  -0.078774  -0.111252  0  3.949353  0
C  C90  1  0.55436172  0.35924549  0.46973426  1  0  -0.074125  0  3.715264  0  0  -0.10921  0  3.961515  0  0  -0.105602  0  3.979557  0  0  -0.078775  -0.111245  0  3.949262  0
C  C91  1  0.55435658  0.85924365  0.03026154  1  0  -0.074043  0  3.715282  0  0  -0.109125  0  3.961464  0  0  -0.105517  0  3.979508  0  0  -0.078724  -0.111162  0  3.949217  0
C  C92  1  0.31564481  0.61032506  0.46778824  1  0  -0.081235  0  3.782676  0  0  -0.053055  0  4.010585  0  0  -0.063425  0  4.03424  0  0  -0.021132  -0.046491  0  3.99475  0
C  C93  1  0.31563924  0.11032528  0.03220896  1  0  -0.081118  0  3.782564  0  0  -0.053018  0  4.010568  0  0  -0.06339  0  4.034225  0  0  -0.021064  -0.046449  0  3.994712  0
C  C94  1  0.68436304  0.38968033  0.53220773  1  0  -0.081321  0  3.782747  0  0  -0.053027  0  4.010471  0  0  -0.063397  0  4.034127  0  0  -0.021105  -0.046454  0  3.994615  0
C  C95  1  0.68435495  0.88967259  0.96778493  1  0  -0.081275  0  3.782897  0  0  -0.053107  0  4.010769  0  0  -0.06348  0  4.034429  0  0  -0.021181  -0.046533  0  3.994922  0
C  C96  1  0.20707518  0.51512431  0.47902464  1  0  -0.045861  0  3.707107  0  0  -0.073175  0  3.952858  0  0  -0.070824  0  3.972316  0  0  -0.076579  -0.074375  0  3.939589  0
C  C97  1  0.20706979  0.01512545  0.02096702  1  0  -0.045728  0  3.707036  0  0  -0.073104  0  3.952784  0  0  -0.070751  0  3.97225  0  0  -0.076529  -0.074299  0  3.939493  0
C  C98  1  0.79292910  0.48488113  0.52096856  1  0  -0.04569  0  3.707137  0  0  -0.073036  0  3.952833  0  0  -0.070682  0  3.972292  0  0  -0.076548  -0.074238  0  3.939552  0
C  C99  1  0.79292498  0.98487396  0.97901991  1  0  -0.045875  0  3.707233  0  0  -0.073221  0  3.952974  0  0  -0.070863  0  3.972436  0  0  -0.076609  -0.074428  0  3.939706  0
C  C100  1  0.22824638  0.45063296  0.55178350  1  0  -0.078316  0  3.753607  0  0  -0.091171  0  4.012846  0  0  -0.095889  0  4.033489  0  0  -0.091828  -0.088254  0  3.998927  0
C  C101  1  0.22824669  0.95063846  0.94820884  1  0  -0.078511  0  3.753675  0  0  -0.091317  0  4.012972  0  0  -0.096044  0  4.033623  0  0  -0.09188  -0.088401  0  3.999057  0
C  C102  1  0.77175345  0.54936715  0.44820900  1  0  -0.078487  0  3.75376  0  0  -0.091308  0  4.013016  0  0  -0.096021  0  4.033651  0  0  -0.091854  -0.088391  0  3.99911  0
C  C103  1  0.77175403  0.04936395  0.05177600  1  0  -0.078574  0  3.753938  0  0  -0.091402  0  4.013223  0  0  -0.096111  0  4.033855  0  0  -0.091853  -0.088483  0  3.999299  0
C  C104  1  0.35773968  0.48165980  0.61390774  1  0  -0.053907  0  3.724834  0  0  -0.080803  0  3.975534  0  0  -0.078674  0  3.995258  0  0  -0.079226  -0.081764  0  3.961983  0
C  C105  1  0.35773879  0.98166769  0.88608902  1  0  -0.053787  0  3.725099  0  0  -0.080715  0  3.975675  0  0  -0.078584  0  3.9954  0  0  -0.079197  -0.081689  0  3.962142  0
C  C106  1  0.64225896  0.51834032  0.38608824  1  0  -0.053833  0  3.724756  0  0  -0.080655  0  3.975432  0  0  -0.078524  0  3.995153  0  0  -0.079192  -0.081645  0  3.961875  0
C  C107  1  0.64226250  0.01833932  0.11389791  1  0  -0.053605  0  3.724805  0  0  -0.080564  0  3.975399  0  0  -0.078434  0  3.995119  0  0  -0.079175  -0.081509  0  3.961838  0
C  C108  1  0.28528600  0.68075813  0.39305287  1  0  0.634613  0  3.905466  0  0  0.587091  0  4.189846  0  0  0.621685  0  4.183039  0  0  0.199944  0.56367  0  4.193702  0
C  C109  1  0.28527549  0.18075508  0.10694533  1  0  0.634561  0  3.905529  0  0  0.587088  0  4.18987  0  0  0.621682  0  4.183063  0  0  0.200019  0.563668  0  4.193718  0
C  C110  1  0.71472066  0.31924728  0.60694658  1  0  0.634611  0  3.905319  0  0  0.587103  0  4.189621  0  0  0.621695  0  4.182814  0  0  0.200007  0.563681  0  4.193474  0
C  C111  1  0.71471423  0.81924054  0.89305343  1  0  0.634517  0  3.905492  0  0  0.587072  0  4.189747  0  0  0.621663  0  4.182945  0  0  0.199983  0.56365  0  4.193603  0
S  S112  1  0.96543615  0.60973139  0.87680977  1  0  -0.380848  0  2.070167  0  0  -0.347024  0  2.413276  0  0  -0.365029  0  2.400319  0  0  -0.138459  -0.334831  0  2.421974  0
S  S113  1  0.96543649  0.10973721  0.62319358  1  0  -0.380865  0  2.070149  0  0  -0.347009  0  2.413181  0  0  -0.365015  0  2.400224  0  0  -0.138437  -0.334811  0  2.421886  0
S  S114  1  0.03455773  0.39026572  0.12319316  1  0  -0.380795  0  2.070146  0  0  -0.346956  0  2.41323  0  0  -0.364958  0  2.400267  0  0  -0.138411  -0.334753  0  2.421927  0
S  S115  1  0.03456960  0.89026359  0.37680935  1  0  -0.380897  0  2.070157  0  0  -0.347047  0  2.413222  0  0  -0.365054  0  2.400265  0  0  -0.13846  -0.334852  0  2.421924  0
N  N116  1  0.08195612  0.75723043  0.71585322  1  0  -0.006486  0  3.306891  0  0  0.085623  0  3.546296  0  0  0.073463  0  3.5671  0  0  -0.23681  0.094045  0  3.531796  0
N  N117  1  0.08195354  0.25723181  0.78414861  1  0  -0.006554  0  3.306722  0  0  0.085712  0  3.546027  0  0  0.073563  0  3.566819  0  0  -0.236808  0.094127  0  3.531533  0
N  N118  1  0.91804224  0.24276585  0.28414833  1  0  -0.00644  0  3.306827  0  0  0.085922  0  3.545988  0  0  0.073776  0  3.566782  0  0  -0.236808  0.094338  0  3.531487  0
N  N119  1  0.91804302  0.74276911  0.21585294  1  0  -0.006624  0  3.306876  0  0  0.085496  0  3.5463  0  0  0.073332  0  3.567113  0  0  -0.236821  0.09392  0  3.531799  0
N  N120  1  0.19984558  0.74229710  0.78178870  1  0  -0.344733  0  3.274123  0  0  -0.298355  0  3.524909  0  0  -0.314582  0  3.534836  0  0  -0.32427  -0.287356  0  3.517903  0
N  N121  1  0.19984595  0.24229625  0.71821739  1  0  -0.344663  0  3.273941  0  0  -0.298478  0  3.524852  0  0  -0.314733  0  3.534803  0  0  -0.324326  -0.287474  0  3.517844  0
N  N122  1  0.80015099  0.25770075  0.21821354  1  0  -0.344786  0  3.273907  0  0  -0.298555  0  3.524732  0  0  -0.31481  0  3.534681  0  0  -0.324298  -0.287543  0  3.517719  0
N  N123  1  0.80015835  0.75770304  0.28178763  1  0  -0.344716  0  3.27412  0  0  -0.298324  0  3.524854  0  0  -0.314562  0  3.534797  0  0  -0.324252  -0.287323  0  3.517849  0
N  N124  1  0.28912860  0.64966485  0.89676706  1  0  -0.350693  0  3.347209  0  0  -0.279775  0  3.598578  0  0  -0.300235  0  3.608675  0  0  -0.412436  -0.266085  0  3.591539  0
N  N125  1  0.28912816  0.14966635  0.60324211  1  0  -0.350864  0  3.347127  0  0  -0.28  0  3.598566  0  0  -0.300447  0  3.608634  0  0  -0.41258  -0.26631  0  3.591529  0
N  N126  1  0.71086886  0.35033221  0.10323518  1  0  -0.350735  0  3.347116  0  0  -0.279821  0  3.598492  0  0  -0.300288  0  3.608595  0  0  -0.412491  -0.266133  0  3.591457  0
N  N127  1  0.71087912  0.85033137  0.39676709  1  0  -0.350829  0  3.347156  0  0  -0.279952  0  3.598607  0  0  -0.300406  0  3.60869  0  0  -0.412575  -0.266267  0  3.591574  0
O  O128  1  0.70235384  0.69683131  0.66142396  1  0  -0.637934  0  1.976124  0  0  -0.569092  0  2.228225  0  0  -0.598022  0  2.215428  0  0  -0.344385  -0.548872  0  2.236264  0
O  O129  1  0.70235532  0.19684112  0.83857761  1  0  -0.637876  0  1.976034  0  0  -0.569049  0  2.228198  0  0  -0.597978  0  2.215408  0  0  -0.34438  -0.548823  0  2.236235  0
O  O130  1  0.29764512  0.30316343  0.33857688  1  0  -0.637901  0  1.976118  0  0  -0.569053  0  2.228224  0  0  -0.597982  0  2.21543  0  0  -0.344416  -0.548821  0  2.236259  0
O  O131  1  0.29764448  0.80316822  0.16141906  1  0  -0.637825  0  1.97614  0  0  -0.56894  0  2.228281  0  0  -0.597868  0  2.215487  0  0  -0.344301  -0.548718  0  2.236316  0
O  O132  1  0.61587308  0.55052504  0.74028427  1  0  -0.605196  0  1.883857  0  0  -0.555511  0  2.093913  0  0  -0.578919  0  2.084745  0  0  -0.332646  -0.539199  0  2.099638  0
O  O133  1  0.61589702  0.05053718  0.75973063  1  0  -0.605223  0  1.883851  0  0  -0.555516  0  2.093944  0  0  -0.578929  0  2.084789  0  0  -0.332596  -0.539201  0  2.099671  0
O  O134  1  0.38411338  0.44946832  0.25971936  1  0  -0.605133  0  1.883858  0  0  -0.555433  0  2.093913  0  0  -0.578842  0  2.08475  0  0  -0.332562  -0.53911  0  2.099643  0
O  O135  1  0.38412243  0.94947038  0.24027160  1  0  -0.605138  0  1.883959  0  0  -0.555417  0  2.094071  0  0  -0.578825  0  2.084903  0  0  -0.332558  -0.539105  0  2.099787  0
O  O136  1  0.39003649  0.76319668  0.37473099  1  0  -0.633446  0  1.993493  0  0  -0.575741  0  2.222008  0  0  -0.601627  0  2.211243  0  0  -0.322252  -0.557615  0  2.228781  0
O  O137  1  0.39002825  0.26319259  0.12527222  1  0  -0.633388  0  1.993375  0  0  -0.575729  0  2.221877  0  0  -0.60161  0  2.21111  0  0  -0.322365  -0.557615  0  2.228655  0
O  O138  1  0.60997315  0.23680715  0.62526917  1  0  -0.633398  0  1.9934  0  0  -0.575738  0  2.221909  0  0  -0.601619  0  2.211146  0  0  -0.322329  -0.557616  0  2.228685  0
O  O139  1  0.60996924  0.73679832  0.87473419  1  0  -0.633451  0  1.993482  0  0  -0.575783  0  2.221968  0  0  -0.601668  0  2.2112  0  0  -0.322329  -0.557661  0  2.228743  0
O  O140  1  0.14719978  0.65931407  0.35043212  1  0  -0.614378  0  2.021459  0  0  -0.547151  0  2.270503  0  0  -0.576215  0  2.260781  0  0  -0.31864  -0.526925  0  2.276462  0
O  O141  1  0.14718849  0.15931046  0.14956289  1  0  -0.614442  0  2.021583  0  0  -0.547208  0  2.270603  0  0  -0.576269  0  2.260881  0  0  -0.318662  -0.526979  0  2.276556  0
O  O142  1  0.85280807  0.34069132  0.64956525  1  0  -0.61443  0  2.021431  0  0  -0.547214  0  2.270469  0  0  -0.576278  0  2.260751  0  0  -0.318668  -0.526981  0  2.276427  0
O  O143  1  0.85279619  0.84068138  0.85043170  1  0  -0.614284  0  2.021446  0  0  -0.547084  0  2.270456  0  0  -0.57615  0  2.260737  0  0  -0.318626  -0.526858  0  2.276418  0
