# generated using pymatgen
data_NaH6AuC8(SN2)2
_symmetry_space_group_name_H-M   'P 1'
_cell_length_a   7.99453474
_cell_length_b   7.99447167
_cell_length_c   10.85873983
_cell_angle_alpha   102.44468097
_cell_angle_beta   102.44523256
_cell_angle_gamma   114.45811605
_symmetry_Int_Tables_number   1
_chemical_formula_structural   NaH6AuC8(SN2)2
_chemical_formula_sum   'Na2 H12 Au2 C16 S4 N8'
_cell_volume   579.50149773
_cell_formula_units_Z   2
loop_
 _symmetry_equiv_pos_site_id
 _symmetry_equiv_pos_as_xyz
  1  'x, y, z'
loop_
 _atom_site_type_symbol
 _atom_site_label
 _atom_site_symmetry_multiplicity
 _atom_site_fract_x
 _atom_site_fract_y
 _atom_site_fract_z
 _atom_site_occupancy
 _atom_site_hle17_bader_spin_density
 _atom_site_hle17_ddec_charge
 _atom_site_hle17_ddec_spin_density
 _atom_site_hle17_ddec_sum_bond_order
 _atom_site_hle17_magmom
 _atom_site_hse06_10hf_bader_spin_density
 _atom_site_hse06_10hf_ddec_charge
 _atom_site_hse06_10hf_ddec_spin_density
 _atom_site_hse06_10hf_ddec_sum_bond_order
 _atom_site_hse06_10hf_magmom
 _atom_site_hse06_bader_spin_density
 _atom_site_hse06_ddec_charge
 _atom_site_hse06_ddec_spin_density
 _atom_site_hse06_ddec_sum_bond_order
 _atom_site_hse06_magmom
 _atom_site_pbe_bader_spin_density
 _atom_site_pbe_cm5_charge
 _atom_site_pbe_ddec_charge
 _atom_site_pbe_ddec_spin_density
 _atom_site_pbe_ddec_sum_bond_order
 _atom_site_pbe_magmom
Na  Na0  1  0.32716401  0.67282264  0.99999014  1  0  0.8372  0  0.442967  0  0  0.751486  0  0.632569  0  0  0.766885  0  0.610317  0  0  0.608162  0.740387  0  0.648008  0
Na  Na1  1  0.57723663  0.42279359  0.50000404  1  0  0.836973  0  0.442434  0  0  0.751719  0  0.630922  0  0  0.767122  0  0.608737  0  0  0.607801  0.740827  0  0.646497  0
H  H2  1  0.74455438  0.62256990  0.03766131  1  0  0.068142  0  0.952393  0  0  0.072874  0  1.026379  0  0  0.075827  0  1.022739  0  0  0.1053  0.070596  0  1.029075  0
H  H3  1  0.37737640  0.25540181  0.96232147  1  0  0.068091  0  0.952252  0  0  0.072862  0  1.026229  0  0  0.075806  0  1.022598  0  0  0.105377  0.070588  0  1.028931  0
H  H4  1  0.66463486  0.04258867  0.53807761  1  0  0.069627  0  0.95118  0  0  0.073933  0  1.025728  0  0  0.076996  0  1.021939  0  0  0.105419  0.071718  0  1.028367  0
H  H5  1  0.95744046  0.33541906  0.46193435  1  0  0.06961  0  0.950974  0  0  0.073883  0  1.025551  0  0  0.076944  0  1.021765  0  0  0.105396  0.071663  0  1.028204  0
H  H6  1  0.02231032  0.66620436  0.22776673  1  0  0.114155  0  0.994617  0  0  0.1212  0  1.063606  0  0  0.125421  0  1.061932  0  0  0.094408  0.118076  0  1.065193  0
H  H7  1  0.33376472  0.97767776  0.77223894  1  0  0.114181  0  0.994617  0  0  0.121258  0  1.063537  0  0  0.12548  0  1.06186  0  0  0.094401  0.118121  0  1.065137  0
H  H8  1  0.81131938  0.95496016  0.72804610  1  0  0.114309  0  0.993439  0  0  0.12105  0  1.062694  0  0  0.125272  0  1.061022  0  0  0.094744  0.117915  0  1.064298  0
H  H9  1  0.04503761  0.18869738  0.27196953  1  0  0.114322  0  0.993461  0  0  0.121065  0  1.062686  0  0  0.125284  0  1.06101  0  0  0.094735  0.117932  0  1.064288  0
H  H10  1  0.97548133  0.69200900  0.45395187  1  0  0.061271  0  0.941516  0  0  0.069959  0  1.011623  0  0  0.072853  0  1.007558  0  0  0.10654  0.067367  0  1.015309  0
H  H11  1  0.30800707  0.02450956  0.54603928  1  0  0.061262  0  0.941554  0  0  0.069937  0  1.011688  0  0  0.07283  0  1.007624  0  0  0.106565  0.067332  0  1.015386  0
H  H12  1  0.01220829  0.22800193  0.95416673  1  0  0.062391  0  0.939945  0  0  0.07075  0  1.010723  0  0  0.073616  0  1.006672  0  0  0.107839  0.06868  0  1.013397  0
H  H13  1  0.77201333  0.98776704  0.04586110  1  0  0.062381  0  0.939955  0  0  0.070837  0  1.010646  0  0  0.073713  0  1.006581  0  0  0.107827  0.068757  0  1.013312  0
Au  Au14  1  0.34378539  0.65619585  0.50000395  1  0  0.08461  0  2.286837  0  0  0.027906  0  2.822264  0  0  0.046319  0  2.789914  0  0  0.244385  0.015471  0  2.843894  0
Au  Au15  1  0.09410817  0.90587552  0.99999884  1  0  0.0836  0  2.285009  0  0  0.026763  0  2.820941  0  0  0.045508  0  2.788397  0  0  0.244069  0.014334  0  2.842721  0
C  C16  1  0.56723600  0.66156557  0.28167026  1  0  0.402735  0  3.819996  0  0  0.386847  0  4.093797  0  0  0.406475  0  4.106208  0  0  0.22273  0.373529  0  4.085318  0
C  C17  1  0.33850435  0.43278728  0.71833138  1  0  0.403  0  3.820007  0  0  0.387006  0  4.093934  0  0  0.406636  0  4.106339  0  0  0.222574  0.373688  0  4.085459  0
C  C18  1  0.86994036  0.46388474  0.78189468  1  0  0.404572  0  3.817964  0  0  0.388603  0  4.09207  0  0  0.408265  0  4.104426  0  0  0.223332  0.375213  0  4.083631  0
C  C19  1  0.53611682  0.13008399  0.21810573  1  0  0.40456  0  3.817876  0  0  0.388556  0  4.092063  0  0  0.408197  0  4.104473  0  0  0.223397  0.375165  0  4.083628  0
C  C20  1  0.73907368  0.64149486  0.13926488  1  0  0.194966  0  3.714554  0  0  0.166942  0  3.968053  0  0  0.177869  0  3.982123  0  0  0.060247  0.160288  0  3.95805  0
C  C21  1  0.35850295  0.26091281  0.86072166  1  0  0.195168  0  3.714237  0  0  0.167053  0  3.967821  0  0  0.177988  0  3.98189  0  0  0.060115  0.160391  0  3.957827  0
C  C22  1  0.74750660  0.14971539  0.63961196  1  0  0.190571  0  3.718044  0  0  0.162863  0  3.971313  0  0  0.173663  0  3.98546  0  0  0.05859  0.156077  0  3.961435  0
C  C23  1  0.85029265  0.25251114  0.36039563  1  0  0.190778  0  3.717797  0  0  0.163131  0  3.971021  0  0  0.173937  0  3.98518  0  0  0.058776  0.156341  0  3.961142  0
C  C24  1  0.89185733  0.66405340  0.24376798  1  0  -0.199635  0  3.712538  0  0  -0.209321  0  3.957286  0  0  -0.221319  0  3.979371  0  0  -0.100704  -0.201701  0  3.942605  0
C  C25  1  0.33586052  0.10809668  0.75620562  1  0  -0.199768  0  3.71239  0  0  -0.20946  0  3.957186  0  0  -0.221455  0  3.979261  0  0  -0.100581  -0.201829  0  3.942509  0
C  C26  1  0.82952929  0.10140533  0.74406698  1  0  -0.197334  0  3.713027  0  0  -0.206497  0  3.957143  0  0  -0.218497  0  3.979294  0  0  -0.099557  -0.198882  0  3.942498  0
C  C27  1  0.89859046  0.17047922  0.25594668  1  0  -0.197526  0  3.71316  0  0  -0.206708  0  3.957335  0  0  -0.218705  0  3.979494  0  0  -0.099658  -0.199092  0  3.942687  0
C  C28  1  0.86507076  0.67928338  0.36733633  1  0  0.191714  0  3.730082  0  0  0.164494  0  3.978845  0  0  0.175016  0  3.994462  0  0  0.055481  0.157871  0  3.968247  0
C  C29  1  0.32076809  0.13494042  0.63265843  1  0  0.191875  0  3.729978  0  0  0.164641  0  3.97875  0  0  0.175167  0  3.994354  0  0  0.055425  0.158028  0  3.968154  0
C  C30  1  0.93821533  0.25177686  0.86755445  1  0  0.190989  0  3.728449  0  0  0.163686  0  3.977396  0  0  0.17424  0  3.992983  0  0  0.054104  0.157052  0  3.966456  0
C  C31  1  0.74822345  0.06179106  0.13245115  1  0  0.190908  0  3.728279  0  0  0.163568  0  3.977186  0  0  0.174114  0  3.992788  0  0  0.054143  0.156956  0  3.96622  0
S  S32  1  0.35558884  0.66737583  0.29320971  1  0  -0.36259  0  2.462085  0  0  -0.338284  0  2.883342  0  0  -0.359646  0  2.876537  0  0  -0.188125  -0.322933  0  2.887374  0
S  S33  1  0.33268425  0.64443360  0.70681319  1  0  -0.362646  0  2.462193  0  0  -0.338334  0  2.883548  0  0  -0.359693  0  2.876742  0  0  -0.188041  -0.322981  0  2.887571  0
S  S34  1  0.87563895  0.68702528  0.79347955  1  0  -0.362894  0  2.461244  0  0  -0.338641  0  2.882175  0  0  -0.360128  0  2.875351  0  0  -0.188582  -0.323273  0  2.886761  0
S  S35  1  0.31297170  0.12436097  0.20651135  1  0  -0.362955  0  2.46124  0  0  -0.338714  0  2.882232  0  0  -0.3602  0  2.875407  0  0  -0.188579  -0.323348  0  2.886826  0
N  N36  1  0.57966210  0.64357096  0.15748566  1  0  -0.4565  0  3.114185  0  0  -0.402045  0  3.375583  0  0  -0.419839  0  3.388521  0  0  -0.39311  -0.39048  0  3.366828  0
N  N37  1  0.35639156  0.42030637  0.84250125  1  0  -0.456698  0  3.11414  0  0  -0.402167  0  3.375587  0  0  -0.419966  0  3.388524  0  0  -0.393089  -0.390593  0  3.366816  0
N  N38  1  0.76358422  0.32729048  0.65774909  1  0  -0.456716  0  3.112342  0  0  -0.402428  0  3.37382  0  0  -0.420228  0  3.386825  0  0  -0.39286  -0.390613  0  3.364957  0
N  N39  1  0.67269444  0.23638657  0.34226247  1  0  -0.456812  0  3.112047  0  0  -0.402618  0  3.37372  0  0  -0.420344  0  3.386565  0  0  -0.393002  -0.390804  0  3.364862  0
N  N40  1  0.70280321  0.67361543  0.38757365  1  0  -0.475255  0  3.080648  0  0  -0.422347  0  3.341559  0  0  -0.439243  0  3.3523  0  0  -0.389284  -0.410751  0  3.333977  0
N  N41  1  0.32634047  0.29718166  0.61241347  1  0  -0.475481  0  3.08053  0  0  -0.422533  0  3.341474  0  0  -0.439424  0  3.352207  0  0  -0.389262  -0.41094  0  3.333891  0
N  N42  1  0.96395056  0.43422270  0.88773972  1  0  -0.4757  0  3.080427  0  0  -0.422515  0  3.341329  0  0  -0.439507  0  3.35213  0  0  -0.388756  -0.411201  0  3.333664  0
N  N43  1  0.56579808  0.03611776  0.11225356  1  0  -0.47545  0  3.080237  0  0  -0.42226  0  3.34111  0  0  -0.439249  0  3.351936  0  0  -0.388692  -0.410945  0  3.333434  0
