# generated using pymatgen
data_ZnH2C20N2(Cl2O3)2
_symmetry_space_group_name_H-M   'P 1'
_cell_length_a   13.17574399
_cell_length_b   14.39534799
_cell_length_c   23.71645935
_cell_angle_alpha   90.00111717
_cell_angle_beta   89.99988994
_cell_angle_gamma   89.47510694
_symmetry_Int_Tables_number   1
_chemical_formula_structural   ZnH2C20N2(Cl2O3)2
_chemical_formula_sum   'Zn2 H4 C40 N4 Cl8 O12'
_cell_volume   4498.09832211
_cell_formula_units_Z   2
loop_
 _symmetry_equiv_pos_site_id
 _symmetry_equiv_pos_as_xyz
  1  'x, y, z'
loop_
 _atom_site_type_symbol
 _atom_site_label
 _atom_site_symmetry_multiplicity
 _atom_site_fract_x
 _atom_site_fract_y
 _atom_site_fract_z
 _atom_site_occupancy
 _atom_site_pbe_bader_charge
 _atom_site_pbe_bader_spin_density
 _atom_site_pbe_cm5_charge
 _atom_site_pbe_ddec_charge
 _atom_site_pbe_ddec_spin_density
 _atom_site_pbe_ddec_sum_bond_order
 _atom_site_pbe_magmom
Zn  Zn0  1  0.60613001  0.49176068  0.49999850  1  1.320907  0  0.690471  0.890946  0  2.404957  0
Zn  Zn1  1  0.39388306  0.50824187  0.49999755  1  1.318569  0  0.690517  0.891042  0  2.404855  0
H  H2  1  0.31438991  0.66221859  0.94663478  1  0.104346  0  0.121675  0.12835  0  0.971422  0
H  H3  1  0.68560737  0.33775832  0.05336465  1  0.104161  0  0.121722  0.128452  0  0.971303  0
H  H4  1  0.68560568  0.33775740  0.94663205  1  0.104193  0  0.121729  0.128511  0  0.971189  0
H  H5  1  0.31438705  0.66221745  0.05336864  1  0.104373  0  0.121716  0.128384  0  0.971492  0
C  C6  1  0.51630784  0.67948111  0.50000097  1  1.739651  0  0.219422  0.651652  0  4.265047  0
C  C7  1  0.48368547  0.32052637  0.49999213  1  1.739324  0  0.219218  0.651071  0  4.26566  0
C  C8  1  0.50001226  0.49999915  0.39066151  1  1.658002  0  0.213372  0.613192  0  4.19695  0
C  C9  1  0.50001984  0.49999360  0.60933792  1  1.658034  0  0.213295  0.612914  0  4.197434  0
C  C10  1  0.57136502  0.44099023  0.87833507  1  1.333277  0  0.242122  0.441774  0  4.101609  0
C  C11  1  0.42862849  0.55898252  0.12166099  1  1.333108  0  0.242032  0.441786  0  4.101171  0
C  C12  1  0.42863363  0.55898632  0.87834013  1  1.333137  0  0.242112  0.441875  0  4.101145  0
C  C13  1  0.57136286  0.44099476  0.12166099  1  1.333172  0  0.242034  0.441656  0  4.101245  0
C  C14  1  0.43152199  0.55917722  0.94074826  1  -0.027557  0  -0.001181  -0.053669  0  3.973775  0
C  C15  1  0.56847831  0.44080038  0.05925201  1  -0.028235  0  -0.001042  -0.053413  0  3.973496  0
C  C16  1  0.56847965  0.44080203  0.94074700  1  -0.027578  0  -0.001091  -0.053573  0  3.973377  0
C  C17  1  0.43152065  0.55917626  0.05925328  1  -0.027363  0  -0.001219  -0.053701  0  3.973838  0
C  C18  1  0.49999857  0.49998489  0.96995203  1  -0.111367  0  0.007618  0.034645  0  3.990266  0
C  C19  1  0.49999875  0.49998438  0.03004866  1  0.052942  0  0.007651  0.034662  0  3.990238  0
C  C20  1  0.36576652  0.61723626  0.97039981  1  -0.055187  0  -0.05774  -0.063501  0  3.92086  0
C  C21  1  0.63422849  0.38273788  0.02960046  1  -0.05517  0  -0.057886  -0.063739  0  3.9207  0
C  C22  1  0.63423136  0.38273631  0.97039772  1  0.115775  0  -0.057949  -0.063805  0  3.920498  0
C  C23  1  0.36576518  0.61723643  0.02960255  1  0.115544  0  -0.057836  -0.063639  0  3.921042  0
C  C24  1  0.45328081  0.42744886  0.23812572  1  0.13464  0  0.016015  0.032785  0  4.02284  0
C  C25  1  0.54671024  0.57255725  0.76187498  1  0.134768  0  0.016128  0.032931  0  4.022879  0
C  C26  1  0.54671948  0.57255019  0.23812479  1  0.134664  0  0.016073  0.032842  0  4.022774  0
C  C27  1  0.45328833  0.42744335  0.76187211  1  0.134994  0  0.016117  0.032784  0  4.022885  0
C  C28  1  0.45460011  0.42699678  0.29734998  1  0.149817  0  0.015413  0.080693  0  4.017423  0
C  C29  1  0.54539856  0.57300097  0.70264987  1  0.149597  0  0.015299  0.080372  0  4.017505  0
C  C30  1  0.54540625  0.57299790  0.29734907  1  0.149876  0  0.015366  0.080628  0  4.01739  0
C  C31  1  0.45460993  0.42699144  0.70264615  1  0.149378  0  0.015393  0.080705  0  4.017383  0
C  C32  1  0.50000697  0.49999676  0.32692266  1  0.030688  0  -0.012605  -0.101265  0  3.916322  0
C  C33  1  0.50000996  0.49999397  0.67307424  1  0.030778  0  -0.012679  -0.101203  0  3.91635  0
C  C34  1  0.50000093  0.49999488  0.20884011  1  0.494129  0  0.084146  0.094905  0  4.022689  0
C  C35  1  0.50000233  0.49999659  0.79115848  1  0.494753  0  0.084201  0.095057  0  4.02265  0
C  C36  1  0.52118823  0.77947341  0.50000535  1  0.102258  0  -0.010428  -0.128524  0  3.838747  0
C  C37  1  0.47879747  0.22053688  0.49999155  1  0.101672  0  -0.010445  -0.128331  0  3.839166  0
C  C38  1  0.51487235  0.86457923  0.50000966  1  -0.225411  0  -0.015091  0.019735  0  4.260799  0
C  C39  1  0.48510729  0.13542901  0.49999989  1  -0.223345  0  -0.014934  0.019815  0  4.260796  0
C  C40  1  0.50551457  0.95737685  0.50001022  1  -0.147537  0  -0.004037  -0.005377  0  4.197506  0
C  C41  1  0.49445521  0.04263073  0.50000692  1  0.069466  0  -0.003876  -0.005306  0  4.197244  0
C  C42  1  0.14858287  0.51010223  0.50000330  1  0.895485  0  0.276919  0.350725  0  4.004848  0
C  C43  1  0.85142485  0.48990868  0.50000920  1  0.895861  0  0.277163  0.351022  0  4.00477  0
C  C44  1  0.04620450  0.50321914  0.50000463  1  0.257499  0  0.081029  0.017551  0  3.999654  0
C  C45  1  0.95381004  0.49679244  0.50000787  1  0.026542  0  0.081188  0.01793  0  3.999417  0
N  N46  1  0.50000007  0.49999271  0.85143139  1  -1.207007  0  -0.241568  -0.233044  0  3.663355  0
N  N47  1  0.49999868  0.49999253  0.14856762  1  -1.206693  0  -0.241476  -0.23283  0  3.66339  0
N  N48  1  0.23679058  0.51612307  0.50000240  1  -0.969225  0  -0.20018  -0.187943  0  2.946024  0
N  N49  1  0.76322320  0.48388990  0.50000462  1  -0.969428  0  -0.200262  -0.188078  0  2.946277  0
Cl  Cl50  1  0.39494184  0.34053511  0.20126310  1  -0.165409  0  0.006418  -0.038861  0  1.535402  0
Cl  Cl51  1  0.60501650  0.65948294  0.79873760  1  -0.165773  0  0.006386  -0.038871  0  1.535523  0
Cl  Cl52  1  0.60503946  0.65946908  0.20126266  1  -0.165435  0  0.006392  -0.03889  0  1.535491  0
Cl  Cl53  1  0.39496152  0.34052379  0.79873171  1  -0.165664  0  0.006376  -0.038887  0  1.53541  0
Cl  Cl54  1  0.40212364  0.33592463  0.33363822  1  -0.158674  0  0.006803  -0.036169  0  1.527011  0
Cl  Cl55  1  0.59785752  0.66408498  0.66636079  1  -0.15837  0  0.006817  -0.036092  0  1.527051  0
Cl  Cl56  1  0.59787280  0.66407750  0.33363827  1  -0.158653  0  0.006793  -0.036156  0  1.526973  0
Cl  Cl57  1  0.40214414  0.33591254  0.66635483  1  -0.158441  0  0.006803  -0.03617  0  1.526951  0
O  O58  1  0.59994872  0.63419496  0.49999935  1  -1.140051  0  -0.31425  -0.548551  0  2.267894  0
O  O59  1  0.40004005  0.36581046  0.49999080  1  -1.140237  0  -0.314287  -0.548427  0  2.268095  0
O  O60  1  0.57307374  0.35331426  0.49999519  1  -1.131323  0  -0.306527  -0.525653  0  2.261679  0
O  O61  1  0.42691881  0.64669462  0.50000171  1  -1.131681  0  -0.306653  -0.525915  0  2.2616  0
O  O62  1  0.58570957  0.48945550  0.41418511  1  -1.14353  0  -0.311119  -0.539848  0  2.316788  0
O  O63  1  0.41432254  0.51053517  0.58581010  1  -1.142996  0  -0.311147  -0.539724  0  2.316868  0
O  O64  1  0.58571791  0.48945197  0.58581402  1  -1.143725  0  -0.311075  -0.539754  0  2.316863  0
O  O65  1  0.41431265  0.51054495  0.41418626  1  -1.143155  0  -0.311224  -0.539914  0  2.316655  0
O  O66  1  0.63101868  0.39387174  0.85050511  1  -1.078077  0  -0.272473  -0.423034  0  2.067664  0
O  O67  1  0.36896878  0.60609617  0.14949348  1  -1.077608  0  -0.272525  -0.423157  0  2.067043  0
O  O68  1  0.36897618  0.60610532  0.85050874  1  -1.077567  0  -0.272608  -0.42323  0  2.067054  0
O  O69  1  0.63102640  0.39387295  0.14949448  1  -1.07791  0  -0.272529  -0.423147  0  2.066967  0
