# generated using pymatgen
data_Cd4H18C16N15ClO4
_symmetry_space_group_name_H-M   'P 1'
_cell_length_a   6.79676687
_cell_length_b   11.67386896
_cell_length_c   17.05600000
_cell_angle_alpha   90.00000000
_cell_angle_beta   90.00000000
_cell_angle_gamma   94.72947484
_symmetry_Int_Tables_number   1
_chemical_formula_structural   Cd4H18C16N15ClO4
_chemical_formula_sum   'Cd8 H36 C32 N30 Cl2 O8'
_cell_volume   1348.69306306
_cell_formula_units_Z   2
loop_
 _symmetry_equiv_pos_site_id
 _symmetry_equiv_pos_as_xyz
  1  'x, y, z'
loop_
 _atom_site_type_symbol
 _atom_site_label
 _atom_site_symmetry_multiplicity
 _atom_site_fract_x
 _atom_site_fract_y
 _atom_site_fract_z
 _atom_site_occupancy
 _atom_site_hle17_bader_spin_density
 _atom_site_hle17_ddec_charge
 _atom_site_hle17_ddec_spin_density
 _atom_site_hle17_ddec_sum_bond_order
 _atom_site_hle17_magmom
 _atom_site_hse06_10hf_bader_spin_density
 _atom_site_hse06_10hf_ddec_charge
 _atom_site_hse06_10hf_ddec_spin_density
 _atom_site_hse06_10hf_ddec_sum_bond_order
 _atom_site_hse06_10hf_magmom
 _atom_site_hse06_bader_spin_density
 _atom_site_hse06_ddec_charge
 _atom_site_hse06_ddec_spin_density
 _atom_site_hse06_ddec_sum_bond_order
 _atom_site_hse06_magmom
 _atom_site_pbe_bader_charge
 _atom_site_pbe_bader_spin_density
 _atom_site_pbe_cm5_charge
 _atom_site_pbe_ddec_charge
 _atom_site_pbe_ddec_spin_density
 _atom_site_pbe_ddec_sum_bond_order
 _atom_site_pbe_magmom
Cd  Cd0  1  0.61617689  0.13995557  0.42201102  1  0  1.025255  0  1.826848  0  0  0.81437  0  2.294432  0  0  0.865135  0  2.251712  0  1.245141  0  0.771137  0.778436  0  2.323603  0
Cd  Cd1  1  0.38382288  0.86004523  0.92201102  1  0  1.025254  0  1.826883  0  0  0.814364  0  2.294475  0  0  0.86513  0  2.251755  0  1.24513  0  0.771141  0.77843  0  2.323646  0
Cd  Cd2  1  0.38382288  0.86004523  0.57798839  1  0  1.02527  0  1.826826  0  0  0.814382  0  2.294416  0  0  0.865146  0  2.251696  0  1.24514  0  0.771141  0.778448  0  2.323587  0
Cd  Cd3  1  0.61617824  0.13995471  0.07798956  1  0  1.025281  0  1.826855  0  0  0.814391  0  2.294456  0  0  0.865156  0  2.251734  0  1.245104  0  0.771152  0.778457  0  2.323626  0
Cd  Cd4  1  0.63435022  0.63647268  0.25000000  1  0  1.045807  0  1.83104  0  0  0.836977  0  2.285562  0  0  0.888902  0  2.242592  0  1.250743  0  0.79087  0.8002  0  2.31476  0
Cd  Cd5  1  0.36564943  0.36352726  0.75000059  1  0  1.045824  0  1.831001  0  0  0.836998  0  2.285512  0  0  0.888924  0  2.242542  0  1.250742  0  0.79088  0.800222  0  2.314707  0
Cd  Cd6  1  0.41578561  0.33564634  0.25000000  1  0  1.03638  0  1.839843  0  0  0.83356  0  2.311919  0  0  0.886591  0  2.263914  0  1.241564  0  0.724884  0.796015  0  2.344633  0
Cd  Cd7  1  0.58421563  0.66435447  0.75000000  1  0  1.03634  0  1.839879  0  0  0.833525  0  2.311947  0  0  0.886557  0  2.263943  0  1.241567  0  0.724869  0.79598  0  2.34466  0
H  H8  1  0.16740604  0.76350248  0.25000000  1  0  0.089973  0  0.915924  0  0  0.104905  0  0.968665  0  0  0.106874  0  0.966424  0  0.089445  0  0.134528  0.103437  0  0.970337  0
H  H9  1  0.83259372  0.23649832  0.75000000  1  0  0.08999  0  0.915922  0  0  0.104921  0  0.96866  0  0  0.106891  0  0.966419  0  0.089451  0  0.134532  0.103454  0  0.970333  0
H  H10  1  0.93003174  0.59495515  0.55275270  1  0  0.064752  0  0.959295  0  0  0.082346  0  1.021163  0  0  0.082867  0  1.022669  0  0.05036  0  0.084118  0.081874  0  1.020252  0
H  H11  1  0.06996643  0.40504479  0.05275152  1  0  0.064809  0  0.959313  0  0  0.082423  0  1.021147  0  0  0.082935  0  1.022665  0  0.050372  0  0.084146  0.081959  0  1.020225  0
H  H12  1  0.06996643  0.40504479  0.44724965  1  0  0.064721  0  0.959362  0  0  0.082323  0  1.021226  0  0  0.08283  0  1.022741  0  0.050381  0  0.084094  0.081852  0  1.020314  0
H  H13  1  0.93003321  0.59495515  0.94724730  1  0  0.064756  0  0.959312  0  0  0.082354  0  1.021189  0  0  0.082869  0  1.022699  0  0.050365  0  0.084127  0.081882  0  1.020277  0
H  H14  1  0.83323628  0.45029789  0.55363274  1  0  0.058753  0  0.944275  0  0  0.07849  0  1.004255  0  0  0.07938  0  1.004109  0  0.021952  0  0.084053  0.077768  0  1.004525  0
H  H15  1  0.16676189  0.54970205  0.05363039  1  0  0.058775  0  0.944365  0  0  0.078501  0  1.004356  0  0  0.079391  0  1.00421  0  0.021521  0  0.084057  0.077778  0  1.004628  0
H  H16  1  0.16676201  0.54970291  0.44636961  1  0  0.058744  0  0.944391  0  0  0.078473  0  1.004372  0  0  0.079365  0  1.004221  0  0.021513  0  0.084046  0.077751  0  1.004642  0
H  H17  1  0.83323751  0.45029617  0.94636726  1  0  0.058752  0  0.944264  0  0  0.07851  0  1.004239  0  0  0.079397  0  1.004095  0  0.021944  0  0.084049  0.077788  0  1.004508  0
H  H18  1  0.63221568  0.58620073  0.47637664  1  0  0.107499  0  0.93816  0  0  0.124113  0  0.996695  0  0  0.125717  0  0.996992  0  0.057477  0  0.100332  0.122957  0  0.996587  0
H  H19  1  0.36778372  0.41379750  0.97637606  1  0  0.107507  0  0.938116  0  0  0.124117  0  0.996672  0  0  0.125724  0  0.99697  0  0.057493  0  0.100333  0.122962  0  0.996565  0
H  H20  1  0.36778250  0.41379922  0.52362453  1  0  0.107478  0  0.938171  0  0  0.124091  0  0.99671  0  0  0.125696  0  0.997007  0  0.057501  0  0.100322  0.122935  0  0.996601  0
H  H21  1  0.63221715  0.58620073  0.02362336  1  0  0.107528  0  0.938143  0  0  0.124135  0  0.996673  0  0  0.12574  0  0.99697  0  0.057501  0  0.100346  0.122979  0  0.996565  0
H  H22  1  0.82852738  0.60960258  0.41006508  1  0  0.090449  0  0.95205  0  0  0.103224  0  1.017082  0  0  0.105174  0  1.016745  0  0.03851  0  0.090562  0.101847  0  1.017389  0
H  H23  1  0.17147227  0.39039736  0.91006391  1  0  0.090408  0  0.952054  0  0  0.103183  0  1.01709  0  0  0.105135  0  1.016754  0  0.03849  0  0.09055  0.101808  0  1.017393  0
H  H24  1  0.17147239  0.39039822  0.58993668  1  0  0.090408  0  0.952038  0  0  0.10319  0  1.017052  0  0  0.105139  0  1.016716  0  0.038487  0  0.090556  0.101813  0  1.01736  0
H  H25  1  0.82852726  0.60960172  0.08993433  1  0  0.090446  0  0.952078  0  0  0.103218  0  1.017103  0  0  0.105168  0  1.016766  0  0.038518  0  0.09056  0.101841  0  1.01741  0
H  H26  1  0.63036323  0.31227457  0.58326747  1  0  0.087419  0  0.955266  0  0  0.094778  0  1.023652  0  0  0.097279  0  1.020149  0  0.147359  0  0.130239  0.092837  0  1.026289  0
H  H27  1  0.36963629  0.68772452  0.08326630  1  0  0.087484  0  0.955233  0  0  0.094834  0  1.023619  0  0  0.097339  0  1.020118  0  0.147326  0  0.130247  0.092892  0  1.026259  0
H  H28  1  0.36963641  0.68772538  0.41673194  1  0  0.087483  0  0.955227  0  0  0.094826  0  1.023627  0  0  0.097331  0  1.020125  0  0.147346  0  0.130245  0.092885  0  1.026267  0
H  H29  1  0.63036335  0.31227543  0.91673429  1  0  0.087472  0  0.95523  0  0  0.09482  0  1.023626  0  0  0.097325  0  1.020122  0  0.147311  0  0.130242  0.092879  0  1.026264  0
H  H30  1  0.93492250  0.28459564  0.31872244  1  0  0.070381  0  0.987016  0  0  0.080373  0  1.056931  0  0  0.081477  0  1.054794  0  0.122745  0  0.118462  0.0795  0  1.058484  0
H  H31  1  0.06507531  0.71540173  0.81872303  1  0  0.070351  0  0.987004  0  0  0.080342  0  1.05692  0  0  0.081447  0  1.054782  0  0.122784  0  0.118452  0.079472  0  1.058475  0
H  H32  1  0.06507739  0.71540602  0.68127814  1  0  0.070365  0  0.987043  0  0  0.080358  0  1.05696  0  0  0.081475  0  1.054792  0  0.118438  0  0.118464  0.079487  0  1.058513  0
H  H33  1  0.93492409  0.28459650  0.18127756  1  0  0.070355  0  0.987021  0  0  0.08035  0  1.056935  0  0  0.081452  0  1.054801  0  0.118489  0  0.118457  0.079479  0  1.05849  0
H  H34  1  0.20637726  0.07411561  0.68327509  1  0  0.082161  0  0.93733  0  0  0.094414  0  0.997382  0  0  0.096246  0  0.994775  0  0.114102  0  0.127851  0.092977  0  0.999369  0
H  H35  1  0.79362350  0.92588175  0.18327333  1  0  0.082159  0  0.937306  0  0  0.094422  0  0.997352  0  0  0.096253  0  0.994746  0  0.120682  0  0.127865  0.092984  0  0.999338  0
H  H36  1  0.79362227  0.92588347  0.31672549  1  0  0.082114  0  0.937315  0  0  0.09437  0  0.997376  0  0  0.096201  0  0.994768  0  0.114103  0  0.127847  0.092933  0  0.999362  0
H  H37  1  0.20637468  0.07411819  0.81672667  1  0  0.082142  0  0.937311  0  0  0.094406  0  0.997361  0  0  0.096237  0  0.994754  0  0.120672  0  0.127858  0.092968  0  0.999347  0
H  H38  1  0.90128674  0.42730948  0.25000000  1  0  0.076901  0  0.980668  0  0  0.088247  0  1.04684  0  0  0.089821  0  1.044552  0  0.124618  0  0.125681  0.087007  0  1.048654  0
H  H39  1  0.09871291  0.57269047  0.74999941  1  0  0.076888  0  0.980684  0  0  0.088218  0  1.046879  0  0  0.089792  0  1.044592  0  0.124615  0  0.125699  0.08698  0  1.04869  0
H  H40  1  0.12914238  0.05191626  0.48261492  1  0  0.078264  0  0.969374  0  0  0.085091  0  1.042749  0  0  0.086848  0  1.039954  0  0.124704  0  0.12509  0.083776  0  1.044775  0
H  H41  1  0.87085886  0.94808455  0.98261492  1  0  0.078227  0  0.969413  0  0  0.085096  0  1.042734  0  0  0.086853  0  1.039938  0  0.124689  0  0.1251  0.083781  0  1.044761  0
H  H42  1  0.87085873  0.94808369  0.51738333  1  0  0.078205  0  0.969452  0  0  0.085104  0  1.04274  0  0  0.086862  0  1.039942  0  0.124672  0  0.125114  0.083789  0  1.044767  0
H  H43  1  0.12914079  0.05191540  0.01738450  1  0  0.078223  0  0.969399  0  0  0.085107  0  1.042703  0  0  0.086864  0  1.039908  0  0.124644  0  0.125111  0.083791  0  1.04473  0
C  C44  1  0.14438174  0.67032999  0.25000000  1  0  0.189767  0  3.750446  0  0  0.132766  0  4.026247  0  0  0.145923  0  4.040431  0  1.012744  0  0.131404  0.124164  0  4.016237  0
C  C45  1  0.85561937  0.32966995  0.75000000  1  0  0.18971  0  3.750454  0  0  0.13271  0  4.026254  0  0  0.145867  0  4.040439  0  1.012732  0  0.131404  0.124108  0  4.016244  0
C  C46  1  0.90225903  0.51843282  0.51562676  1  0  -0.074823  0  3.685116  0  0  -0.113889  0  3.942157  0  0  -0.114151  0  3.955656  0  -0.022472  0  -0.170736  -0.113518  0  3.932797  0
C  C47  1  0.09773902  0.48156626  0.01562559  1  0  -0.074959  0  3.685306  0  0  -0.114034  0  3.942395  0  0  -0.114288  0  3.955898  0  -0.022027  0  -0.170778  -0.113669  0  3.933038  0
C  C48  1  0.09773779  0.48156798  0.48437500  1  0  -0.074827  0  3.685292  0  0  -0.113895  0  3.942326  0  0  -0.114145  0  3.955823  0  -0.049679  0  -0.170717  -0.113522  0  3.932962  0
C  C49  1  0.90226185  0.51843196  0.98437324  1  0  -0.074793  0  3.685035  0  0  -0.11391  0  3.942129  0  0  -0.114163  0  3.955627  0  -0.050136  0  -0.170732  -0.113541  0  3.932775  0
C  C50  1  0.75853350  0.54571636  0.45089939  1  0  -0.272014  0  3.673728  0  0  -0.307446  0  3.923779  0  0  -0.313625  0  3.932504  0  -0.032712  0  -0.171123  -0.303145  0  3.917682  0
C  C51  1  0.24146455  0.45428272  0.95089998  1  0  -0.27195  0  3.673676  0  0  -0.307379  0  3.923732  0  0  -0.313568  0  3.932468  0  -0.032704  0  -0.171108  -0.303078  0  3.917636  0
C  C52  1  0.24146455  0.45428272  0.54910061  1  0  -0.271952  0  3.673591  0  0  -0.307362  0  3.923614  0  0  -0.313541  0  3.932337  0  -0.032739  0  -0.171136  -0.30306  0  3.917517  0
C  C53  1  0.75853338  0.54571550  0.04910120  1  0  -0.272058  0  3.673713  0  0  -0.307443  0  3.923733  0  0  -0.313623  0  3.932457  0  -0.032734  0  -0.17114  -0.303141  0  3.917634  0
C  C54  1  0.53891475  0.23435033  0.59698229  1  0  0.209714  0  3.736991  0  0  0.152451  0  4.014056  0  0  0.165988  0  4.027637  0  0.962228  0  0.13392  0.143598  0  4.004734  0
C  C55  1  0.46108318  0.76564790  0.09698053  1  0  0.20953  0  3.737044  0  0  0.152274  0  4.014105  0  0  0.165804  0  4.027692  0  0.962191  0  0.133842  0.14342  0  4.004782  0
C  C56  1  0.46108330  0.76564876  0.40301829  1  0  0.209594  0  3.737047  0  0  0.15234  0  4.014101  0  0  0.165872  0  4.027687  0  0.962214  0  0.133903  0.143486  0  4.004778  0
C  C57  1  0.53891512  0.23435291  0.90301947  1  0  0.20956  0  3.73696  0  0  0.152298  0  4.014024  0  0  0.16583  0  4.027609  0  0.962188  0  0.133842  0.143444  0  4.004702  0
C  C58  1  0.02905771  0.23474572  0.35379573  1  0  0.200035  0  3.775426  0  0  0.144613  0  4.043867  0  0  0.157527  0  4.060054  0  0.996391  0  0.12565  0.136107  0  4.032768  0
C  C59  1  0.97094181  0.76525337  0.85379573  1  0  0.200143  0  3.775326  0  0  0.144728  0  4.043764  0  0  0.157639  0  4.059956  0  0.996328  0  0.125682  0.13622  0  4.032666  0
C  C60  1  0.97094218  0.76525595  0.64620368  1  0  0.200065  0  3.775464  0  0  0.144645  0  4.043907  0  0  0.157557  0  4.060104  0  0.996427  0  0.125672  0.136139  0  4.032805  0
C  C61  1  0.02905919  0.23474572  0.14620427  1  0  0.200148  0  3.775404  0  0  0.144724  0  4.043841  0  0  0.157638  0  4.060029  0  0.99636  0  0.125702  0.136214  0  4.032746  0
C  C62  1  0.32287986  0.11488449  0.64693539  1  0  0.201233  0  3.759743  0  0  0.144901  0  4.031332  0  0  0.158207  0  4.046168  0  0.996331  0  0.129585  0.136208  0  4.021037  0
C  C63  1  0.67711966  0.88511460  0.14693363  1  0  0.201198  0  3.759705  0  0  0.144858  0  4.031299  0  0  0.158165  0  4.046132  0  0.996455  0  0.129563  0.136168  0  4.021  0
C  C64  1  0.67711831  0.88511546  0.35306520  1  0  0.201255  0  3.759789  0  0  0.144921  0  4.031382  0  0  0.158228  0  4.046217  0  0.996368  0  0.129561  0.136228  0  4.021086  0
C  C65  1  0.32287863  0.11488621  0.85306637  1  0  0.201174  0  3.759765  0  0  0.144831  0  4.031355  0  0  0.158138  0  4.04619  0  0.996454  0  0.129533  0.136141  0  4.021057  0
C  C66  1  0.67155526  0.44264282  0.40365033  1  0  0.719515  0  3.809231  0  0  0.667956  0  4.112146  0  0  0.702623  0  4.104385  0  1.556494  0  0.211435  0.644275  0  4.116687  0
C  C67  1  0.32844573  0.55735626  0.90364974  1  0  0.719563  0  3.809185  0  0  0.668018  0  4.112085  0  0  0.702688  0  4.104322  0  1.556518  0  0.211464  0.644337  0  4.116627  0
C  C68  1  0.32844303  0.55735798  0.59635084  1  0  0.719548  0  3.809202  0  0  0.667961  0  4.112153  0  0  0.702628  0  4.104394  0  1.556835  0  0.211458  0.644281  0  4.116693  0
C  C69  1  0.67155674  0.44264282  0.09635084  1  0  0.719467  0  3.809336  0  0  0.667882  0  4.112279  0  0  0.70255  0  4.104518  0  1.556807  0  0.211405  0.644202  0  4.116818  0
C  C70  1  0.01283149  0.49898228  0.25000000  1  0  0.203183  0  3.738507  0  0  0.146404  0  4.009586  0  0  0.158308  0  4.026433  0  0.979825  0  0.130795  0.138582  0  3.997996  0
C  C71  1  0.98716962  0.50101767  0.75000000  1  0  0.203159  0  3.738548  0  0  0.146385  0  4.009641  0  0  0.158289  0  4.026493  0  0.979814  0  0.130738  0.138564  0  3.998052  0
C  C72  1  0.12359083  0.11551711  0.43653612  1  0  0.203892  0  3.722738  0  0  0.148831  0  3.990734  0  0  0.162659  0  4.005098  0  0.959809  0  0.129456  0.139768  0  3.980635  0
C  C73  1  0.87641041  0.88448369  0.93653553  1  0  0.203935  0  3.722827  0  0  0.14885  0  3.990803  0  0  0.162678  0  4.005168  0  0.959808  0  0.12947  0.139787  0  3.980705  0
C  C74  1  0.87640906  0.88448455  0.56346330  1  0  0.203946  0  3.722767  0  0  0.148848  0  3.990741  0  0  0.162675  0  4.005106  0  0.959835  0  0.129496  0.139786  0  3.980643  0
C  C75  1  0.12359071  0.11551625  0.06346447  1  0  0.20395  0  3.722791  0  0  0.148856  0  3.990764  0  0  0.162685  0  4.005127  0  0.959805  0  0.129478  0.139794  0  3.980665  0
N  N76  1  0.54939938  0.13654663  0.55739564  1  0  -0.296071  0  3.136437  0  0  -0.235705  0  3.421524  0  0  -0.251673  0  3.438523  0  -0.788595  0  -0.266233  -0.224858  0  3.409797  0
N  N77  1  0.45059880  0.86345331  0.05739505  1  0  -0.295999  0  3.136514  0  0  -0.235631  0  3.421596  0  0  -0.251599  0  3.438596  0  -0.788635  0  -0.266219  -0.224785  0  3.409869  0
N  N78  1  0.45059880  0.86345331  0.44260436  1  0  -0.296057  0  3.136464  0  0  -0.235685  0  3.421542  0  0  -0.251653  0  3.438542  0  -0.788611  0  -0.266243  -0.224838  0  3.409814  0
N  N79  1  0.54940097  0.13654749  0.94260553  1  0  -0.296015  0  3.136359  0  0  -0.235649  0  3.421439  0  0  -0.251616  0  3.438438  0  -0.788617  0  -0.266217  -0.224803  0  3.409714  0
N  N80  1  0.95761140  0.15761827  0.40810272  1  0  -0.438164  0  3.197972  0  0  -0.352889  0  3.47444  0  0  -0.377063  0  3.489087  0  -1.239007  0  -0.365885  -0.336291  0  3.463875  0
N  N81  1  0.04238677  0.84238167  0.90810331  1  0  -0.438242  0  3.198074  0  0  -0.352976  0  3.474565  0  0  -0.377151  0  3.489212  0  -1.239  0  -0.365933  -0.336379  0  3.464001  0
N  N82  1  0.04238689  0.84238253  0.59189611  1  0  -0.438184  0  3.198054  0  0  -0.352935  0  3.47456  0  0  -0.377113  0  3.489216  0  -1.239138  0  -0.365951  -0.336338  0  3.463995  0
N  N83  1  0.95761287  0.15761827  0.09189669  1  0  -0.438269  0  3.198096  0  0  -0.353005  0  3.474593  0  0  -0.377179  0  3.489237  0  -1.239002  0  -0.365958  -0.336408  0  3.464029  0
N  N84  1  0.20655053  0.49077796  0.25000000  1  0  -0.273136  0  3.134571  0  0  -0.212179  0  3.41514  0  0  -0.228209  0  3.434626  0  -0.784003  0  -0.252625  -0.201217  0  3.40164  0
N  N85  1  0.79345058  0.50922198  0.75000000  1  0  -0.273114  0  3.134605  0  0  -0.212157  0  3.415171  0  0  -0.22819  0  3.434664  0  -0.783988  0  -0.252591  -0.201195  0  3.40167  0
N  N86  1  0.28584114  0.16334711  0.40156309  1  0  -0.275457  0  3.187566  0  0  -0.207423  0  3.464923  0  0  -0.224981  0  3.484581  0  -0.754101  0  -0.257464  -0.19531  0  3.451173  0
N  N87  1  0.71415851  0.83665283  0.90156309  1  0  -0.275444  0  3.187539  0  0  -0.207415  0  3.464909  0  0  -0.224974  0  3.484569  0  -0.754097  0  -0.257461  -0.195302  0  3.451158  0
N  N88  1  0.71415851  0.83665283  0.59843574  1  0  -0.275463  0  3.18754  0  0  -0.207439  0  3.464924  0  0  -0.224997  0  3.484585  0  -0.754117  0  -0.257463  -0.195327  0  3.451173  0
N  N89  1  0.28584102  0.16334625  0.09843633  1  0  -0.275425  0  3.18747  0  0  -0.207406  0  3.464856  0  0  -0.224964  0  3.484514  0  -0.754099  0  -0.257454  -0.195293  0  3.451105  0
N  N90  1  0.29167138  0.60137936  0.25000000  1  0  -0.286443  0  3.181891  0  0  -0.221566  0  3.464155  0  0  -0.238597  0  3.483761  0  -0.781689  0  -0.257647  -0.209837  0  3.450426  0
N  N91  1  0.70833121  0.39862059  0.75000000  1  0  -0.286405  0  3.181944  0  0  -0.221529  0  3.464208  0  0  -0.23856  0  3.483815  0  -0.781662  0  -0.25764  -0.209801  0  3.45048  0
N  N92  1  0.96568013  0.60956648  0.25000000  1  0  -0.441947  0  3.226227  0  0  -0.357589  0  3.50971  0  0  -0.381192  0  3.524073  0  -1.212544  0  -0.366801  -0.341401  0  3.499285  0
N  N93  1  0.03432099  0.39043346  0.75000000  1  0  -0.441917  0  3.226159  0  0  -0.357556  0  3.509632  0  0  -0.381159  0  3.523996  0  -1.212566  0  -0.366804  -0.341369  0  3.499209  0
N  N94  1  0.22447797  0.24045565  0.34829620  1  0  -0.285681  0  3.188513  0  0  -0.220389  0  3.465374  0  0  -0.237671  0  3.48514  0  -0.766573  0  -0.258281  -0.208642  0  3.451749  0
N  N95  1  0.77552167  0.75954430  0.84829620  1  0  -0.285705  0  3.188495  0  0  -0.220413  0  3.465354  0  0  -0.237695  0  3.485122  0  -0.766553  0  -0.25828  -0.208665  0  3.451729  0
N  N96  1  0.77552192  0.75954602  0.65170321  1  0  -0.285681  0  3.188482  0  0  -0.220384  0  3.465343  0  0  -0.237668  0  3.485115  0  -0.766513  0  -0.258294  -0.208636  0  3.451716  0
N  N97  1  0.22447945  0.24045565  0.15170380  1  0  -0.285732  0  3.18847  0  0  -0.220436  0  3.465334  0  0  -0.237719  0  3.485101  0  -0.766554  0  -0.2583  -0.208689  0  3.45171  0
N  N98  1  0.40867468  0.05919485  0.58984228  1  0  -0.301377  0  3.200677  0  0  -0.235362  0  3.487675  0  0  -0.252792  0  3.506601  0  -0.781766  0  -0.264824  -0.223499  0  3.474564  0
N  N99  1  0.59132485  0.94080424  0.08984111  1  0  -0.301439  0  3.200765  0  0  -0.235432  0  3.487777  0  0  -0.252862  0  3.506702  0  -0.781744  0  -0.264873  -0.223569  0  3.474666  0
N  N100  1  0.59132497  0.94080510  0.41015772  1  0  -0.301416  0  3.20068  0  0  -0.23541  0  3.487696  0  0  -0.25284  0  3.506622  0  -0.781765  0  -0.264832  -0.223547  0  3.474586  0
N  N101  1  0.40867480  0.05919571  0.91015889  1  0  -0.301411  0  3.20063  0  0  -0.235401  0  3.487641  0  0  -0.252832  0  3.506567  0  -0.781725  0  -0.264863  -0.223538  0  3.47453  0
N  N102  1  0.39913456  0.22517301  0.65370427  1  0  -0.442859  0  3.215405  0  0  -0.363268  0  3.501096  0  0  -0.386696  0  3.515671  0  -1.23434  0  -0.365155  -0.347374  0  3.490702  0
N  N103  1  0.60086472  0.77482435  0.15370251  1  0  -0.442692  0  3.215307  0  0  -0.363094  0  3.500982  0  0  -0.386521  0  3.515559  0  -1.234306  0  -0.365051  -0.3472  0  3.490586  0
N  N104  1  0.60086497  0.77482607  0.34629573  1  0  -0.442727  0  3.215406  0  0  -0.363131  0  3.501074  0  0  -0.38656  0  3.515652  0  -1.234331  0  -0.365097  -0.347237  0  3.490678  0
N  N105  1  0.39913492  0.22517559  0.84629749  1  0  -0.442688  0  3.215366  0  0  -0.363086  0  3.501031  0  0  -0.386514  0  3.515608  0  -1.234331  0  -0.36504  -0.347192  0  3.490635  0
Cl  Cl106  1  0.62848764  0.15677936  0.25000000  1  0  -0.608558  0  0.937944  0  0  -0.551148  0  1.239755  0  0  -0.567954  0  1.213005  0  -0.671546  0  -0.309964  -0.538885  0  1.258174  0
Cl  Cl107  1  0.37151200  0.84322058  0.75000000  1  0  -0.608563  0  0.937946  0  0  -0.551156  0  1.239758  0  0  -0.567962  0  1.213005  0  -0.671545  0  -0.309972  -0.538893  0  1.258177  0
O  O108  1  0.60675615  0.46297010  0.33433982  1  0  -0.684746  0  2.073715  0  0  -0.600238  0  2.345918  0  0  -0.631558  0  2.332555  0  -1.189326  0  -0.340412  -0.578162  0  2.354233  0
O  O109  1  0.39324497  0.53702984  0.83433924  1  0  -0.684776  0  2.073685  0  0  -0.600265  0  2.345853  0  0  -0.631583  0  2.332487  0  -1.189344  0  -0.340438  -0.578189  0  2.354167  0
O  O110  1  0.39324497  0.53702984  0.66566135  1  0  -0.684753  0  2.073683  0  0  -0.600251  0  2.345903  0  0  -0.631572  0  2.332541  0  -1.189611  0  -0.340439  -0.578175  0  2.354218  0
O  O111  1  0.60675615  0.46297010  0.16566076  1  0  -0.684736  0  2.073764  0  0  -0.600221  0  2.345956  0  0  -0.631539  0  2.332594  0  -1.189608  0  -0.340423  -0.578145  0  2.354271  0
O  O112  1  0.66346102  0.34454173  0.43497596  1  0  -0.64407  0  2.015508  0  0  -0.579525  0  2.27922  0  0  -0.607142  0  2.268481  0  -1.196628  0  -0.327323  -0.560159  0  2.28597  0
O  O113  1  0.33654010  0.65545822  0.93497538  1  0  -0.644133  0  2.015597  0  0  -0.579576  0  2.279276  0  0  -0.607194  0  2.268536  0  -1.196625  0  -0.327345  -0.56021  0  2.286028  0
O  O114  1  0.33653875  0.65545908  0.56502521  1  0  -0.644102  0  2.015598  0  0  -0.579522  0  2.279281  0  0  -0.607142  0  2.268547  0  -1.196632  0  -0.3273  -0.560157  0  2.286031  0
O  O115  1  0.66346237  0.34454087  0.06502521  1  0  -0.644065  0  2.015585  0  0  -0.579491  0  2.279249  0  0  -0.60711  0  2.268513  0  -1.196633  0  -0.327301  -0.560125  0  2.285999  0
