# generated using pymatgen
data_Cu2Mo4H18C23N6O13
_symmetry_space_group_name_H-M   'P 1'
_cell_length_a   9.41749169
_cell_length_b   12.37681776
_cell_length_c   13.01460000
_cell_angle_alpha   80.63955689
_cell_angle_beta   85.79898193
_cell_angle_gamma   76.25222795
_symmetry_Int_Tables_number   1
_chemical_formula_structural   Cu2Mo4H18C23N6O13
_chemical_formula_sum   'Cu4 Mo8 H36 C46 N12 O26'
_cell_volume   1452.93616436
_cell_formula_units_Z   2
loop_
 _symmetry_equiv_pos_site_id
 _symmetry_equiv_pos_as_xyz
  1  'x, y, z'
loop_
 _atom_site_type_symbol
 _atom_site_label
 _atom_site_symmetry_multiplicity
 _atom_site_fract_x
 _atom_site_fract_y
 _atom_site_fract_z
 _atom_site_occupancy
 _atom_site_hle17_bader_spin_density
 _atom_site_hle17_ddec_charge
 _atom_site_hle17_ddec_spin_density
 _atom_site_hle17_ddec_sum_bond_order
 _atom_site_hle17_magmom
 _atom_site_hse06_10hf_bader_spin_density
 _atom_site_hse06_10hf_ddec_charge
 _atom_site_hse06_10hf_ddec_spin_density
 _atom_site_hse06_10hf_ddec_sum_bond_order
 _atom_site_hse06_10hf_magmom
 _atom_site_hse06_bader_spin_density
 _atom_site_hse06_ddec_charge
 _atom_site_hse06_ddec_spin_density
 _atom_site_hse06_ddec_sum_bond_order
 _atom_site_hse06_magmom
 _atom_site_pbe_bader_charge
 _atom_site_pbe_bader_spin_density
 _atom_site_pbe_cm5_charge
 _atom_site_pbe_ddec_charge
 _atom_site_pbe_ddec_spin_density
 _atom_site_pbe_ddec_sum_bond_order
 _atom_site_pbe_magmom
Cu  Cu0  1  0.15762114  0.77973572  0.29578640  1  0  0.622327  0  1.712434  0  0  0.507703  0  2.181065  0  0  0.501874  0  2.139374  0  0.75728  0  0.570176  0.514651  0  2.206308  0
Cu  Cu1  1  0.84237345  0.22026927  0.70421065  1  0  0.622329  0  1.712372  0  0  0.507709  0  2.180999  0  0  0.501827  0  2.139265  0  0.75731  0  0.570208  0.514644  0  2.206255  0
Cu  Cu2  1  0.31144502  0.72806389  0.80935851  1  0  0.631447  0  1.759518  0  0  0.52549  0  2.22456  0  0  0.512511  0  2.186872  0  0.790922  0  0.594995  0.537228  0  2.246699  0
Cu  Cu3  1  0.68855539  0.27193942  0.19063849  1  0  0.631425  0  1.75946  0  0  0.525468  0  2.22451  0  0  0.512495  0  2.186822  0  0.790869  0  0.594961  0.537192  0  2.246635  0
Mo  Mo4  1  0.69193628  0.92590661  0.47967967  1  0  2.214077  0  4.083137  0  0  2.207035  0  4.610702  0  0  2.310976  0  4.572077  0  2.597409  0  1.499899  2.130904  0  4.644335  0
Mo  Mo5  1  0.30806031  0.07409164  0.52031756  1  0  2.213979  0  4.082984  0  0  2.20694  0  4.610558  0  0  2.310894  0  4.571909  0  2.596958  0  1.499847  2.130814  0  4.644183  0
Mo  Mo6  1  0.53202226  0.81491974  0.29773569  1  0  2.185903  0  4.028105  0  0  2.182987  0  4.567105  0  0  2.281931  0  4.532124  0  2.582364  0  1.506114  2.111118  0  4.598206  0
Mo  Mo7  1  0.46797722  0.18507599  0.70226330  1  0  2.185829  0  4.028157  0  0  2.182865  0  4.567182  0  0  2.281819  0  4.5322  0  2.582413  0  1.506156  2.111001  0  4.598282  0
Mo  Mo8  1  0.55920871  0.90672412  0.71346879  1  0  2.186249  0  4.030261  0  0  2.180158  0  4.562969  0  0  2.280531  0  4.526571  0  2.574312  0  1.49751  2.107789  0  4.593771  0
Mo  Mo9  1  0.44078870  0.09327497  0.28652826  1  0  2.186235  0  4.030187  0  0  2.180138  0  4.56289  0  0  2.280502  0  4.526496  0  2.574019  0  1.497495  2.107769  0  4.593693  0
Mo  Mo10  1  0.62294971  0.19434965  0.46601927  1  0  2.16184  0  4.072803  0  0  2.15365  0  4.608595  0  0  2.254146  0  4.570649  0  2.563408  0  1.479439  2.082649  0  4.63809  0
Mo  Mo11  1  0.37704531  0.80565029  0.53397931  1  0  2.161922  0  4.072568  0  0  2.153756  0  4.608337  0  0  2.254253  0  4.570399  0  2.563585  0  1.479479  2.082759  0  4.637825  0
H  H12  1  0.34728718  0.38443558  0.47613086  1  0  0.326428  0  0.883324  0  0  0.310606  0  0.938684  0  0  0.31821  0  0.933013  0  0.536477  0  0.317744  0.305268  0  0.942682  0
H  H13  1  0.65272482  0.61557529  0.52387128  1  0  0.326431  0  0.883346  0  0  0.310617  0  0.938668  0  0  0.318239  0  0.932989  0  0.536587  0  0.317701  0.305279  0  0.942664  0
H  H14  1  0.09827139  0.38372636  0.18651769  1  0  0.096844  0  0.953836  0  0  0.106434  0  1.014023  0  0  0.108181  0  1.015345  0  0.104058  0  0.103263  0.105346  0  1.012613  0
H  H15  1  0.90173077  0.61628535  0.81348023  1  0  0.096766  0  0.953931  0  0  0.106371  0  1.014112  0  0  0.108119  0  1.015433  0  0.103827  0  0.103243  0.105282  0  1.012701  0
H  H16  1  0.00402438  0.58354362  0.11195010  1  0  0.093167  0  0.953559  0  0  0.107348  0  1.007345  0  0  0.108848  0  1.008438  0  0.093724  0  0.10329  0.106472  0  1.00648  0
H  H17  1  0.99597985  0.41646473  0.88804746  1  0  0.093227  0  0.9535  0  0  0.107351  0  1.007351  0  0  0.108848  0  1.008451  0  0.093851  0  0.10328  0.106479  0  1.006489  0
H  H18  1  0.13249376  0.67248927  0.95763731  1  0  0.093303  0  0.975616  0  0  0.096144  0  1.053655  0  0  0.101106  0  1.049639  0  0.091745  0  0.098317  0.093295  0  1.055316  0
H  H19  1  0.86750834  0.32751909  0.04235729  1  0  0.093152  0  0.975679  0  0  0.09604  0  1.053689  0  0  0.101008  0  1.049668  0  0.09184  0  0.098273  0.093189  0  1.055353  0
H  H20  1  0.32204441  0.26955854  0.10737692  1  0  0.116585  0  0.983606  0  0  0.122514  0  1.050803  0  0  0.12526  0  1.049107  0  0.130119  0  0.107288  0.120472  0  1.052386  0
H  H21  1  0.67795255  0.73044561  0.89262014  1  0  0.116541  0  0.983698  0  0  0.122485  0  1.050878  0  0  0.125233  0  1.049179  0  0.130002  0  0.107273  0.120444  0  1.052459  0
H  H22  1  0.64650389  0.34443764  0.83735757  1  0  0.073564  0  0.961926  0  0  0.077286  0  1.036525  0  0  0.08176  0  1.032381  0  0.106835  0  0.108096  0.073223  0  1.041444  0
H  H23  1  0.35348851  0.65556398  0.16262860  1  0  0.07354  0  0.961993  0  0  0.077341  0  1.03648  0  0  0.081812  0  1.03234  0  0.106973  0  0.108074  0.07327  0  1.041407  0
H  H24  1  0.54762880  0.54554629  0.75770824  1  0  0.09543  0  0.942308  0  0  0.10209  0  1.007044  0  0  0.104801  0  1.004922  0  0.091917  0  0.119048  0.10019  0  1.008088  0
H  H25  1  0.45236315  0.45446038  0.24228024  1  0  0.095394  0  0.942186  0  0  0.102069  0  1.006963  0  0  0.104727  0  1.004901  0  0.092087  0  0.119033  0.100161  0  1.008017  0
H  H26  1  0.68524726  0.16382895  0.03166483  1  0  0.103583  0  0.971031  0  0  0.106072  0  1.049277  0  0  0.111798  0  1.043448  0  0.104811  0  0.102432  0.10202  0  1.053452  0
H  H27  1  0.31475378  0.83616510  0.96832897  1  0  0.103583  0  0.970985  0  0  0.106027  0  1.049287  0  0  0.111762  0  1.043452  0  0.10502  0  0.102389  0.101969  0  1.053458  0
H  H28  1  0.68296625  0.01480773  0.92571744  1  0  0.109319  0  0.936956  0  0  0.119691  0  0.993342  0  0  0.122435  0  0.992482  0  0.078583  0  0.109832  0.117924  0  0.993623  0
H  H29  1  0.31702747  0.98517875  0.07428791  1  0  0.109322  0  0.937058  0  0  0.119689  0  0.993452  0  0  0.12243  0  0.992596  0  0.078671  0  0.109794  0.117915  0  0.993737  0
H  H30  1  0.83571227  0.82162575  0.97288659  1  0  0.095682  0  0.949005  0  0  0.108717  0  1.005061  0  0  0.11107  0  1.004772  0  0.110984  0  0.104216  0.107093  0  1.005201  0
H  H31  1  0.16427136  0.17836241  0.02713132  1  0  0.095659  0  0.949017  0  0  0.108678  0  1.005127  0  0  0.111049  0  1.004814  0  0.110887  0  0.104174  0.10707  0  1.005252  0
H  H32  1  0.99759493  0.77720761  0.12576367  1  0  0.087841  0  0.973518  0  0  0.094175  0  1.05011  0  0  0.099318  0  1.045235  0  0.083237  0  0.099544  0.09046  0  1.053658  0
H  H33  1  0.00239146  0.22278560  0.87424717  1  0  0.087774  0  0.973561  0  0  0.094138  0  1.050112  0  0  0.099287  0  1.045231  0  0.082743  0  0.099487  0.09042  0  1.05367  0
H  H34  1  0.09299209  0.98444429  0.36851959  1  0  0.113328  0  0.960211  0  0  0.11866  0  1.024231  0  0  0.121623  0  1.020841  0  0.161921  0  0.123194  0.116636  0  1.026753  0
H  H35  1  0.90700682  0.01554976  0.63148201  1  0  0.113291  0  0.960236  0  0  0.118571  0  1.024307  0  0  0.121534  0  1.020916  0  0.161991  0  0.123141  0.116549  0  1.026824  0
H  H36  1  0.94326159  0.17653006  0.32092547  1  0  0.095241  0  0.935122  0  0  0.103371  0  1.000714  0  0  0.105948  0  0.998066  0  0.122762  0  0.125092  0.10152  0  1.00249  0
H  H37  1  0.05673682  0.82346567  0.67907742  1  0  0.095228  0  0.935205  0  0  0.103338  0  1.000809  0  0  0.105914  0  0.998165  0  0.122628  0  0.125093  0.101492  0  1.002582  0
H  H38  1  0.85009412  0.33684574  0.38904171  1  0  0.083909  0  1.006782  0  0  0.091112  0  1.078959  0  0  0.093094  0  1.078257  0  0.079834  0  0.091919  0.089618  0  1.079661  0
H  H39  1  0.14992082  0.66315167  0.61097004  1  0  0.083931  0  1.006705  0  0  0.091113  0  1.078925  0  0  0.093099  0  1.078215  0  0.079817  0  0.091867  0.089619  0  1.079629  0
H  H40  1  0.09879121  0.28293269  0.45925458  1  0  0.111965  0  0.984156  0  0  0.118688  0  1.049412  0  0  0.121356  0  1.047537  0  0.12781  0  0.102044  0.116921  0  1.050533  0
H  H41  1  0.90122643  0.71706641  0.54075677  1  0  0.112049  0  0.984192  0  0  0.118797  0  1.049414  0  0  0.121471  0  1.047525  0  0.127471  0  0.102084  0.117029  0  1.050535  0
H  H42  1  0.40027142  0.57870783  0.41456554  1  0  0.095259  0  0.943415  0  0  0.107517  0  1.001089  0  0  0.109964  0  0.998224  0  0.163654  0  0.13593  0.105122  0  1.00432  0
H  H43  1  0.59973237  0.42130557  0.58542896  1  0  0.095243  0  0.943552  0  0  0.107506  0  1.001205  0  0  0.10995  0  0.998343  0  0.163847  0  0.135937  0.105114  0  1.004427  0
H  H44  1  0.89346220  0.67603787  0.27872089  1  0  0.108722  0  0.974343  0  0  0.115836  0  1.04529  0  0  0.11956  0  1.041494  0  0.087102  0  0.100157  0.11309  0  1.04824  0
H  H45  1  0.10654104  0.32395954  0.72127995  1  0  0.108825  0  0.974368  0  0  0.115912  0  1.04534  0  0  0.119638  0  1.041546  0  0.087001  0  0.100164  0.113165  0  1.048288  0
H  H46  1  0.75000872  0.52896510  0.29871980  1  0  0.092878  0  0.965081  0  0  0.104082  0  1.025242  0  0  0.106239  0  1.025206  0  0.079645  0  0.093352  0.102038  0  1.026671  0
H  H47  1  0.24999896  0.47102811  0.70128760  1  0  0.092928  0  0.965035  0  0  0.104121  0  1.025202  0  0  0.10628  0  1.025166  0  0.079729  0  0.093346  0.102067  0  1.026641  0
C  C48  1  0.15581764  0.42110955  0.11939202  1  0  -0.0504  0  3.733178  0  0  -0.063745  0  3.982154  0  0  -0.066884  0  4.006581  0  -0.03643  0  -0.081149  -0.061652  0  3.966198  0
C  C49  1  0.84418922  0.57889712  0.88060566  1  0  -0.050223  0  3.733213  0  0  -0.063594  0  3.982172  0  0  -0.066731  0  4.006599  0  -0.036812  0  -0.081102  -0.061501  0  3.966213  0
C  C50  1  0.10277547  0.53543218  0.07717473  1  0  -0.040931  0  3.758365  0  0  -0.055955  0  4.001336  0  0  -0.057822  0  4.026164  0  -0.08579  0  -0.080899  -0.05352  0  3.986384  0
C  C51  1  0.89722983  0.46457617  0.92282124  1  0  -0.041111  0  3.758544  0  0  -0.056092  0  4.00154  0  0  -0.057964  0  4.026375  0  -0.085316  0  -0.080865  -0.053662  0  3.986591  0
C  C52  1  0.17285879  0.58483418  0.99212355  1  0  -0.162945  0  3.76716  0  0  -0.178782  0  4.01787  0  0  -0.183559  0  4.038421  0  -0.020699  0  -0.094397  -0.176799  0  4.006711  0
C  C53  1  0.82714118  0.41517417  0.00787116  1  0  -0.162648  0  3.767193  0  0  -0.178504  0  4.017827  0  0  -0.183284  0  4.038382  0  -0.020772  0  -0.094376  -0.176521  0  4.00667  0
C  C54  1  0.29958187  0.52124533  0.94659017  1  0  0.152355  0  3.772338  0  0  0.152847  0  4.001364  0  0  0.154947  0  4.025394  0  0.431538  0  0.105658  0.150831  0  3.986691  0
C  C55  1  0.70041729  0.47876218  0.05340625  1  0  0.152457  0  3.772491  0  0  0.152897  0  4.001476  0  0  0.155003  0  4.025507  0  0.431951  0  0.10574  0.150877  0  3.986806  0
C  C56  1  0.35509446  0.40583658  0.98950838  1  0  0.157308  0  3.76687  0  0  0.16285  0  4.004796  0  0  0.164202  0  4.027565  0  0.443494  0  0.113886  0.163137  0  3.988721  0
C  C57  1  0.64490682  0.59417093  0.01048639  1  0  0.157113  0  3.766866  0  0  0.162754  0  4.00466  0  0  0.164103  0  4.02743  0  0.443223  0  0.113836  0.16304  0  3.988587  0
C  C58  1  0.27869480  0.35721783  0.07585125  1  0  -0.121413  0  3.692199  0  0  -0.142465  0  3.940334  0  0  -0.14577  0  3.961442  0  -0.037191  0  -0.079705  -0.141897  0  3.926646  0
C  C59  1  0.72130461  0.64278884  0.92414299  1  0  -0.121419  0  3.692268  0  0  -0.142504  0  3.940381  0  0  -0.145807  0  3.961484  0  -0.036982  0  -0.079721  -0.141932  0  3.926686  0
C  C60  1  0.54612307  0.39337608  0.86982627  1  0  0.083036  0  3.718418  0  0  0.0585  0  3.9849  0  0  0.059449  0  4.000433  0  0.56687  0  0.05238  0.056681  0  3.977339  0
C  C61  1  0.45387609  0.60663143  0.13016401  1  0  0.082849  0  3.718619  0  0  0.058267  0  3.985137  0  0  0.05922  0  4.00065  0  0.566941  0  0.052241  0.056443  0  3.977585  0
C  C62  1  0.49184665  0.50601106  0.82444166  1  0  0.095625  0  3.640414  0  0  0.062791  0  3.895557  0  0  0.068616  0  3.908877  0  0.544437  0  0.054018  0.060016  0  3.886633  0
C  C63  1  0.50815031  0.49399308  0.17555079  1  0  0.095724  0  3.640529  0  0  0.062824  0  3.89571  0  0  0.068694  0  3.909044  0  0.544163  0  0.054081  0.060086  0  3.88672  0
C  C64  1  0.84410638  0.05544170  0.13814381  1  0  0.170305  0  3.726779  0  0  0.171011  0  3.957835  0  0  0.172539  0  3.980784  0  0.43188  0  0.110743  0.169571  0  3.942999  0
C  C65  1  0.15589573  0.94455235  0.86185684  1  0  0.170269  0  3.72692  0  0  0.170955  0  3.957976  0  0  0.172481  0  3.980932  0  0.431853  0  0.110676  0.169517  0  3.943132  0
C  C66  1  0.75379969  0.07920759  0.05137665  1  0  -0.12539  0  3.702294  0  0  -0.144532  0  3.951219  0  0  -0.147388  0  3.969591  0  -0.002765  0  -0.082909  -0.142635  0  3.938803  0
C  C67  1  0.24619735  0.92078562  0.94862133  1  0  -0.125334  0  3.702268  0  0  -0.144415  0  3.951152  0  0  -0.147277  0  3.969513  0  -0.003294  0  -0.082836  -0.14252  0  3.938755  0
C  C68  1  0.75169927  0.99589860  0.99313031  1  0  -0.023181  0  3.689169  0  0  -0.037185  0  3.934055  0  0  -0.03874  0  3.954902  0  -0.006295  0  -0.071979  -0.035551  0  3.918655  0
C  C69  1  0.24828950  0.00409377  0.00687516  1  0  -0.023263  0  3.689593  0  0  -0.037258  0  3.934446  0  0  -0.038814  0  3.955299  0  -0.006041  0  -0.071931  -0.03562  0  3.919048  0
C  C70  1  0.83924745  0.88621406  0.01979032  1  0  -0.025023  0  3.714308  0  0  -0.042341  0  3.962265  0  0  -0.042815  0  3.983501  0  -0.031719  0  -0.075865  -0.041455  0  3.947046  0
C  C71  1  0.16074552  0.11377494  0.98022083  1  0  -0.024972  0  3.714667  0  0  -0.042298  0  3.962625  0  0  -0.042782  0  3.983859  0  -0.032345  0  -0.07586  -0.041428  0  3.947397  0
C  C72  1  0.92847820  0.86107937  0.10402092  1  0  -0.1393  0  3.738469  0  0  -0.159011  0  3.990658  0  0  -0.163192  0  4.010588  0  -0.07702  0  -0.084721  -0.156173  0  3.977288  0
C  C73  1  0.07151270  0.13891300  0.89598827  1  0  -0.139288  0  3.738587  0  0  -0.158975  0  3.990783  0  0  -0.163158  0  4.010715  0  -0.07541  0  -0.084671  -0.156126  0  3.977386  0
C  C74  1  0.93326976  0.94455824  0.16489020  1  0  0.169039  0  3.739744  0  0  0.168422  0  3.972868  0  0  0.170321  0  3.996809  0  0.446349  0  0.111913  0.166955  0  3.957207  0
C  C75  1  0.06672765  0.05544085  0.83511223  1  0  0.169138  0  3.739455  0  0  0.168443  0  3.972719  0  0  0.170338  0  3.99666  0  0.446016  0  0.111933  0.16698  0  3.957053  0
C  C76  1  0.02377548  0.00300428  0.30173881  1  0  0.125571  0  3.604209  0  0  0.090561  0  3.862082  0  0  0.097226  0  3.870744  0  0.571347  0  0.057838  0.085679  0  3.856927  0
C  C77  1  0.97622055  0.99699229  0.69826255  1  0  0.125599  0  3.604232  0  0  0.090625  0  3.862096  0  0  0.097296  0  3.870744  0  0.571244  0  0.057817  0.085744  0  3.856936  0
C  C78  1  0.93765176  0.11174741  0.27500161  1  0  0.122452  0  3.628698  0  0  0.085971  0  3.893378  0  0  0.092904  0  3.900771  0  0.518548  0  0.056479  0.081435  0  3.888141  0
C  C79  1  0.06234690  0.88824748  0.72499910  1  0  0.122421  0  3.628839  0  0  0.085954  0  3.893464  0  0  0.092893  0  3.900848  0  0.518562  0  0.056492  0.081414  0  3.888227  0
C  C80  1  0.91830481  0.39787704  0.37814432  1  0  -0.079305  0  3.780957  0  0  -0.09476  0  4.037412  0  0  -0.096963  0  4.06045  0  -0.094996  0  -0.101629  -0.092834  0  4.021255  0
C  C81  1  0.08170431  0.60212206  0.62186517  1  0  -0.079272  0  3.780844  0  0  -0.094683  0  4.037233  0  0  -0.096908  0  4.060312  0  -0.095138  0  -0.101529  -0.092759  0  4.021069  0
C  C82  1  0.05775163  0.36692728  0.41799472  1  0  -0.134036  0  3.725116  0  0  -0.151544  0  3.97249  0  0  -0.154606  0  3.993533  0  -0.023489  0  -0.092323  -0.149386  0  3.95785  0
C  C83  1  0.94225542  0.63307518  0.58201128  1  0  -0.134326  0  3.725229  0  0  -0.151901  0  3.972643  0  0  -0.15496  0  3.993665  0  -0.02227  0  -0.092519  -0.149742  0  3.958002  0
C  C84  1  0.13901008  0.44932760  0.40359758  1  0  0.156037  0  3.770378  0  0  0.150823  0  4.007519  0  0  0.153878  0  4.032342  0  0.379629  0  0.096  0.148999  0  3.990471  0
C  C85  1  0.86100305  0.55067233  0.59640850  1  0  0.156413  0  3.770372  0  0  0.151186  0  4.007473  0  0  0.154274  0  4.032296  0  0.378622  0  0.096265  0.149366  0  3.990424  0
C  C86  1  0.08191987  0.55953796  0.35229670  1  0  0.122282  0  3.848864  0  0  0.123492  0  4.087659  0  0  0.125001  0  4.112411  0  0.430463  0  0.079744  0.122538  0  4.070702  0
C  C87  1  0.91808793  0.44046198  0.64770581  1  0  0.122202  0  3.849024  0  0  0.123393  0  4.087832  0  0  0.124903  0  4.112578  0  0.431024  0  0.079677  0.122433  0  4.070872  0
C  C88  1  0.30071134  0.55426889  0.40086564  1  0  0.250308  0  3.65526  0  0  0.190825  0  3.928637  0  0  0.205905  0  3.939998  0  0.994698  0  0.158027  0.181236  0  3.920986  0
C  C89  1  0.69929734  0.44573525  0.59913156  1  0  0.250302  0  3.655443  0  0  0.190768  0  3.928827  0  0  0.205873  0  3.940203  0  0.994626  0  0.157988  0.181183  0  3.921168  0
C  C90  1  0.94048801  0.59030347  0.31459698  1  0  -0.147005  0  3.760848  0  0  -0.166344  0  4.014392  0  0  -0.167698  0  4.032364  0  -0.070128  0  -0.097714  -0.165184  0  4.001752  0
C  C91  1  0.05952079  0.40969310  0.68540907  1  0  -0.147201  0  3.760675  0  0  -0.166556  0  4.014284  0  0  -0.167901  0  4.032233  0  -0.070261  0  -0.097773  -0.165402  0  4.001659  0
C  C92  1  0.86052453  0.50759523  0.32731958  1  0  -0.074354  0  3.773704  0  0  -0.092537  0  4.030422  0  0  -0.094752  0  4.052744  0  -0.040426  0  -0.103715  -0.090846  0  4.015481  0
C  C93  1  0.13948434  0.49240471  0.67268672  1  0  -0.074297  0  3.773542  0  0  -0.092465  0  4.030248  0  0  -0.09468  0  4.052574  0  -0.040531  0  -0.103666  -0.090762  0  4.015301  0
N  N94  1  0.84603064  0.13859583  0.19665972  1  0  -0.322569  0  3.34995  0  0  -0.261645  0  3.656336  0  0  -0.263389  0  3.657752  0  -1.203578  0  -0.360338  -0.260226  0  3.654499  0
N  N95  1  0.15396915  0.86140243  0.80334041  1  0  -0.322515  0  3.350281  0  0  -0.26153  0  3.656579  0  0  -0.263265  0  3.657989  0  -1.203662  0  -0.360266  -0.260114  0  3.654743  0
N  N96  1  0.02217400  0.91940757  0.24924716  1  0  -0.301868  0  3.324333  0  0  -0.238045  0  3.632767  0  0  -0.241904  0  3.635694  0  -1.195954  0  -0.35257  -0.235795  0  3.630364  0
N  N97  1  0.97782260  0.08059069  0.75075314  1  0  -0.301908  0  3.324161  0  0  -0.238062  0  3.632609  0  0  -0.241906  0  3.635501  0  -1.195748  0  -0.352538  -0.235813  0  3.6302  0
N  N98  1  0.48118272  0.34339442  0.95110466  1  0  -0.260854  0  2.998851  0  0  -0.234729  0  3.264664  0  0  -0.238634  0  3.275626  0  -1.147171  0  -0.287135  -0.2329  0  3.258068  0
N  N99  1  0.51881399  0.65661056  0.04888690  1  0  -0.260566  0  2.998784  0  0  -0.234463  0  3.264576  0  0  -0.238366  0  3.275538  0  -1.147371  0  -0.286939  -0.232633  0  3.257979  0
N  N100  1  0.37172360  0.57001804  0.86263137  1  0  -0.307098  0  3.37211  0  0  -0.241291  0  3.675067  0  0  -0.246818  0  3.679688  0  -1.202815  0  -0.353891  -0.238518  0  3.670888  0
N  N101  1  0.62827393  0.42998779  0.13736310  1  0  -0.307251  0  3.372526  0  0  -0.241387  0  3.67547  0  0  -0.246922  0  3.680082  0  -1.202863  0  -0.354016  -0.23861  0  3.671291  0
N  N102  1  0.18647321  0.62301912  0.35131710  1  0  -0.432128  0  3.366995  0  0  -0.364747  0  3.693365  0  0  -0.378138  0  3.698464  0  -1.222021  0  -0.394078  -0.356127  0  3.689154  0
N  N103  1  0.81353353  0.37698082  0.64868086  1  0  -0.432017  0  3.367001  0  0  -0.364614  0  3.693371  0  0  -0.377996  0  3.698432  0  -1.222244  0  -0.394078  -0.355993  0  3.689153  0
N  N104  1  0.27750747  0.44970114  0.43281096  1  0  -0.32181  0  3.363611  0  0  -0.258753  0  3.593693  0  0  -0.276755  0  3.607892  0  -1.287598  0  -0.370965  -0.24671  0  3.58383  0
N  N105  1  0.72250146  0.55030216  0.56719097  1  0  -0.322018  0  3.363672  0  0  -0.258874  0  3.593648  0  0  -0.27695  0  3.607904  0  -1.28767  0  -0.370989  -0.24683  0  3.583782  0
O  O106  1  0.64486139  0.72434450  0.22585519  1  0  -0.647802  0  1.455641  0  0  -0.632858  0  1.695069  0  0  -0.657826  0  1.688387  0  -0.793378  0  -0.495346  -0.614876  0  1.700694  0
O  O107  1  0.35513715  0.27564366  0.77414810  1  0  -0.647778  0  1.455711  0  0  -0.632797  0  1.695115  0  0  -0.657766  0  1.688444  0  -0.793602  0  -0.49537  -0.614811  0  1.700737  0
O  O108  1  0.71294015  0.83762812  0.38224267  1  0  -0.781122  0  1.635897  0  0  -0.777636  0  1.917318  0  0  -0.809896  0  1.907366  0  -0.928356  0  -0.550001  -0.754162  0  1.924506  0
O  O109  1  0.28705938  0.16237098  0.61775349  1  0  -0.78108  0  1.635881  0  0  -0.777589  0  1.917319  0  0  -0.809849  0  1.907365  0  -0.928545  0  -0.549993  -0.754114  0  1.924508  0
O  O110  1  0.56711614  0.04121110  0.57517826  1  0  -1.218958  0  1.878359  0  0  -1.197601  0  2.159341  0  0  -1.246257  0  2.159054  0  -1.239416  0  -0.61951  -1.160881  0  2.158857  0
O  O111  1  0.43288020  0.95878800  0.42482038  1  0  -1.218978  0  1.878444  0  0  -1.19762  0  2.159414  0  0  -1.24627  0  2.159127  0  -1.239397  0  -0.619478  -1.160898  0  2.158927  0
O  O112  1  0.50860105  0.72776523  0.43666215  1  0  -0.917237  0  1.736802  0  0  -0.905014  0  2.022303  0  0  -0.944345  0  2.013652  0  -1.05234  0  -0.589542  -0.876351  0  2.02821  0
O  O113  1  0.49139848  0.27223387  0.56333710  1  0  -0.917179  0  1.736717  0  0  -0.904942  0  2.022233  0  0  -0.944272  0  2.013571  0  -1.052351  0  -0.589536  -0.876281  0  2.028133  0
O  O114  1  0.54378863  0.96213890  0.23100807  1  0  -0.856086  0  1.717293  0  0  -0.849649  0  2.003091  0  0  -0.891958  0  1.999462  0  -0.988182  0  -0.582344  -0.81918  0  2.006271  0
O  O115  1  0.45620659  0.03785684  0.76899269  1  0  -0.856098  0  1.717292  0  0  -0.849665  0  2.003105  0  0  -0.89197  0  1.999465  0  -0.98813  0  -0.582334  -0.8192  0  2.006291  0
O  O116  1  0.66595186  0.06676139  0.38649717  1  0  -0.950162  0  1.864493  0  0  -0.940923  0  2.161863  0  0  -0.984526  0  2.160066  0  -1.063257  0  -0.596204  -0.90922  0  2.16338  0
O  O117  1  0.33404261  0.93323686  0.61350093  1  0  -0.950113  0  1.864384  0  0  -0.940872  0  2.161734  0  0  -0.984524  0  2.160051  0  -1.063431  0  -0.596212  -0.909173  0  2.163252  0
O  O118  1  0.48295275  0.80507821  0.79132318  1  0  -0.724322  0  1.709509  0  0  -0.701524  0  2.023211  0  0  -0.723692  0  2.005273  0  -0.875792  0  -0.532922  -0.686472  0  2.03562  0
O  O119  1  0.51704779  0.19491752  0.20867269  1  0  -0.724262  0  1.709436  0  0  -0.701435  0  2.023078  0  0  -0.723603  0  2.005141  0  -0.875714  0  -0.532893  -0.686383  0  2.035485  0
O  O120  1  0.60809522  0.82903003  0.58844028  1  0  -0.95494  0  1.798144  0  0  -0.946194  0  2.089392  0  0  -0.988638  0  2.084826  0  -1.073753  0  -0.598402  -0.914682  0  2.092236  0
O  O121  1  0.39190081  0.17096654  0.41155724  1  0  -0.954927  0  1.798161  0  0  -0.946211  0  2.089496  0  0  -0.988626  0  2.084854  0  -1.073747  0  -0.598414  -0.914695  0  2.092331  0
O  O122  1  0.62021073  0.30037032  0.36035005  1  0  -0.72309  0  1.554695  0  0  -0.706895  0  1.839909  0  0  -0.728393  0  1.824395  0  -0.877117  0  -0.527504  -0.692893  0  1.851695  0
O  O123  1  0.37978850  0.69962625  0.63964807  1  0  -0.723153  0  1.554618  0  0  -0.706953  0  1.839795  0  0  -0.728442  0  1.824281  0  -0.877099  0  -0.527545  -0.692947  0  1.851578  0
O  O124  1  0.78763069  0.17858788  0.52183409  1  0  -0.678396  0  1.512587  0  0  -0.668803  0  1.790215  0  0  -0.692082  0  1.778042  0  -0.818227  0  -0.500496  -0.653323  0  1.799158  0
O  O125  1  0.21236327  0.82141205  0.47816455  1  0  -0.678429  0  1.512558  0  0  -0.668847  0  1.790174  0  0  -0.692124  0  1.778006  0  -0.818225  0  -0.500504  -0.65337  0  1.799118  0
O  O126  1  0.35574560  0.81658804  0.26149813  1  0  -0.770528  0  1.700927  0  0  -0.755528  0  2.030864  0  0  -0.779734  0  2.012536  0  -0.897975  0  -0.547883  -0.738685  0  2.043681  0
O  O127  1  0.64425205  0.18341022  0.73850211  1  0  -0.770508  0  1.70091  0  0  -0.755463  0  2.030781  0  0  -0.779661  0  2.012437  0  -0.897941  0  -0.547909  -0.738624  0  2.043597  0
O  O128  1  0.72979588  0.88642102  0.76054936  1  0  -0.668498  0  1.423366  0  0  -0.656615  0  1.664676  0  0  -0.68249  0  1.656769  0  -0.800931  0  -0.499574  -0.63838  0  1.67073  0
O  O129  1  0.27020021  0.11357892  0.23944917  1  0  -0.668496  0  1.423188  0  0  -0.656604  0  1.664495  0  0  -0.682482  0  1.656594  0  -0.800608  0  -0.499577  -0.638368  0  1.670541  0
O  O130  1  0.86396114  0.90942554  0.52140505  1  0  -0.638472  0  1.464993  0  0  -0.617866  0  1.705295  0  0  -0.641938  0  1.695613  0  -0.785371  0  -0.483856  -0.600878  0  1.712472  0
O  O131  1  0.13603358  0.09057188  0.47859318  1  0  -0.638447  0  1.464861  0  0  -0.617873  0  1.705196  0  0  -0.641938  0  1.695503  0  -0.784816  0  -0.483816  -0.600882  0  1.712365  0
