# generated using pymatgen
data_UH8C10(N2O5)2
_symmetry_space_group_name_H-M   'P 1'
_cell_length_a   8.56360725
_cell_length_b   8.92006972
_cell_length_c   13.14674690
_cell_angle_alpha   86.92559272
_cell_angle_beta   70.96965821
_cell_angle_gamma   61.31226337
_symmetry_Int_Tables_number   1
_chemical_formula_structural   UH8C10(N2O5)2
_chemical_formula_sum   'U2 H16 C20 N8 O20'
_cell_volume   826.39620083
_cell_formula_units_Z   2
loop_
 _symmetry_equiv_pos_site_id
 _symmetry_equiv_pos_as_xyz
  1  'x, y, z'
loop_
 _atom_site_type_symbol
 _atom_site_label
 _atom_site_symmetry_multiplicity
 _atom_site_fract_x
 _atom_site_fract_y
 _atom_site_fract_z
 _atom_site_occupancy
 _atom_site_hle17_bader_spin_density
 _atom_site_hle17_ddec_charge
 _atom_site_hle17_ddec_spin_density
 _atom_site_hle17_ddec_sum_bond_order
 _atom_site_hle17_magmom
 _atom_site_hse06_10hf_bader_spin_density
 _atom_site_hse06_10hf_ddec_charge
 _atom_site_hse06_10hf_ddec_spin_density
 _atom_site_hse06_10hf_ddec_sum_bond_order
 _atom_site_hse06_10hf_magmom
 _atom_site_hse06_bader_spin_density
 _atom_site_hse06_ddec_charge
 _atom_site_hse06_ddec_spin_density
 _atom_site_hse06_ddec_sum_bond_order
 _atom_site_hse06_magmom
 _atom_site_pbe_bader_spin_density
 _atom_site_pbe_cm5_charge
 _atom_site_pbe_ddec_charge
 _atom_site_pbe_ddec_spin_density
 _atom_site_pbe_ddec_sum_bond_order
 _atom_site_pbe_magmom
U  U0  1  0.49999624  0.50000414  0.00001036  1  0  2.307232  0  4.231636  0  0  2.361727  0  4.900279  0  0  2.479683  0  4.858591  0  0  2.136703  2.28085  0  4.92711  0
U  U1  1  0.50000461  0.99999862  0.49998779  1  0  2.306324  0  4.227413  0  0  2.362984  0  4.895138  0  0  2.480812  0  4.854599  0  0  2.134072  2.282253  0  4.921239  0
H  H2  1  0.85693979  0.29132640  0.66938879  1  0  0.126606  0  0.931149  0  0  0.134746  0  0.992648  0  0  0.138721  0  0.988261  0  0  0.138554  0.131723  0  0.996098  0
H  H3  1  0.31749060  0.20865643  0.83009809  1  0  0.128129  0  0.930017  0  0  0.135073  0  0.992588  0  0  0.138988  0  0.988171  0  0  0.1388  0.132116  0  0.996032  0
H  H4  1  0.14304399  0.70868570  0.33063452  1  0  0.12663  0  0.930992  0  0  0.134716  0  0.992506  0  0  0.138694  0  0.988134  0  0  0.138494  0.131686  0  0.995951  0
H  H5  1  0.68247663  0.79138706  0.16988852  1  0  0.128253  0  0.930146  0  0  0.13514  0  0.992736  0  0  0.139054  0  0.98832  0  0  0.138798  0.13218  0  0.996176  0
H  H6  1  0.82206902  0.36618400  0.49165393  1  0  0.122024  0  0.959529  0  0  0.127043  0  1.023559  0  0  0.13115  0  1.020905  0  0  0.116907  0.124066  0  1.025608  0
H  H7  1  0.18042194  0.13337619  0.00806772  1  0  0.122631  0  0.957645  0  0  0.127374  0  1.02224  0  0  0.13152  0  1.019482  0  0  0.116893  0.124389  0  1.0243  0
H  H8  1  0.17793587  0.63380998  0.50836977  1  0  0.121897  0  0.959413  0  0  0.12693  0  1.023461  0  0  0.131035  0  1.020812  0  0  0.116884  0.123965  0  1.025507  0
H  H9  1  0.81951309  0.86669012  0.99192917  1  0  0.122641  0  0.957484  0  0  0.127281  0  1.022213  0  0  0.13143  0  1.019453  0  0  0.116849  0.124294  0  1.024279  0
H  H10  1  0.21508581  0.57294775  0.65043361  1  0  0.126579  0  0.937078  0  0  0.134531  0  0.996235  0  0  0.137989  0  0.994506  0  0  0.121569  0.132004  0  0.997639  0
H  H11  1  0.93825365  0.92680515  0.84981381  1  0  0.126759  0  0.93685  0  0  0.133813  0  0.997102  0  0  0.137219  0  0.995478  0  0  0.121409  0.131321  0  0.998459  0
H  H12  1  0.78491564  0.42704116  0.34958792  1  0  0.126544  0  0.937029  0  0  0.134455  0  0.996238  0  0  0.137913  0  0.994509  0  0  0.121535  0.131926  0  0.99764  0
H  H13  1  0.06181362  0.07313220  0.15014665  1  0  0.12676  0  0.936764  0  0  0.133834  0  0.997006  0  0  0.137239  0  0.995387  0  0  0.121471  0.13134  0  0.99836  0
H  H14  1  0.27847525  0.48575268  0.82025084  1  0  0.1206  0  0.951547  0  0  0.124141  0  1.022075  0  0  0.127736  0  1.017891  0  0  0.139227  0.121528  0  1.025059  0
H  H15  1  0.08420906  0.01388788  0.67979770  1  0  0.120585  0  0.951033  0  0  0.123871  0  1.021142  0  0  0.127363  0  1.017098  0  0  0.139344  0.121312  0  1.024104  0
H  H16  1  0.72152065  0.51424404  0.17976944  1  0  0.120736  0  0.951417  0  0  0.124169  0  1.022035  0  0  0.127761  0  1.017855  0  0  0.139206  0.121556  0  1.025018  0
H  H17  1  0.91586515  0.98605955  0.32016862  1  0  0.12055  0  0.951138  0  0  0.123947  0  1.021158  0  0  0.127442  0  1.017108  0  0  0.139387  0.121384  0  1.024119  0
C  C18  1  0.72036728  0.35239738  0.65843172  1  0  0.046137  0  3.562047  0  0  -0.000999  0  3.824743  0  0  0.007479  0  3.834108  0  0  0.058033  -0.006605  0  3.81889  0
C  C19  1  0.23052324  0.14799011  0.84149280  1  0  0.046556  0  3.562063  0  0  0.001095  0  3.824539  0  0  0.009664  0  3.833901  0  0  0.058958  -0.004575  0  3.818667  0
C  C20  1  0.27962359  0.64761084  0.34159166  1  0  0.046044  0  3.561909  0  0  -0.000915  0  3.824452  0  0  0.007545  0  3.833832  0  0  0.058095  -0.006524  0  3.818585  0
C  C21  1  0.76944852  0.85204294  0.15849611  1  0  0.046605  0  3.562662  0  0  0.001257  0  3.82501  0  0  0.009823  0  3.834385  0  0  0.059124  -0.004417  0  3.819128  0
C  C22  1  0.69499676  0.39760423  0.56084766  1  0  -0.10436  0  3.670135  0  0  -0.127026  0  3.927547  0  0  -0.132816  0  3.944945  0  0  -0.058979  -0.123437  0  3.916087  0
C  C23  1  0.15330892  0.10244416  0.93904962  1  0  -0.105785  0  3.670171  0  0  -0.129616  0  3.928001  0  0  -0.135473  0  3.945334  0  0  -0.059366  -0.125969  0  3.916549  0
C  C24  1  0.30500846  0.60240032  0.43917115  1  0  -0.104179  0  3.670131  0  0  -0.12688  0  3.927623  0  0  -0.132674  0  3.945035  0  0  -0.058947  -0.123311  0  3.916163  0
C  C25  1  0.84666337  0.89759019  0.06093914  1  0  -0.105896  0  3.670498  0  0  -0.12968  0  3.928372  0  0  -0.135541  0  3.945703  0  0  -0.059492  -0.126041  0  3.91693  0
C  C26  1  0.51380151  0.47706566  0.55208307  1  0  0.11667  0  3.705278  0  0  0.121053  0  3.941738  0  0  0.126074  0  3.960209  0  0  0.028435  0.118026  0  3.928935  0
C  C27  1  0.04288287  0.02290819  0.94788177  1  0  0.116328  0  3.706766  0  0  0.121705  0  3.94174  0  0  0.126622  0  3.960478  0  0  0.028706  0.118752  0  3.928744  0
C  C28  1  0.48619385  0.52293882  0.44793714  1  0  0.116842  0  3.705333  0  0  0.121013  0  3.942009  0  0  0.126037  0  3.960479  0  0  0.028474  0.117972  0  3.929208  0
C  C29  1  0.95712195  0.97709156  0.05209996  1  0  0.115961  0  3.707137  0  0  0.121444  0  3.941999  0  0  0.126364  0  3.960737  0  0  0.02866  0.118483  0  3.929003  0
C  C30  1  0.36117874  0.51057035  0.64791329  1  0  -0.097075  0  3.654388  0  0  -0.118583  0  3.909845  0  0  -0.123866  0  3.927418  0  0  -0.05386  -0.115325  0  3.898154  0
C  C31  1  0.01945678  0.98923625  0.85221458  1  0  -0.093298  0  3.648822  0  0  -0.116012  0  3.905171  0  0  -0.121569  0  3.92316  0  0  -0.051756  -0.112563  0  3.8932  0
C  C32  1  0.63882042  0.48942263  0.35210408  1  0  -0.096923  0  3.654079  0  0  -0.118352  0  3.909546  0  0  -0.123621  0  3.927088  0  0  -0.053722  -0.115096  0  3.897843  0
C  C33  1  0.98057906  0.01073397  0.14776261  1  0  -0.09318  0  3.648827  0  0  -0.115986  0  3.90534  0  0  -0.121528  0  3.923298  0  0  -0.051906  -0.112534  0  3.893356  0
C  C34  1  0.39120520  0.46337311  0.74424201  1  0  0.031228  0  3.585786  0  0  -0.015844  0  3.854029  0  0  -0.007938  0  3.864188  0  0  0.058564  -0.020881  0  3.847424  0
C  C35  1  0.09866823  0.03628569  0.75575562  1  0  0.034444  0  3.57955  0  0  -0.011733  0  3.847385  0  0  -0.003881  0  3.857804  0  0  0.061102  -0.01672  0  3.840577  0
C  C36  1  0.60879755  0.53662000  0.25577230  1  0  0.031006  0  3.585765  0  0  -0.015955  0  3.85401  0  0  -0.008048  0  3.864177  0  0  0.058542  -0.020991  0  3.847382  0
C  C37  1  0.90137467  0.96368068  0.24422089  1  0  0.034632  0  3.579713  0  0  -0.011719  0  3.847682  0  0  -0.003855  0  3.858079  0  0  0.061186  -0.01671  0  3.840866  0
N  N38  1  0.82502780  0.57207397  0.90077716  1  0  0.690027  0  4.146393  0  0  0.729  0  4.438972  0  0  0.760055  0  4.443817  0  0  0.0992  0.709451  0  4.434893  0
N  N39  1  0.79704992  0.92799913  0.59990497  1  0  0.694199  0  4.146246  0  0  0.745678  0  4.421888  0  0  0.76324  0  4.44616  0  0  0.09909  0.72405  0  4.418928  0
N  N40  1  0.17495203  0.42793602  0.09923565  1  0  0.690139  0  4.146591  0  0  0.729026  0  4.439287  0  0  0.760059  0  4.444186  0  0  0.099225  0.709463  0  4.435204  0
N  N41  1  0.20295324  0.07199920  0.40007945  1  0  0.693797  0  4.146407  0  0  0.745572  0  4.421634  0  0  0.763217  0  4.445771  0  0  0.098951  0.723947  0  4.41867  0
N  N42  1  0.56932181  0.38286058  0.74823783  1  0  0.276337  0  3.667287  0  0  0.335706  0  3.937325  0  0  0.337102  0  3.9571  0  0  -0.10585  0.333949  0  3.924046  0
N  N43  1  0.19999208  0.11703482  0.75178089  1  0  0.277259  0  3.667473  0  0  0.334746  0  3.938875  0  0  0.336011  0  3.958806  0  0  -0.10644  0.333093  0  3.925509  0
N  N44  1  0.43068146  0.61713621  0.25178083  1  0  0.276506  0  3.667558  0  0  0.335822  0  3.93757  0  0  0.33722  0  3.957351  0  0  -0.105727  0.334066  0  3.924268  0
N  N45  1  0.80002053  0.88295976  0.24820078  1  0  0.276901  0  3.667655  0  0  0.33446  0  3.939068  0  0  0.335722  0  3.959003  0  0  -0.106616  0.332809  0  3.925685  0
O  O46  1  0.36283910  0.67739980  0.93746055  1  0  -0.705313  0  1.609459  0  0  -0.708414  0  1.891532  0  0  -0.731912  0  1.882385  0  0  -0.766926  -0.694158  0  1.898055  0
O  O47  1  0.47712974  0.82261843  0.56236380  1  0  -0.711261  0  1.609087  0  0  -0.712917  0  1.890715  0  0  -0.73586  0  1.881552  0  0  -0.769088  -0.699012  0  1.897362  0
O  O48  1  0.63715202  0.32260099  0.06255534  1  0  -0.705256  0  1.609562  0  0  -0.708346  0  1.891627  0  0  -0.731855  0  1.882498  0  0  -0.76692  -0.694091  0  1.898155  0
O  O49  1  0.52288423  0.17738029  0.43761215  1  0  -0.711127  0  1.608877  0  0  -0.712794  0  1.890515  0  0  -0.735736  0  1.881353  0  0  -0.768935  -0.69889  0  1.897163  0
O  O50  1  0.80756097  0.46021106  0.85506265  1  0  -0.491746  0  1.826414  0  0  -0.504347  0  2.067054  0  0  -0.527573  0  2.065297  0  0  -0.205099  -0.48839  0  2.067586  0
O  O51  1  0.62191818  0.03957485  0.64568756  1  0  -0.494446  0  1.828609  0  0  -0.509242  0  2.063621  0  0  -0.527563  0  2.06693  0  0  -0.204341  -0.49284  0  2.064443  0
O  O52  1  0.19244491  0.53975660  0.14497137  1  0  -0.491769  0  1.826591  0  0  -0.504352  0  2.06726  0  0  -0.527572  0  2.065523  0  0  -0.205111  -0.48839  0  2.067783  0
O  O53  1  0.37808735  0.96043690  0.35428611  1  0  -0.494347  0  1.828646  0  0  -0.509219  0  2.063534  0  0  -0.527562  0  2.066804  0  0  -0.204264  -0.492814  0  2.064345  0
O  O54  1  0.69726250  0.64666132  0.99413889  1  0  -0.497046  0  1.798518  0  0  -0.505348  0  2.034258  0  0  -0.528567  0  2.030396  0  0  -0.207113  -0.489313  0  2.036162  0
O  O55  1  0.83769677  0.85375001  0.50635904  1  0  -0.500125  0  1.799305  0  0  -0.511975  0  2.030668  0  0  -0.530506  0  2.031873  0  0  -0.207539  -0.495336  0  2.03276  0
O  O56  1  0.30270157  0.35337488  0.00586607  1  0  -0.496971  0  1.79847  0  0  -0.505267  0  2.034285  0  0  -0.528481  0  2.030441  0  0  -0.207081  -0.489233  0  2.036187  0
O  O57  1  0.16231463  0.14623788  0.49362762  1  0  -0.499973  0  1.79928  0  0  -0.511979  0  2.030593  0  0  -0.530529  0  2.03176  0  0  -0.207521  -0.49535  0  2.032691  0
O  O58  1  0.95398419  0.60609772  0.85878562  1  0  -0.379465  0  1.755626  0  0  -0.368043  0  1.947505  0  0  -0.381309  0  1.941054  0  0  -0.135489  -0.358971  0  1.951618  0
O  O59  1  0.91792767  0.89379572  0.64200553  1  0  -0.383275  0  1.753141  0  0  -0.375703  0  1.94016  0  0  -0.384265  0  1.939399  0  0  -0.137446  -0.365955  0  1.944633  0
O  O60  1  0.04599009  0.39391532  0.14121691  1  0  -0.379624  0  1.755476  0  0  -0.368169  0  1.947421  0  0  -0.381424  0  1.940974  0  0  -0.135574  -0.359095  0  1.951535  0
O  O61  1  0.08206537  0.10620095  0.35798721  1  0  -0.383121  0  1.753143  0  0  -0.375627  0  1.940054  0  0  -0.384252  0  1.939288  0  0  -0.137429  -0.365902  0  1.944544  0
O  O62  1  0.59838279  0.32650212  0.83976376  1  0  -0.535267  0  1.860983  0  0  -0.538629  0  2.130606  0  0  -0.572227  0  2.134694  0  0  -0.295644  -0.514339  0  2.126604  0
O  O63  1  0.26507511  0.17282570  0.66029930  1  0  -0.531532  0  1.863758  0  0  -0.537507  0  2.134665  0  0  -0.571858  0  2.139374  0  0  -0.295264  -0.512894  0  2.130456  0
O  O64  1  0.40161299  0.67349712  0.16025800  1  0  -0.535482  0  1.861134  0  0  -0.538844  0  2.130777  0  0  -0.572446  0  2.134867  0  0  -0.295833  -0.514558  0  2.126777  0
O  O65  1  0.73493522  0.82716627  0.33968293  1  0  -0.531256  0  1.863542  0  0  -0.537331  0  2.134513  0  0  -0.571674  0  2.139203  0  0  -0.295166  -0.512722  0  2.130304  0
