# generated using pymatgen
data_BaH12C8S2N4O7
_symmetry_space_group_name_H-M   'P 1'
_cell_length_a   9.08903924
_cell_length_b   9.24405256
_cell_length_c   10.18594045
_cell_angle_alpha   105.47561077
_cell_angle_beta   97.88059161
_cell_angle_gamma   104.25766152
_symmetry_Int_Tables_number   1
_chemical_formula_structural   BaH12C8S2N4O7
_chemical_formula_sum   'Ba2 H24 C16 S4 N8 O14'
_cell_volume   780.31112254
_cell_formula_units_Z   2
loop_
 _symmetry_equiv_pos_site_id
 _symmetry_equiv_pos_as_xyz
  1  'x, y, z'
loop_
 _atom_site_type_symbol
 _atom_site_label
 _atom_site_symmetry_multiplicity
 _atom_site_fract_x
 _atom_site_fract_y
 _atom_site_fract_z
 _atom_site_occupancy
 _atom_site_hle17_bader_spin_density
 _atom_site_hle17_ddec_charge
 _atom_site_hle17_ddec_spin_density
 _atom_site_hle17_ddec_sum_bond_order
 _atom_site_hle17_magmom
 _atom_site_hse06_10hf_bader_spin_density
 _atom_site_hse06_10hf_ddec_charge
 _atom_site_hse06_10hf_ddec_spin_density
 _atom_site_hse06_10hf_ddec_sum_bond_order
 _atom_site_hse06_10hf_magmom
 _atom_site_hse06_bader_spin_density
 _atom_site_hse06_ddec_charge
 _atom_site_hse06_ddec_spin_density
 _atom_site_hse06_ddec_sum_bond_order
 _atom_site_hse06_magmom
 _atom_site_pbe_bader_spin_density
 _atom_site_pbe_cm5_charge
 _atom_site_pbe_ddec_charge
 _atom_site_pbe_ddec_spin_density
 _atom_site_pbe_ddec_sum_bond_order
 _atom_site_pbe_magmom
Ba  Ba0  1  0.19347440  0.48788201  0.63620252  1  0  1.610206  0  1.113488  0  0  1.461617  0  1.502716  0  0  1.500316  0  1.460158  0  0  0.850103  1.433282  0  1.532744  0
Ba  Ba1  1  0.80653001  0.51211796  0.36379901  1  0  1.610229  0  1.113441  0  0  1.461622  0  1.50272  0  0  1.50032  0  1.460161  0  0  0.850124  1.433287  0  1.53275  0
H  H2  1  0.40388597  0.56365670  0.98378165  1  0  0.321766  0  0.927491  0  0  0.296527  0  0.997686  0  0  0.307199  0  0.988659  0  0  0.308117  0.289115  0  1.003978  0
H  H3  1  0.59611638  0.43633973  0.01621581  1  0  0.321807  0  0.927529  0  0  0.296509  0  0.997782  0  0  0.307208  0  0.988732  0  0  0.308126  0.289097  0  1.004076  0
H  H4  1  0.07054523  0.68383862  0.19082968  1  0  0.322327  0  0.921891  0  0  0.296482  0  0.994489  0  0  0.307084  0  0.985252  0  0  0.307131  0.289117  0  1.000754  0
H  H5  1  0.92946508  0.31616610  0.80916691  1  0  0.322269  0  0.921806  0  0  0.296441  0  0.994422  0  0  0.307036  0  0.985169  0  0  0.307091  0.289095  0  1.000682  0
H  H6  1  0.37974013  0.48052548  0.36997687  1  0  0.146761  0  0.982908  0  0  0.157081  0  1.042702  0  0  0.16229  0  1.040458  0  0  0.119011  0.153286  0  1.044972  0
H  H7  1  0.62025715  0.51947673  0.63002324  1  0  0.146768  0  0.982831  0  0  0.157065  0  1.042654  0  0  0.162275  0  1.040407  0  0  0.118994  0.153272  0  1.044932  0
H  H8  1  0.05551764  0.23561984  0.99602437  1  0  0.2889  0  0.933497  0  0  0.263512  0  1.014456  0  0  0.272705  0  1.007523  0  0  0.282665  0.257161  0  1.01938  0
H  H9  1  0.94448016  0.76438472  0.00398423  1  0  0.288851  0  0.933589  0  0  0.263477  0  1.014527  0  0  0.272668  0  1.007593  0  0  0.282668  0.257123  0  1.019457  0
H  H10  1  0.40032603  0.03089287  0.05724702  1  0  0.329346  0  0.916037  0  0  0.301618  0  0.989051  0  0  0.312203  0  0.980083  0  0  0.304566  0.294068  0  0.995718  0
H  H11  1  0.59967726  0.96911059  0.94274832  1  0  0.329345  0  0.916002  0  0  0.301588  0  0.989056  0  0  0.31217  0  0.980095  0  0  0.304543  0.294039  0  0.995728  0
H  H12  1  0.30910391  0.14241447  0.68175684  1  0  0.161246  0  0.956464  0  0  0.169627  0  1.016472  0  0  0.175369  0  1.013367  0  0  0.113103  0.165821  0  1.018395  0
H  H13  1  0.69087422  0.85757460  0.31823263  1  0  0.161281  0  0.956526  0  0  0.169603  0  1.016583  0  0  0.175341  0  1.013475  0  0  0.113093  0.165798  0  1.018508  0
H  H14  1  0.90969224  0.17130645  0.37733667  1  0  0.411887  0  0.84198  0  0  0.392192  0  0.903521  0  0  0.400504  0  0.89422  0  0  0.319465  0.386058  0  0.910397  0
H  H15  1  0.09031626  0.82869240  0.62266712  1  0  0.411851  0  0.842051  0  0  0.392161  0  0.903573  0  0  0.400473  0  0.89427  0  0  0.319475  0.386033  0  0.910443  0
H  H16  1  0.02577617  0.23134407  0.29198586  1  0  0.380713  0  0.93365  0  0  0.349948  0  1.00428  0  0  0.360345  0  0.989473  0  0  0.266041  0.342553  0  1.014873  0
H  H17  1  0.97423024  0.76865125  0.70801582  1  0  0.380766  0  0.93356  0  0  0.349997  0  1.004202  0  0  0.360394  0  0.989399  0  0  0.266077  0.342601  0  1.014799  0
H  H18  1  0.44541441  0.27797009  0.48357491  1  0  0.425342  0  0.873817  0  0  0.39648  0  0.934946  0  0  0.406804  0  0.919831  0  0  0.291019  0.3892  0  0.945536  0
H  H19  1  0.55458859  0.72202518  0.51643023  1  0  0.425408  0  0.873721  0  0  0.396508  0  0.934926  0  0  0.406836  0  0.919802  0  0  0.291026  0.389228  0  0.945511  0
H  H20  1  0.28207362  0.22887126  0.39415203  1  0  0.380547  0  0.941707  0  0  0.354344  0  1.000987  0  0  0.364231  0  0.986542  0  0  0.263864  0.347613  0  1.010955  0
H  H21  1  0.71792986  0.77112987  0.60585751  1  0  0.380522  0  0.941756  0  0  0.354296  0  1.001074  0  0  0.364183  0  0.986626  0  0  0.26384  0.347562  0  1.011038  0
H  H22  1  0.43213992  0.86437314  0.68416256  1  0  0.431238  0  0.871725  0  0  0.396258  0  0.941101  0  0  0.40763  0  0.924534  0  0  0.291435  0.388246  0  0.952658  0
H  H23  1  0.56786009  0.13562676  0.31583443  1  0  0.431242  0  0.871706  0  0  0.396249  0  0.941099  0  0  0.407625  0  0.924525  0  0  0.291453  0.388243  0  0.952647  0
H  H24  1  0.31550493  0.76414971  0.53555264  1  0  0.408943  0  0.875376  0  0  0.385598  0  0.937356  0  0  0.394636  0  0.924075  0  0  0.306024  0.379126  0  0.946892  0
H  H25  1  0.68449515  0.23584669  0.46444746  1  0  0.408941  0  0.875399  0  0  0.385605  0  0.937346  0  0  0.394642  0  0.924063  0  0  0.306054  0.379133  0  0.946879  0
C  C26  1  0.23193801  0.63458799  0.07347910  1  0  0.509438  0  3.76399  0  0  0.461661  0  4.06465  0  0  0.490945  0  4.06801  0  0  0.256514  0.441113  0  4.061756  0
C  C27  1  0.76807274  0.36541439  0.92651797  1  0  0.509468  0  3.764201  0  0  0.461704  0  4.064812  0  0  0.490997  0  4.068165  0  0  0.256471  0.441185  0  4.061924  0
C  C28  1  0.21418458  0.58778260  0.29513942  1  0  0.598507  0  3.894493  0  0  0.555867  0  4.172893  0  0  0.586378  0  4.175322  0  0  0.215227  0.535642  0  4.170723  0
C  C29  1  0.78582294  0.41222444  0.70486323  1  0  0.598516  0  3.894319  0  0  0.555902  0  4.172729  0  0  0.586394  0  4.175151  0  0  0.215236  0.535704  0  4.170558  0
C  C30  1  0.34130669  0.52847413  0.28980882  1  0  -0.49612  0  3.705673  0  0  -0.517405  0  3.974404  0  0  -0.540963  0  3.99049  0  0  -0.140891  -0.501829  0  3.964395  0
C  C31  1  0.65869006  0.47153042  0.71019571  1  0  -0.496213  0  3.705594  0  0  -0.517493  0  3.974348  0  0  -0.541045  0  3.990422  0  0  -0.140901  -0.501925  0  3.964338  0
C  C32  1  0.41749760  0.52518411  0.17889311  1  0  0.618754  0  3.852846  0  0  0.572403  0  4.139836  0  0  0.603164  0  4.14222  0  0  0.218295  0.551236  0  4.138024  0
C  C33  1  0.58251866  0.47481016  0.82110181  1  0  0.619005  0  3.852517  0  0  0.572627  0  4.139492  0  0  0.60341  0  4.141879  0  0  0.218301  0.551464  0  4.137668  0
C  C34  1  0.22039650  0.12910563  0.04212043  1  0  0.500582  0  3.773121  0  0  0.452731  0  4.070157  0  0  0.481243  0  4.075455  0  0  0.251932  0.434  0  4.06714  0
C  C35  1  0.77959176  0.87089997  0.95787828  1  0  0.50057  0  3.772824  0  0  0.452621  0  4.070039  0  0  0.481136  0  4.075335  0  0  0.251792  0.43389  0  4.067026  0
C  C36  1  0.36964420  0.07316841  0.86414078  1  0  0.60594  0  3.869276  0  0  0.555656  0  4.16178  0  0  0.586584  0  4.163348  0  0  0.213768  0.534862  0  4.159875  0
C  C37  1  0.63033074  0.92684051  0.13584610  1  0  0.606075  0  3.869401  0  0  0.555699  0  4.161993  0  0  0.586648  0  4.163538  0  0  0.213771  0.53491  0  4.160093  0
C  C38  1  0.28314580  0.13643995  0.78169950  1  0  -0.512474  0  3.695714  0  0  -0.534732  0  3.969978  0  0  -0.557674  0  3.983243  0  0  -0.150163  -0.519829  0  3.960485  0
C  C39  1  0.71684754  0.86354816  0.21829574  1  0  -0.512533  0  3.695536  0  0  -0.534715  0  3.969831  0  0  -0.557644  0  3.983092  0  0  -0.150121  -0.519814  0  3.960336  0
C  C40  1  0.17363819  0.20657923  0.83344381  1  0  0.613831  0  3.876269  0  0  0.569451  0  4.160474  0  0  0.600483  0  4.161881  0  0  0.214596  0.548364  0  4.158636  0
C  C41  1  0.82634142  0.79341923  0.16655006  1  0  0.613729  0  3.876594  0  0  0.569388  0  4.160735  0  0  0.600393  0  4.16218  0  0  0.21455  0.548306  0  4.158893  0
S  S42  1  0.15975141  0.69336197  0.94145478  1  0  -0.492505  0  1.902506  0  0  -0.487207  0  2.241105  0  0  -0.502205  0  2.23315  0  0  -0.184563  -0.475832  0  2.247625  0
S  S43  1  0.84025530  0.30663803  0.05854314  1  0  -0.492511  0  1.902458  0  0  -0.487226  0  2.241059  0  0  -0.502223  0  2.233102  0  0  -0.184572  -0.475848  0  2.247566  0
S  S44  1  0.16233913  0.09485960  0.18441238  1  0  -0.458825  0  1.946127  0  0  -0.438158  0  2.25071  0  0  -0.453973  0  2.242322  0  0  -0.167948  -0.428546  0  2.25901  0
S  S45  1  0.83767111  0.90514512  0.81558813  1  0  -0.458784  0  1.946012  0  0  -0.438062  0  2.250658  0  0  -0.453877  0  2.242274  0  0  -0.167856  -0.428447  0  2.258949  0
N  N46  1  0.35583510  0.57743004  0.07285446  1  0  -0.468445  0  3.285314  0  0  -0.400094  0  3.522105  0  0  -0.424223  0  3.52631  0  0  -0.377648  -0.383352  0  3.519488  0
N  N47  1  0.64416829  0.42257460  0.92715394  1  0  -0.468663  0  3.285422  0  0  -0.400172  0  3.522069  0  0  -0.424426  0  3.526403  0  0  -0.377646  -0.383426  0  3.519438  0
N  N48  1  0.16822761  0.64351010  0.18682429  1  0  -0.465667  0  3.326508  0  0  -0.397562  0  3.561961  0  0  -0.421406  0  3.565949  0  0  -0.378756  -0.381346  0  3.558164  0
N  N49  1  0.83177358  0.35650621  0.81318265  1  0  -0.4655  0  3.326715  0  0  -0.397487  0  3.562211  0  0  -0.42125  0  3.566136  0  0  -0.37856  -0.381365  0  3.558487  0
N  N50  1  0.14853796  0.20055555  0.96456277  1  0  -0.460279  0  3.360428  0  0  -0.394108  0  3.594112  0  0  -0.418263  0  3.600503  0  0  -0.382988  -0.377349  0  3.589104  0
N  N51  1  0.85146538  0.79944090  0.03544171  1  0  -0.460119  0  3.360078  0  0  -0.393949  0  3.593819  0  0  -0.41809  0  3.600211  0  0  -0.382957  -0.37719  0  3.588808  0
N  N52  1  0.33554466  0.07689880  0.99446066  1  0  -0.460238  0  3.304708  0  0  -0.392286  0  3.542967  0  0  -0.416528  0  3.547778  0  0  -0.375893  -0.376609  0  3.540611  0
N  N53  1  0.66445645  0.92310112  0.00553747  1  0  -0.460348  0  3.304979  0  0  -0.392317  0  3.543331  0  0  -0.416567  0  3.548149  0  0  -0.375862  -0.376647  0  3.540979  0
O  O54  1  0.13727759  0.59719824  0.39227991  1  0  -0.715379  0  1.970963  0  0  -0.645399  0  2.205992  0  0  -0.670696  0  2.197672  0  0  -0.379214  -0.62747  0  2.211078  0
O  O55  1  0.86272474  0.40280989  0.60771935  1  0  -0.715306  0  1.970925  0  0  -0.645319  0  2.205918  0  0  -0.670622  0  2.197616  0  0  -0.379173  -0.627387  0  2.210987  0
O  O56  1  0.53646508  0.47684161  0.16721519  1  0  -0.655053  0  1.968458  0  0  -0.595734  0  2.204103  0  0  -0.620398  0  2.197236  0  0  -0.348982  -0.578176  0  2.207999  0
O  O57  1  0.46352806  0.52315001  0.83278479  1  0  -0.655251  0  1.967936  0  0  -0.595929  0  2.203544  0  0  -0.620592  0  2.196671  0  0  -0.349053  -0.578367  0  2.207436  0
O  O58  1  0.47544832  0.01190574  0.82935569  1  0  -0.614065  0  2.002494  0  0  -0.554005  0  2.224484  0  0  -0.577101  0  2.214705  0  0  -0.311526  -0.537533  0  2.230133  0
O  O59  1  0.52455259  0.98809300  0.17063525  1  0  -0.614024  0  2.003258  0  0  -0.553889  0  2.225244  0  0  -0.577012  0  2.21547  0  0  -0.311487  -0.537443  0  2.230906  0
O  O60  1  0.09524624  0.27484652  0.77095675  1  0  -0.671596  0  2.003586  0  0  -0.61185  0  2.241364  0  0  -0.63585  0  2.231788  0  0  -0.371209  -0.594484  0  2.247238  0
O  O61  1  0.90473956  0.72514266  0.22904067  1  0  -0.6717  0  2.003351  0  0  -0.611991  0  2.241177  0  0  -0.635986  0  2.231612  0  0  -0.371284  -0.594605  0  2.247015  0
O  O62  1  0.97464143  0.26873150  0.36987148  1  0  -0.849323  0  1.888994  0  0  -0.792757  0  2.069825  0  0  -0.81236  0  2.044706  0  0  -0.591297  -0.778611  0  2.08713  0
O  O63  1  0.02536570  0.73126616  0.63012791  1  0  -0.849339  0  1.888965  0  0  -0.792772  0  2.069872  0  0  -0.81238  0  2.044735  0  0  -0.591353  -0.778629  0  2.087173  0
O  O64  1  0.34023164  0.28670058  0.49141807  1  0  -0.873938  0  1.8345  0  0  -0.81874  0  1.996268  0  0  -0.838526  0  1.966679  0  0  -0.631436  -0.804883  0  2.016472  0
O  O65  1  0.65977021  0.71329468  0.50858887  1  0  -0.873998  0  1.834338  0  0  -0.818757  0  1.996129  0  0  -0.838548  0  1.966539  0  0  -0.631432  -0.804888  0  2.016368  0
O  O66  1  0.39884607  0.76163870  0.60603585  1  0  -0.87238  0  1.849634  0  0  -0.809012  0  2.021535  0  0  -0.829929  0  1.991777  0  0  -0.60039  -0.794012  0  2.042061  0
O  O67  1  0.60115721  0.23836126  0.39396651  1  0  -0.872337  0  1.849678  0  0  -0.80899  0  2.02156  0  0  -0.829904  0  1.991794  0  0  -0.600398  -0.793991  0  2.042081  0
