# generated using pymatgen
data_ZnH10(C2O)4
_symmetry_space_group_name_H-M   'P 1'
_cell_length_a   6.07351439
_cell_length_b   8.39434351
_cell_length_c   16.19075047
_cell_angle_alpha   102.44103783
_cell_angle_beta   89.99993239
_cell_angle_gamma   89.99984570
_symmetry_Int_Tables_number   1
_chemical_formula_structural   ZnH10(C2O)4
_chemical_formula_sum   'Zn4 H40 C32 O16'
_cell_volume   806.07255489
_cell_formula_units_Z   4
loop_
 _symmetry_equiv_pos_site_id
 _symmetry_equiv_pos_as_xyz
  1  'x, y, z'
loop_
 _atom_site_type_symbol
 _atom_site_label
 _atom_site_symmetry_multiplicity
 _atom_site_fract_x
 _atom_site_fract_y
 _atom_site_fract_z
 _atom_site_occupancy
 _atom_site_hle17_bader_spin_density
 _atom_site_hle17_ddec_charge
 _atom_site_hle17_ddec_spin_density
 _atom_site_hle17_ddec_sum_bond_order
 _atom_site_hle17_magmom
 _atom_site_hse06_10hf_bader_spin_density
 _atom_site_hse06_10hf_ddec_charge
 _atom_site_hse06_10hf_ddec_spin_density
 _atom_site_hse06_10hf_ddec_sum_bond_order
 _atom_site_hse06_10hf_magmom
 _atom_site_hse06_bader_spin_density
 _atom_site_hse06_ddec_charge
 _atom_site_hse06_ddec_spin_density
 _atom_site_hse06_ddec_sum_bond_order
 _atom_site_hse06_magmom
 _atom_site_pbe_bader_spin_density
 _atom_site_pbe_cm5_charge
 _atom_site_pbe_ddec_charge
 _atom_site_pbe_ddec_spin_density
 _atom_site_pbe_ddec_sum_bond_order
 _atom_site_pbe_magmom
Zn  Zn0  1  0.75250667  0.90917316  0.98785378  1  0  1.129859  0  1.799257  0  0  0.950904  0  2.294626  0  0  1.003418  0  2.22446  0  0  0.694071  0.913887  0  2.342183  0
Zn  Zn1  1  0.25254963  0.09083841  0.51214491  1  0  1.129895  0  1.799194  0  0  0.950933  0  2.294536  0  0  1.003445  0  2.22437  0  0  0.694092  0.913916  0  2.342099  0
Zn  Zn2  1  0.24745786  0.09084869  0.01214206  1  0  1.129933  0  1.799024  0  0  0.951061  0  2.294328  0  0  1.003576  0  2.224167  0  0  0.694204  0.914047  0  2.341882  0
Zn  Zn3  1  0.74747582  0.90916146  0.48785464  1  0  1.12992  0  1.799093  0  0  0.95106  0  2.294366  0  0  1.003571  0  2.224209  0  0  0.694174  0.914047  0  2.341916  0
H  H4  1  0.09987215  0.19636955  0.28651163  1  0  0.076921  0  0.929383  0  0  0.097969  0  0.986711  0  0  0.098484  0  0.987776  0  0  0.093519  0.097748  0  0.985645  0
H  H5  1  0.59987000  0.80362145  0.21347556  1  0  0.076944  0  0.929373  0  0  0.098064  0  0.986571  0  0  0.098582  0  0.987632  0  0  0.093546  0.09784  0  0.98551  0
H  H6  1  0.90013354  0.80361937  0.71347865  1  0  0.076993  0  0.929311  0  0  0.098067  0  0.986583  0  0  0.098586  0  0.987642  0  0  0.093561  0.097846  0  0.98552  0
H  H7  1  0.40013075  0.19637477  0.78652110  1  0  0.076939  0  0.929356  0  0  0.09806  0  0.986582  0  0  0.098578  0  0.987642  0  0  0.093559  0.097838  0  0.985522  0
H  H8  1  0.15897445  0.36377679  0.24011418  1  0  0.064863  0  0.966454  0  0  0.07975  0  1.037544  0  0  0.081059  0  1.037196  0  0  0.087973  0.07909  0  1.037294  0
H  H9  1  0.65897768  0.63621530  0.25987187  1  0  0.064897  0  0.966398  0  0  0.079755  0  1.037513  0  0  0.081073  0  1.037158  0  0  0.087958  0.079122  0  1.037234  0
H  H10  1  0.84101972  0.63621212  0.75987981  1  0  0.064847  0  0.966506  0  0  0.079732  0  1.0376  0  0  0.081043  0  1.037249  0  0  0.087981  0.079081  0  1.03734  0
H  H11  1  0.34101813  0.36377363  0.74011533  1  0  0.064876  0  0.966377  0  0  0.079742  0  1.037517  0  0  0.081056  0  1.037158  0  0  0.087962  0.079102  0  1.037242  0
H  H12  1  0.11414989  0.45609922  0.39760887  1  0  0.075791  0  0.946272  0  0  0.088984  0  1.016236  0  0  0.090263  0  1.016037  0  0  0.091231  0.087706  0  1.016933  0
H  H13  1  0.61413093  0.54389053  0.10237694  1  0  0.075822  0  0.946218  0  0  0.089045  0  1.016156  0  0  0.090324  0  1.015959  0  0  0.091258  0.087766  0  1.016862  0
H  H14  1  0.88585909  0.54389213  0.60238416  1  0  0.075784  0  0.946301  0  0  0.088964  0  1.016284  0  0  0.090244  0  1.016083  0  0  0.09122  0.087684  0  1.016981  0
H  H15  1  0.38585171  0.45610816  0.89761074  1  0  0.07582  0  0.946345  0  0  0.089007  0  1.01631  0  0  0.090285  0  1.016113  0  0  0.091245  0.087729  0  1.017004  0
H  H16  1  0.90891538  0.54275554  0.34360088  1  0  0.07285  0  0.936764  0  0  0.091003  0  1.00088  0  0  0.091945  0  1.000902  0  0  0.090547  0.090291  0  1.000548  0
H  H17  1  0.40890056  0.45724693  0.15639180  1  0  0.072889  0  0.936823  0  0  0.090999  0  1.001011  0  0  0.091951  0  1.001015  0  0  0.090563  0.090291  0  1.000675  0
H  H18  1  0.09109526  0.45724190  0.65639592  1  0  0.072884  0  0.936751  0  0  0.09099  0  1.000926  0  0  0.091934  0  1.000941  0  0  0.090563  0.09028  0  1.00059  0
H  H19  1  0.59107879  0.54275785  0.84359903  1  0  0.072885  0  0.936764  0  0  0.091031  0  1.000876  0  0  0.09197  0  1.0009  0  0  0.090546  0.090317  0  1.000543  0
H  H20  1  0.46214321  0.24731007  0.37808691  1  0  0.073453  0  0.951572  0  0  0.090434  0  1.016855  0  0  0.091546  0  1.016715  0  0  0.088662  0.089529  0  1.017131  0
H  H21  1  0.96212674  0.75270808  0.12192604  1  0  0.07349  0  0.951611  0  0  0.090306  0  1.017024  0  0  0.091409  0  1.016906  0  0  0.088679  0.089403  0  1.017294  0
H  H22  1  0.53787236  0.75268611  0.62191963  1  0  0.073498  0  0.951606  0  0  0.090393  0  1.016954  0  0  0.091503  0  1.016826  0  0  0.088701  0.089489  0  1.017226  0
H  H23  1  0.03784932  0.24730762  0.87808517  1  0  0.073514  0  0.951585  0  0  0.090425  0  1.01693  0  0  0.091532  0  1.016803  0  0  0.088681  0.089521  0  1.017204  0
H  H24  1  0.51135995  0.42073063  0.33539792  1  0  0.065964  0  0.944842  0  0  0.08508  0  1.008979  0  0  0.085507  0  1.00992  0  0  0.088346  0.084509  0  1.008533  0
H  H25  1  0.01134138  0.57928126  0.16460772  1  0  0.06598  0  0.944799  0  0  0.084996  0  1.00901  0  0  0.085463  0  1.0099  0  0  0.088316  0.084427  0  1.008559  0
H  H26  1  0.48864903  0.57926435  0.66460602  1  0  0.065907  0  0.94486  0  0  0.085052  0  1.008948  0  0  0.085509  0  1.009852  0  0  0.088377  0.08448  0  1.008499  0
H  H27  1  0.98864949  0.42072591  0.83539697  1  0  0.065949  0  0.944852  0  0  0.085037  0  1.009031  0  0  0.0855  0  1.009925  0  0  0.088344  0.084466  0  1.008583  0
H  H28  1  0.70044230  0.07696086  0.27096692  1  0  0.077541  0  0.940815  0  0  0.095939  0  1.001526  0  0  0.096906  0  1.001778  0  0  0.090026  0.095183  0  1.001031  0
H  H29  1  0.20045357  0.92304571  0.22903927  1  0  0.077537  0  0.940821  0  0  0.095915  0  1.001478  0  0  0.096884  0  1.001729  0  0  0.090014  0.095164  0  1.000989  0
H  H30  1  0.29956010  0.92303169  0.72903242  1  0  0.077629  0  0.940785  0  0  0.096028  0  1.001473  0  0  0.096998  0  1.001722  0  0  0.090066  0.095274  0  1.000981  0
H  H31  1  0.79956200  0.07695536  0.77096535  1  0  0.077495  0  0.940829  0  0  0.09591  0  1.0015  0  0  0.096879  0  1.00175  0  0  0.09002  0.095157  0  1.00101  0
H  H32  1  0.49790380  0.17185845  0.22037964  1  0  0.070514  0  0.938828  0  0  0.087388  0  1.003656  0  0  0.088325  0  1.003743  0  0  0.088161  0.086748  0  1.003414  0
H  H33  1  0.99792110  0.82814376  0.27963212  1  0  0.07054  0  0.938826  0  0  0.087311  0  1.003706  0  0  0.088245  0  1.003798  0  0  0.088179  0.08668  0  1.003466  0
H  H34  1  0.50208707  0.82814263  0.77962437  1  0  0.070481  0  0.938856  0  0  0.087298  0  1.003753  0  0  0.088231  0  1.003847  0  0  0.08818  0.086665  0  1.003506  0
H  H35  1  0.00209612  0.17185364  0.72037703  1  0  0.070523  0  0.938741  0  0  0.087363  0  1.003603  0  0  0.0883  0  1.003693  0  0  0.088191  0.086731  0  1.00336  0
H  H36  1  0.73876345  0.45257251  0.45835687  1  0  0.094564  0  0.903709  0  0  0.109459  0  0.954685  0  0  0.111414  0  0.954432  0  0  0.109879  0.107596  0  0.955702  0
H  H37  1  0.23871741  0.54743764  0.04164539  1  0  0.094634  0  0.90363  0  0  0.109482  0  0.954639  0  0  0.111442  0  0.954377  0  0  0.109877  0.107618  0  0.955661  0
H  H38  1  0.26126036  0.54742248  0.54164274  1  0  0.094594  0  0.903605  0  0  0.109463  0  0.9546  0  0  0.111423  0  0.954338  0  0  0.109841  0.107599  0  0.955619  0
H  H39  1  0.76125041  0.45258419  0.95835663  1  0  0.094583  0  0.903612  0  0  0.109463  0  0.95462  0  0  0.111423  0  0.954358  0  0  0.10983  0.107598  0  0.955636  0
H  H40  1  0.76894257  0.38609405  0.20250909  1  0  0.074398  0  0.940739  0  0  0.0897  0  1.000052  0  0  0.09037  0  1.001257  0  0  0.104725  0.08939  0  0.99878  0
H  H41  1  0.26896624  0.61391116  0.29749198  1  0  0.074403  0  0.940749  0  0  0.089666  0  1.000124  0  0  0.090337  0  1.001325  0  0  0.104733  0.089357  0  0.998849  0
H  H42  1  0.23104995  0.61390337  0.79749450  1  0  0.074436  0  0.940642  0  0  0.089716  0  0.999943  0  0  0.090387  0  1.001148  0  0  0.104764  0.089408  0  0.998669  0
H  H43  1  0.73104769  0.38608627  0.70250667  1  0  0.07445  0  0.940676  0  0  0.089725  0  1.000048  0  0  0.090395  0  1.00125  0  0  0.104776  0.089416  0  0.998773  0
C  C44  1  0.89025176  0.16712543  0.13043978  1  0  0.711798  0  3.767652  0  0  0.658343  0  4.059161  0  0  0.693811  0  4.051798  0  0  0.232437  0.634363  0  4.063023  0
C  C45  1  0.39029087  0.83284777  0.36956320  1  0  0.71224  0  3.766723  0  0  0.658637  0  4.058452  0  0  0.6941  0  4.05109  0  0  0.23261  0.63466  0  4.062314  0
C  C46  1  0.10971936  0.83285738  0.86955475  1  0  0.711931  0  3.766613  0  0  0.658492  0  4.058129  0  0  0.693956  0  4.050777  0  0  0.232445  0.63451  0  4.061997  0
C  C47  1  0.60972800  0.16713863  0.63045274  1  0  0.711836  0  3.766568  0  0  0.658519  0  4.05794  0  0  0.693992  0  4.050573  0  0  0.232477  0.634534  0  4.061808  0
C  C48  1  0.82752992  0.26987899  0.21611369  1  0  -0.123655  0  3.648034  0  0  -0.121553  0  3.881548  0  0  -0.128402  0  3.897202  0  0  -0.088387  -0.116984  0  3.870817  0
C  C49  1  0.32754005  0.73012122  0.28388186  1  0  -0.123561  0  3.648014  0  0  -0.121461  0  3.88147  0  0  -0.128309  0  3.897128  0  0  -0.088344  -0.116889  0  3.870751  0
C  C50  1  0.17246754  0.73012087  0.78388771  1  0  -0.123571  0  3.648146  0  0  -0.121364  0  3.881478  0  0  -0.12822  0  3.897153  0  0  -0.088332  -0.116797  0  3.870753  0
C  C51  1  0.67246400  0.26987256  0.71611392  1  0  -0.123558  0  3.648293  0  0  -0.121509  0  3.881802  0  0  -0.128357  0  3.897455  0  0  -0.088391  -0.116937  0  3.871081  0
C  C52  1  0.03097282  0.31007853  0.27352624  1  0  -0.120519  0  3.658051  0  0  -0.167343  0  3.916871  0  0  -0.168155  0  3.930965  0  0  -0.165123  -0.167006  0  3.907043  0
C  C53  1  0.53097268  0.68992482  0.22646607  1  0  -0.120681  0  3.658003  0  0  -0.167492  0  3.916821  0  0  -0.16831  0  3.930918  0  0  -0.165192  -0.167167  0  3.906995  0
C  C54  1  0.96903123  0.68992134  0.72647392  1  0  -0.120622  0  3.658138  0  0  -0.167481  0  3.91692  0  0  -0.168289  0  3.931006  0  0  -0.165206  -0.16715  0  3.907096  0
C  C55  1  0.46902807  0.31007507  0.77352854  1  0  -0.120539  0  3.658004  0  0  -0.167424  0  3.916884  0  0  -0.168234  0  3.93097  0  0  -0.165108  -0.1671  0  3.907057  0
C  C56  1  0.96976007  0.42683228  0.35638164  1  0  -0.116025  0  3.662163  0  0  -0.163624  0  3.925447  0  0  -0.163562  0  3.938577  0  0  -0.165261  -0.163625  0  3.916723  0
C  C57  1  0.46974653  0.57316883  0.14361086  1  0  -0.11604  0  3.662235  0  0  -0.163753  0  3.925638  0  0  -0.163689  0  3.938752  0  0  -0.165293  -0.163772  0  3.916941  0
C  C58  1  0.03024398  0.57316516  0.64361516  1  0  -0.116059  0  3.662203  0  0  -0.163671  0  3.925526  0  0  -0.163602  0  3.938641  0  0  -0.16526  -0.163672  0  3.9168  0
C  C59  1  0.53023940  0.42683715  0.85638567  1  0  -0.116119  0  3.662284  0  0  -0.163715  0  3.925631  0  0  -0.163652  0  3.938762  0  0  -0.16532  -0.163717  0  3.916908  0
C  C60  1  0.78639346  0.35617590  0.40353941  1  0  -0.122474  0  3.620348  0  0  -0.119953  0  3.856709  0  0  -0.126945  0  3.87144  0  0  -0.085537  -0.115181  0  3.847261  0
C  C61  1  0.28636831  0.64383294  0.09645836  1  0  -0.122568  0  3.620458  0  0  -0.119972  0  3.85649  0  0  -0.126967  0  3.87123  0  0  -0.085578  -0.115204  0  3.847067  0
C  C62  1  0.21362375  0.64381908  0.59646144  1  0  -0.122596  0  3.62047  0  0  -0.120056  0  3.856655  0  0  -0.12705  0  3.871394  0  0  -0.085569  -0.115286  0  3.847212  0
C  C63  1  0.71361598  0.35618158  0.90354037  1  0  -0.122545  0  3.620441  0  0  -0.120098  0  3.856739  0  0  -0.127091  0  3.871474  0  0  -0.085534  -0.115319  0  3.847276  0
C  C64  1  0.58620642  0.30725737  0.34597447  1  0  -0.109748  0  3.654328  0  0  -0.156515  0  3.910871  0  0  -0.156702  0  3.924861  0  0  -0.166759  -0.156396  0  3.901745  0
C  C65  1  0.08619407  0.69275922  0.15403475  1  0  -0.109713  0  3.654464  0  0  -0.156311  0  3.910783  0  0  -0.156528  0  3.924783  0  0  -0.166779  -0.15618  0  3.901657  0
C  C66  1  0.41380750  0.69274248  0.65403248  1  0  -0.109662  0  3.654288  0  0  -0.156384  0  3.910819  0  0  -0.156588  0  3.924805  0  0  -0.166831  -0.156268  0  3.901701  0
C  C67  1  0.91379516  0.30725405  0.84597125  1  0  -0.109707  0  3.654448  0  0  -0.156413  0  3.910996  0  0  -0.156627  0  3.925  0  0  -0.16676  -0.156296  0  3.90188  0
C  C68  1  0.64476594  0.19578776  0.26078756  1  0  -0.11283  0  3.66048  0  0  -0.159718  0  3.919018  0  0  -0.159854  0  3.93247  0  0  -0.170703  -0.159343  0  3.909629  0
C  C69  1  0.14477760  0.80421772  0.23921915  1  0  -0.112933  0  3.660791  0  0  -0.159585  0  3.918976  0  0  -0.15972  0  3.932429  0  0  -0.170669  -0.159239  0  3.909624  0
C  C70  1  0.35523316  0.80420601  0.73921315  1  0  -0.112864  0  3.66058  0  0  -0.159742  0  3.919074  0  0  -0.159876  0  3.932523  0  0  -0.170736  -0.159368  0  3.909691  0
C  C71  1  0.85523468  0.19578579  0.76078883  1  0  -0.112715  0  3.66041  0  0  -0.159551  0  3.918914  0  0  -0.159689  0  3.932367  0  0  -0.170653  -0.15919  0  3.909546  0
C  C72  1  0.87694089  0.21873871  0.44145647  1  0  0.713927  0  3.761861  0  0  0.658354  0  4.057212  0  0  0.693712  0  4.050413  0  0  0.233522  0.634107  0  4.061259  0
C  C73  1  0.37688409  0.78128943  0.05854899  1  0  0.713422  0  3.762458  0  0  0.658095  0  4.057357  0  0  0.693453  0  4.050553  0  0  0.233453  0.633847  0  4.061398  0
C  C74  1  0.12306974  0.78125263  0.55854088  1  0  0.713539  0  3.762393  0  0  0.658171  0  4.057387  0  0  0.693526  0  4.050589  0  0  0.233506  0.633925  0  4.061431  0
C  C75  1  0.62304093  0.21874823  0.94146469  1  0  0.713626  0  3.762428  0  0  0.658358  0  4.057339  0  0  0.693713  0  4.050537  0  0  0.233609  0.634112  0  4.061387  0
O  O76  1  0.03570694  0.22658194  0.08819064  1  0  -0.648339  0  2.033776  0  0  -0.572209  0  2.306268  0  0  -0.601558  0  2.288957  0  0  -0.320762  -0.551096  0  2.316379  0
O  O77  1  0.53573388  0.77341896  0.41179769  1  0  -0.648291  0  2.034161  0  0  -0.572102  0  2.306712  0  0  -0.601445  0  2.289405  0  0  -0.32069  -0.550992  0  2.316817  0
O  O78  1  0.96427899  0.77342891  0.91180767  1  0  -0.648187  0  2.033782  0  0  -0.57204  0  2.30624  0  0  -0.601381  0  2.288938  0  0  -0.320592  -0.550927  0  2.316348  0
O  O79  1  0.46428663  0.22656997  0.58818951  1  0  -0.648276  0  2.033893  0  0  -0.572026  0  2.306135  0  0  -0.601374  0  2.288822  0  0  -0.320624  -0.550914  0  2.316249  0
O  O80  1  0.79477520  0.03024443  0.10554767  1  0  -0.644355  0  2.109301  0  0  -0.570333  0  2.393579  0  0  -0.600023  0  2.377236  0  0  -0.3061  -0.550013  0  2.40383  0
O  O81  1  0.29480386  0.96975460  0.39446073  1  0  -0.644689  0  2.108286  0  0  -0.570655  0  2.392755  0  0  -0.600359  0  2.376422  0  0  -0.306265  -0.550325  0  2.403002  0
O  O82  1  0.20523214  0.96977005  0.89446402  1  0  -0.644581  0  2.108041  0  0  -0.570653  0  2.392425  0  0  -0.600354  0  2.37609  0  0  -0.306236  -0.550323  0  2.402677  0
O  O83  1  0.70522653  0.03021598  0.60554046  1  0  -0.644559  0  2.107886  0  0  -0.570722  0  2.39226  0  0  -0.600428  0  2.375928  0  0  -0.306292  -0.550391  0  2.402506  0
O  O84  1  0.04044483  0.25385726  0.49205437  1  0  -0.644112  0  2.059558  0  0  -0.565804  0  2.338386  0  0  -0.595754  0  2.321788  0  0  -0.313123  -0.544409  0  2.348809  0
O  O85  1  0.54043370  0.74615947  0.00794316  1  0  -0.644202  0  2.05925  0  0  -0.565897  0  2.337884  0  0  -0.595866  0  2.321297  0  0  -0.313231  -0.544489  0  2.348297  0
O  O86  1  0.95957898  0.74614749  0.50794450  1  0  -0.643873  0  2.059788  0  0  -0.565647  0  2.338497  0  0  -0.595599  0  2.321907  0  0  -0.313129  -0.544255  0  2.348919  0
O  O87  1  0.45957858  0.25385628  0.99205200  1  0  -0.643835  0  2.06015  0  0  -0.565626  0  2.33881  0  0  -0.595574  0  2.322218  0  0  -0.313099  -0.54424  0  2.349233  0
O  O88  1  0.78708875  0.07870677  0.42164324  1  0  -0.660536  0  2.131932  0  0  -0.586429  0  2.421978  0  0  -0.615966  0  2.404713  0  0  -0.311483  -0.566277  0  2.433182  0
O  O89  1  0.28705443  0.92129475  0.07835370  1  0  -0.660003  0  2.132696  0  0  -0.586013  0  2.422576  0  0  -0.615558  0  2.40535  0  0  -0.311255  -0.565871  0  2.433788  0
O  O90  1  0.21293505  0.92128701  0.57835253  1  0  -0.660394  0  2.13201  0  0  -0.586318  0  2.421875  0  0  -0.615884  0  2.404674  0  0  -0.311456  -0.566171  0  2.433091  0
O  O91  1  0.71292163  0.07870756  0.92164735  1  0  -0.660467  0  2.131995  0  0  -0.586478  0  2.421909  0  0  -0.616038  0  2.404685  0  0  -0.311539  -0.566316  0  2.433103  0
