# generated using pymatgen
data_CsH10C5ClO5
_symmetry_space_group_name_H-M   'P 1'
_cell_length_a   6.72681637
_cell_length_b   8.72107809
_cell_length_c   15.37053276
_cell_angle_alpha   90.00077476
_cell_angle_beta   89.99973624
_cell_angle_gamma   90.00003773
_symmetry_Int_Tables_number   1
_chemical_formula_structural   CsH10C5ClO5
_chemical_formula_sum   'Cs4 H40 C20 Cl4 O20'
_cell_volume   901.71370151
_cell_formula_units_Z   4
loop_
 _symmetry_equiv_pos_site_id
 _symmetry_equiv_pos_as_xyz
  1  'x, y, z'
loop_
 _atom_site_type_symbol
 _atom_site_label
 _atom_site_symmetry_multiplicity
 _atom_site_fract_x
 _atom_site_fract_y
 _atom_site_fract_z
 _atom_site_occupancy
 _atom_site_hle17_bader_spin_density
 _atom_site_hle17_ddec_charge
 _atom_site_hle17_ddec_spin_density
 _atom_site_hle17_ddec_sum_bond_order
 _atom_site_hle17_magmom
 _atom_site_hse06_10hf_bader_spin_density
 _atom_site_hse06_10hf_ddec_charge
 _atom_site_hse06_10hf_ddec_spin_density
 _atom_site_hse06_10hf_ddec_sum_bond_order
 _atom_site_hse06_10hf_magmom
 _atom_site_hse06_bader_spin_density
 _atom_site_hse06_ddec_charge
 _atom_site_hse06_ddec_spin_density
 _atom_site_hse06_ddec_sum_bond_order
 _atom_site_hse06_magmom
 _atom_site_pbe_bader_spin_density
 _atom_site_pbe_cm5_charge
 _atom_site_pbe_ddec_charge
 _atom_site_pbe_ddec_spin_density
 _atom_site_pbe_ddec_sum_bond_order
 _atom_site_pbe_magmom
Cs  Cs0  1  0.02686570  0.50989596  0.02370118  1  0  0.929848  0  0.607523  0  0  0.86264  0  0.869643  0  0  0.878884  0  0.845674  0  0  0.732623  0.849301  0  0.888339  0
Cs  Cs1  1  0.47313359  0.49010514  0.52370089  1  0  0.92985  0  0.607507  0  0  0.862646  0  0.869644  0  0  0.878896  0  0.845688  0  0  0.732622  0.849301  0  0.888351  0
Cs  Cs2  1  0.52686561  0.99010490  0.97629866  1  0  0.929849  0  0.607506  0  0  0.862634  0  0.869643  0  0  0.878875  0  0.84567  0  0  0.732617  0.849298  0  0.888342  0
Cs  Cs3  1  0.97313242  0.00989573  0.47629875  1  0  0.929842  0  0.607515  0  0  0.862626  0  0.869646  0  0  0.878859  0  0.845674  0  0  0.73262  0.849294  0  0.888344  0
H  H4  1  0.91837442  0.57956911  0.43941484  1  0  0.356884  0  0.939411  0  0  0.331328  0  1.020267  0  0  0.341372  0  1.008888  0  0  0.266137  0.323731  0  1.028779  0
H  H5  1  0.58162251  0.42043179  0.93941415  1  0  0.356864  0  0.939444  0  0  0.33131  0  1.020298  0  0  0.341354  0  1.008921  0  0  0.266136  0.323712  0  1.028811  0
H  H6  1  0.41837663  0.92043195  0.56058552  1  0  0.35687  0  0.93942  0  0  0.331319  0  1.020274  0  0  0.341367  0  1.008887  0  0  0.266138  0.323721  0  1.028788  0
H  H7  1  0.08162228  0.07957003  0.06058563  1  0  0.356867  0  0.939442  0  0  0.331305  0  1.020285  0  0  0.34136  0  1.008903  0  0  0.266134  0.323713  0  1.02879  0
H  H8  1  0.63576938  0.95040741  0.25010301  1  0  0.36217  0  0.926998  0  0  0.33626  0  1.003662  0  0  0.346068  0  0.992598  0  0  0.296627  0.329369  0  1.01139  0
H  H9  1  0.86422658  0.04959014  0.75010475  1  0  0.362272  0  0.926724  0  0  0.336325  0  1.00344  0  0  0.346133  0  0.992377  0  0  0.296697  0.329436  0  1.011165  0
H  H10  1  0.13576927  0.54959351  0.74989661  1  0  0.36218  0  0.926985  0  0  0.33627  0  1.003645  0  0  0.346081  0  0.992575  0  0  0.296627  0.329379  0  1.01137  0
H  H11  1  0.36422615  0.45040953  0.24989512  1  0  0.362307  0  0.926682  0  0  0.33636  0  1.003398  0  0  0.346167  0  0.992339  0  0  0.296696  0.329469  0  1.011127  0
H  H12  1  0.40025577  0.61175747  0.13335192  1  0  0.361908  0  0.92879  0  0  0.335251  0  1.007895  0  0  0.345398  0  0.996877  0  0  0.265339  0.328063  0  1.01558  0
H  H13  1  0.09974386  0.38823362  0.63335160  1  0  0.361866  0  0.92889  0  0  0.335217  0  1.007993  0  0  0.345367  0  0.996969  0  0  0.265294  0.328027  0  1.015674  0
H  H14  1  0.90025823  0.88824014  0.86664652  1  0  0.361928  0  0.928757  0  0  0.335281  0  1.007842  0  0  0.345426  0  0.996824  0  0  0.26535  0.328095  0  1.015522  0
H  H15  1  0.59974393  0.11176362  0.36664880  1  0  0.361863  0  0.928853  0  0  0.335197  0  1.007959  0  0  0.345345  0  0.996937  0  0  0.2653  0.328009  0  1.015641  0
H  H16  1  0.77374561  0.72125756  0.21067915  1  0  0.36941  0  0.910173  0  0  0.345028  0  0.985638  0  0  0.355473  0  0.972844  0  0  0.297112  0.33797  0  0.99403  0
H  H17  1  0.72625671  0.27874136  0.71068033  1  0  0.369383  0  0.910183  0  0  0.344996  0  0.985659  0  0  0.355443  0  0.972862  0  0  0.297097  0.337939  0  0.99405  0
H  H18  1  0.27374528  0.77873999  0.78931954  1  0  0.369387  0  0.910186  0  0  0.345006  0  0.985649  0  0  0.355452  0  0.972857  0  0  0.297104  0.337948  0  0.994041  0
H  H19  1  0.22625419  0.22125825  0.28932046  1  0  0.369384  0  0.91021  0  0  0.345002  0  0.985673  0  0  0.355445  0  0.972883  0  0  0.297092  0.337944  0  0.994066  0
H  H20  1  0.12472463  0.53655004  0.33382576  1  0  0.016174  0  0.917656  0  0  0.027015  0  0.98126  0  0  0.027444  0  0.979458  0  0  0.111309  0.027006  0  0.982089  0
H  H21  1  0.37527287  0.46345040  0.83382547  1  0  0.016209  0  0.917574  0  0  0.02703  0  0.981201  0  0  0.027461  0  0.9794  0  0  0.111315  0.027016  0  0.982023  0
H  H22  1  0.62472630  0.96344858  0.66617518  1  0  0.01614  0  0.917661  0  0  0.026979  0  0.981265  0  0  0.02741  0  0.979462  0  0  0.111305  0.026962  0  0.982088  0
H  H23  1  0.87527351  0.03655157  0.16617437  1  0  0.016148  0  0.917691  0  0  0.027007  0  0.981258  0  0  0.027436  0  0.979456  0  0  0.111309  0.026996  0  0.982087  0
H  H24  1  0.48564874  0.63772114  0.33646916  1  0  0.050998  0  0.959419  0  0  0.059045  0  1.037133  0  0  0.061036  0  1.034316  0  0  0.095017  0.057812  0  1.038578  0
H  H25  1  0.01435171  0.36227821  0.83646946  1  0  0.051011  0  0.959409  0  0  0.059037  0  1.037135  0  0  0.061029  0  1.034317  0  0  0.095025  0.057805  0  1.038578  0
H  H26  1  0.98565184  0.86227766  0.66352976  1  0  0.050989  0  0.959438  0  0  0.059036  0  1.037152  0  0  0.061034  0  1.034331  0  0  0.095023  0.057802  0  1.038599  0
H  H27  1  0.51435098  0.13772357  0.16353111  1  0  0.051016  0  0.959374  0  0  0.059063  0  1.037085  0  0  0.061056  0  1.034264  0  0  0.095013  0.057827  0  1.038535  0
H  H28  1  0.51492239  0.81365766  0.39481327  1  0  0.079734  0  0.934043  0  0  0.091372  0  0.999896  0  0  0.092605  0  0.998755  0  0  0.109583  0.090074  0  1.00126  0
H  H29  1  0.98507799  0.18634448  0.89481322  1  0  0.079728  0  0.93406  0  0  0.091373  0  0.99989  0  0  0.092607  0  0.998747  0  0  0.109592  0.090076  0  1.001254  0
H  H30  1  0.01492244  0.68633976  0.60518530  1  0  0.079703  0  0.934048  0  0  0.091339  0  0.999906  0  0  0.092572  0  0.998768  0  0  0.10957  0.090041  0  1.001267  0
H  H31  1  0.48508046  0.31366099  0.10518901  1  0  0.079744  0  0.933996  0  0  0.09138  0  0.99984  0  0  0.092607  0  0.998703  0  0  0.109587  0.090084  0  1.001198  0
H  H32  1  0.32538911  0.95198204  0.28042303  1  0  0.052752  0  0.935904  0  0  0.061407  0  1.003642  0  0  0.062645  0  1.002146  0  0  0.11094  0.060272  0  1.004967  0
H  H33  1  0.17460896  0.04801484  0.78042319  1  0  0.052759  0  0.935925  0  0  0.06143  0  1.003652  0  0  0.062666  0  1.002161  0  0  0.110941  0.060294  0  1.004977  0
H  H34  1  0.82539283  0.54801783  0.71957621  1  0  0.052762  0  0.935914  0  0  0.061417  0  1.003643  0  0  0.06265  0  1.002148  0  0  0.110943  0.060282  0  1.004966  0
H  H35  1  0.67460939  0.45198474  0.21957966  1  0  0.052712  0  0.935969  0  0  0.061392  0  1.003666  0  0  0.062627  0  1.002172  0  0  0.110925  0.060258  0  1.00499  0
H  H36  1  0.99406649  0.85729315  0.27369419  1  0  0.055018  0  0.921603  0  0  0.064128  0  0.988326  0  0  0.065077  0  0.987176  0  0  0.113788  0.062817  0  0.989991  0
H  H37  1  0.50593665  0.14270611  0.77369346  1  0  0.055031  0  0.921607  0  0  0.064136  0  0.98834  0  0  0.065087  0  0.987189  0  0  0.113789  0.062826  0  0.990006  0
H  H38  1  0.49406671  0.64270566  0.72630472  1  0  0.055001  0  0.921621  0  0  0.064128  0  0.988349  0  0  0.065076  0  0.987204  0  0  0.113785  0.062819  0  0.990013  0
H  H39  1  0.00593490  0.35729567  0.22630777  1  0  0.055019  0  0.921616  0  0  0.06412  0  0.988345  0  0  0.065069  0  0.987197  0  0  0.113779  0.06281  0  0.990012  0
H  H40  1  0.21270643  0.82064003  0.14792235  1  0  0.051838  0  0.926413  0  0  0.057543  0  0.996555  0  0  0.058972  0  0.995222  0  0  0.107856  0.056378  0  0.997707  0
H  H41  1  0.28729601  0.17935256  0.64792264  1  0  0.051766  0  0.926442  0  0  0.05756  0  0.996501  0  0  0.058986  0  0.995178  0  0  0.107892  0.056402  0  0.997641  0
H  H42  1  0.71270441  0.67935749  0.85207777  1  0  0.051786  0  0.926327  0  0  0.057553  0  0.996471  0  0  0.058982  0  0.995138  0  0  0.107845  0.056388  0  0.997621  0
H  H43  1  0.78729196  0.32064478  0.35207868  1  0  0.051766  0  0.926453  0  0  0.057526  0  0.99656  0  0  0.058954  0  0.995234  0  0  0.107862  0.056369  0  0.997698  0
C  C44  1  0.07766968  0.65669356  0.34474262  1  0  0.361637  0  3.657016  0  0  0.316111  0  3.933232  0  0  0.330203  0  3.934653  0  0  0.065095  0.305986  0  3.93259  0
C  C45  1  0.42232920  0.34330599  0.84474195  1  0  0.36169  0  3.656901  0  0  0.316182  0  3.933117  0  0  0.330264  0  3.93456  0  0  0.065142  0.306083  0  3.932429  0
C  C46  1  0.57767136  0.84330618  0.65525777  1  0  0.361827  0  3.656851  0  0  0.316345  0  3.933037  0  0  0.33043  0  3.934471  0  0  0.065199  0.306261  0  3.932332  0
C  C47  1  0.92233006  0.15669600  0.15525780  1  0  0.36169  0  3.657043  0  0  0.316192  0  3.933176  0  0  0.33028  0  3.934608  0  0  0.065139  0.306071  0  3.932531  0
C  C48  1  0.41775330  0.75040690  0.35017056  1  0  0.010368  0  3.659506  0  0  -0.051905  0  3.935243  0  0  -0.045321  0  3.93883  0  0  -0.100342  -0.056403  0  3.932406  0
C  C49  1  0.08224849  0.24959393  0.85017050  1  0  0.010379  0  3.659532  0  0  -0.051836  0  3.935224  0  0  -0.045256  0  3.938817  0  0  -0.100331  -0.056333  0  3.932382  0
C  C50  1  0.91775347  0.74959417  0.64982915  1  0  0.010397  0  3.659516  0  0  -0.051849  0  3.935225  0  0  -0.045277  0  3.938822  0  0  -0.100343  -0.056347  0  3.932386  0
C  C51  1  0.58224800  0.25040904  0.14983058  1  0  0.010398  0  3.659481  0  0  -0.051851  0  3.935154  0  0  -0.045263  0  3.938741  0  0  -0.100324  -0.05635  0  3.932324  0
C  C52  1  0.38942240  0.83857388  0.26546469  1  0  0.153078  0  3.62575  0  0  0.125  0  3.884356  0  0  0.129954  0  3.893263  0  0  -0.015071  0.121621  0  3.878348  0
C  C53  1  0.11057731  0.16142149  0.76546454  1  0  0.152913  0  3.62567  0  0  0.124786  0  3.884377  0  0  0.129738  0  3.893286  0  0  -0.015135  0.121406  0  3.878373  0
C  C54  1  0.88942309  0.66142602  0.73453508  1  0  0.152959  0  3.625796  0  0  0.124915  0  3.884432  0  0  0.129876  0  3.893337  0  0  -0.015117  0.121537  0  3.878424  0
C  C55  1  0.61057600  0.33857805  0.23453648  1  0  0.152926  0  3.625764  0  0  0.124863  0  3.884378  0  0  0.129816  0  3.893285  0  0  -0.015103  0.121483  0  3.878371  0
C  C56  1  0.04421601  0.74000447  0.25789432  1  0  0.108103  0  3.624057  0  0  0.079718  0  3.881083  0  0  0.083652  0  3.889646  0  0  -0.01152  0.07721  0  3.875429  0
C  C57  1  0.45578378  0.25999302  0.75789295  1  0  0.10804  0  3.623976  0  0  0.079671  0  3.881035  0  0  0.083609  0  3.889592  0  0  -0.011533  0.077158  0  3.875376  0
C  C58  1  0.54421670  0.75999296  0.74210548  1  0  0.108117  0  3.62394  0  0  0.079686  0  3.88113  0  0  0.083621  0  3.889694  0  0  -0.01152  0.077167  0  3.875469  0
C  C59  1  0.95578231  0.24000784  0.24210673  1  0  0.108088  0  3.624009  0  0  0.07973  0  3.881038  0  0  0.083665  0  3.889597  0  0  -0.011505  0.07722  0  3.875387  0
C  C60  1  0.24024661  0.75480714  0.20793755  1  0  0.145053  0  3.589321  0  0  0.115081  0  3.841542  0  0  0.119739  0  3.851475  0  0  -0.012403  0.111775  0  3.83491  0
C  C61  1  0.25975223  0.24519031  0.70793906  1  0  0.145337  0  3.589086  0  0  0.115265  0  3.841455  0  0  0.119927  0  3.851377  0  0  -0.01236  0.111959  0  3.834825  0
C  C62  1  0.74024825  0.74519383  0.79205990  1  0  0.145224  0  3.589127  0  0  0.115092  0  3.841617  0  0  0.119753  0  3.851548  0  0  -0.012366  0.111787  0  3.834985  0
C  C63  1  0.75975024  0.25481275  0.29206362  1  0  0.145337  0  3.589039  0  0  0.115227  0  3.84145  0  0  0.119887  0  3.851373  0  0  -0.012353  0.111924  0  3.834817  0
Cl  Cl64  1  0.53537527  0.60424100  0.01710204  1  0  -0.723746  0  0.803605  0  0  -0.670172  0  1.035465  0  0  -0.685208  0  1.016906  0  0  -0.399738  -0.656804  0  1.048618  0
Cl  Cl65  1  0.96462463  0.39576135  0.51710170  1  0  -0.723739  0  0.8036  0  0  -0.670156  0  1.035463  0  0  -0.685196  0  1.016915  0  0  -0.399735  -0.65679  0  1.048618  0
Cl  Cl66  1  0.03537300  0.89575872  0.98289648  1  0  -0.72375  0  0.803583  0  0  -0.670166  0  1.035419  0  0  -0.685206  0  1.016867  0  0  -0.399741  -0.656807  0  1.048567  0
Cl  Cl67  1  0.46462442  0.10423952  0.48289862  1  0  -0.723728  0  0.803605  0  0  -0.67015  0  1.035457  0  0  -0.685187  0  1.016897  0  0  -0.39973  -0.656785  0  1.048612  0
O  O68  1  0.23081767  0.73450911  0.39468378  1  0  -0.415924  0  2.243589  0  0  -0.351878  0  2.498449  0  0  -0.368548  0  2.498296  0  0  -0.314516  -0.340151  0  2.498681  0
O  O69  1  0.26918068  0.26549162  0.89468347  1  0  -0.415999  0  2.243674  0  0  -0.351968  0  2.498529  0  0  -0.368637  0  2.498384  0  0  -0.314552  -0.340247  0  2.498755  0
O  O70  1  0.73082130  0.76549071  0.60531630  1  0  -0.415974  0  2.243585  0  0  -0.351946  0  2.49844  0  0  -0.368609  0  2.498289  0  0  -0.314531  -0.340228  0  2.498659  0
O  O71  1  0.76918213  0.23451029  0.10531724  1  0  -0.415996  0  2.243667  0  0  -0.351966  0  2.498506  0  0  -0.368636  0  2.498354  0  0  -0.314544  -0.34024  0  2.498732  0
O  O72  1  0.90511730  0.66193454  0.39441998  1  0  -0.588842  0  2.094466  0  0  -0.546196  0  2.32411  0  0  -0.563516  0  2.312778  0  0  -0.432654  -0.534101  0  2.333292  0
O  O73  1  0.59488307  0.33806759  0.89441733  1  0  -0.588859  0  2.094466  0  0  -0.546219  0  2.324125  0  0  -0.563532  0  2.312791  0  0  -0.432685  -0.534141  0  2.333323  0
O  O74  1  0.40511897  0.83806537  0.60558170  1  0  -0.588931  0  2.094479  0  0  -0.546298  0  2.324134  0  0  -0.563616  0  2.312795  0  0  -0.432733  -0.534215  0  2.333305  0
O  O75  1  0.09488244  0.16193424  0.10558243  1  0  -0.588838  0  2.094494  0  0  -0.546214  0  2.324185  0  0  -0.563536  0  2.312805  0  0  -0.432687  -0.534104  0  2.333327  0
O  O76  1  0.57559393  0.85928873  0.22092351  1  0  -0.571572  0  2.0604  0  0  -0.521397  0  2.286962  0  0  -0.537563  0  2.274831  0  0  -0.397911  -0.510175  0  2.294865  0
O  O77  1  0.92441126  0.14070584  0.72092193  1  0  -0.571586  0  2.060104  0  0  -0.521367  0  2.28675  0  0  -0.537527  0  2.274616  0  0  -0.397976  -0.510147  0  2.294652  0
O  O78  1  0.07559359  0.64071331  0.77907623  1  0  -0.571542  0  2.060379  0  0  -0.521363  0  2.286935  0  0  -0.537529  0  2.274798  0  0  -0.397899  -0.510144  0  2.294837  0
O  O79  1  0.42440896  0.35929386  0.27907847  1  0  -0.571597  0  2.060112  0  0  -0.521424  0  2.286759  0  0  -0.537587  0  2.274631  0  0  -0.39796  -0.510202  0  2.294661  0
O  O80  1  0.30778827  0.60356641  0.18438404  1  0  -0.590892  0  2.127813  0  0  -0.529046  0  2.35015  0  0  -0.547374  0  2.340161  0  0  -0.437437  -0.515851  0  2.356646  0
O  O81  1  0.19221230  0.39642934  0.68438490  1  0  -0.590919  0  2.12787  0  0  -0.529133  0  2.350334  0  0  -0.547464  0  2.340341  0  0  -0.437419  -0.515934  0  2.356832  0
O  O82  1  0.80778980  0.89643231  0.81561588  1  0  -0.590921  0  2.12773  0  0  -0.529066  0  2.350168  0  0  -0.547394  0  2.340176  0  0  -0.437446  -0.515872  0  2.356659  0
O  O83  1  0.69220993  0.10356910  0.31561531  1  0  -0.590915  0  2.127714  0  0  -0.529074  0  2.350182  0  0  -0.547398  0  2.340187  0  0  -0.437429  -0.515878  0  2.356674  0
O  O84  1  0.90014418  0.66324406  0.20589497  1  0  -0.57401  0  2.072598  0  0  -0.536336  0  2.313349  0  0  -0.550991  0  2.300891  0  0  -0.449845  -0.525908  0  2.321078  0
O  O85  1  0.59985670  0.33675359  0.70589425  1  0  -0.573981  0  2.072515  0  0  -0.536282  0  2.313239  0  0  -0.550955  0  2.300815  0  0  -0.449798  -0.525854  0  2.320968  0
O  O86  1  0.40014236  0.83675355  0.79410542  1  0  -0.574017  0  2.072492  0  0  -0.536307  0  2.313251  0  0  -0.550961  0  2.300792  0  0  -0.449825  -0.52588  0  2.320982  0
O  O87  1  0.09985556  0.16324709  0.29410614  1  0  -0.574016  0  2.072531  0  0  -0.536318  0  2.313243  0  0  -0.550979  0  2.3008  0  0  -0.449814  -0.525891  0  2.320976  0
