# generated using pymatgen
data_Mg3H8C14(NO5)2
_symmetry_space_group_name_H-M   'P 1'
_cell_length_a   11.04598640
_cell_length_b   13.20413961
_cell_length_c   17.88632022
_cell_angle_alpha   89.99993207
_cell_angle_beta   103.95781801
_cell_angle_gamma   89.99990050
_symmetry_Int_Tables_number   1
_chemical_formula_structural   Mg3H8C14(NO5)2
_chemical_formula_sum   'Mg12 H32 C56 N8 O40'
_cell_volume   2531.74129557
_cell_formula_units_Z   4
loop_
 _symmetry_equiv_pos_site_id
 _symmetry_equiv_pos_as_xyz
  1  'x, y, z'
loop_
 _atom_site_type_symbol
 _atom_site_label
 _atom_site_symmetry_multiplicity
 _atom_site_fract_x
 _atom_site_fract_y
 _atom_site_fract_z
 _atom_site_occupancy
 _atom_site_pbe_bader_charge
 _atom_site_pbe_bader_spin_density
 _atom_site_pbe_cm5_charge
 _atom_site_pbe_ddec_charge
 _atom_site_pbe_ddec_spin_density
 _atom_site_pbe_ddec_sum_bond_order
 _atom_site_pbe_magmom
Mg  Mg0  1  0.95713506  0.46319265  0.91316360  1  1.685369  0  0.811466  1.348375  0  1.441812  0
Mg  Mg1  1  0.24979653  0.59429668  0.99983385  1  1.675323  0  0.807257  1.393718  0  1.416982  0
Mg  Mg2  1  0.45724338  0.53608531  0.91326643  1  1.685309  0  0.81243  1.348114  0  1.442918  0
Mg  Mg3  1  0.54286654  0.96319098  0.58683741  1  1.685406  0  0.811456  1.348369  0  1.441776  0
Mg  Mg4  1  0.25020242  0.09429785  0.50016598  1  1.675341  0  0.807271  1.393757  0  1.416919  0
Mg  Mg5  1  0.04275483  0.03608664  0.58673165  1  1.685309  0  0.812413  1.348077  0  1.442956  0
Mg  Mg6  1  0.04286562  0.53680882  0.08683718  1  1.685413  0  0.811474  1.348393  0  1.441738  0
Mg  Mg7  1  0.75020140  0.40570479  0.00016537  1  1.675352  0  0.807225  1.393758  0  1.416945  0
Mg  Mg8  1  0.54275276  0.46391010  0.08673026  1  1.685289  0  0.812455  1.348189  0  1.4428  0
Mg  Mg9  1  0.45713332  0.03681050  0.41316044  1  1.685422  0  0.811475  1.348393  0  1.441757  0
Mg  Mg10  1  0.74979738  0.90570438  0.49983354  1  1.675335  0  0.807234  1.393721  0  1.416991  0
Mg  Mg11  1  0.95724494  0.96391332  0.41326843  1  1.685354  0  0.812411  1.348089  0  1.442921  0
H  H12  1  0.62653424  0.71208013  0.75483471  1  0.14694  0  0.12174  0.143539  0  0.980604  0
H  H13  1  0.94258654  0.68083296  0.65505728  1  0.111846  0  0.114275  0.124393  0  0.988902  0
H  H14  1  0.03289744  0.55522066  0.76027241  1  0.088255  0  0.121893  0.088114  0  0.985335  0
H  H15  1  0.47637597  0.64984203  0.04317279  1  0.582026  0  0.308986  0.401048  0  0.903489  0
H  H16  1  0.02336761  0.64946671  0.95616413  1  0.580504  0  0.308561  0.400153  0  0.904701  0
H  H17  1  0.12703541  0.28695852  0.75563050  1  0.147499  0  0.121918  0.14388  0  0.980424  0
H  H18  1  0.44649561  0.31347353  0.65848592  1  0.108704  0  0.114554  0.124734  0  0.990779  0
H  H19  1  0.53648106  0.43966941  0.76327517  1  0.081733  0  0.121995  0.088195  0  0.985543  0
H  H20  1  0.87346069  0.21209357  0.74516095  1  0.146883  0  0.121721  0.143557  0  0.980578  0
H  H21  1  0.55740932  0.18083231  0.84494079  1  0.111842  0  0.114281  0.124434  0  0.988878  0
H  H22  1  0.46711001  0.05521353  0.73972826  1  0.088316  0  0.12187  0.088055  0  0.985347  0
H  H23  1  0.02362364  0.14984503  0.45682428  1  0.581969  0  0.308961  0.401037  0  0.903494  0
H  H24  1  0.47663210  0.14946519  0.54383634  1  0.580479  0  0.308576  0.400183  0  0.904664  0
H  H25  1  0.37297138  0.78697123  0.74437213  1  0.147426  0  0.121893  0.14386  0  0.980469  0
H  H26  1  0.05352018  0.81348807  0.84152541  1  0.108611  0  0.114542  0.124716  0  0.990584  0
H  H27  1  0.96352510  0.93967367  0.73673108  1  0.08172  0  0.122011  0.088225  0  0.9856  0
H  H28  1  0.37346740  0.28792210  0.24516567  1  0.146954  0  0.12174  0.143569  0  0.980569  0
H  H29  1  0.05741236  0.31916775  0.34494097  1  0.111863  0  0.114249  0.124336  0  0.988968  0
H  H30  1  0.96710061  0.44477778  0.23972347  1  0.088307  0  0.12191  0.088139  0  0.985223  0
H  H31  1  0.52362305  0.35015490  0.95682213  1  0.581945  0  0.308974  0.401003  0  0.90352  0
H  H32  1  0.97663214  0.35053325  0.04383650  1  0.580466  0  0.308616  0.400239  0  0.904591  0
H  H33  1  0.87296811  0.71303084  0.24436963  1  0.147512  0  0.12191  0.143926  0  0.980388  0
H  H34  1  0.55350692  0.68652188  0.34151572  1  0.108579  0  0.114554  0.124735  0  0.990848  0
H  H35  1  0.46351679  0.56033207  0.23672627  1  0.081708  0  0.122009  0.088213  0  0.98562  0
H  H36  1  0.12653349  0.78791775  0.25483822  1  0.146871  0  0.121751  0.143553  0  0.98058  0
H  H37  1  0.44258208  0.81916916  0.15505737  1  0.111935  0  0.114261  0.124415  0  0.988835  0
H  H38  1  0.53289258  0.94478567  0.26027171  1  0.088321  0  0.121903  0.088102  0  0.985281  0
H  H39  1  0.97637711  0.85015569  0.54317483  1  0.581982  0  0.30898  0.401028  0  0.903508  0
H  H40  1  0.52336955  0.85053552  0.45616348  1  0.580356  0  0.308521  0.400085  0  0.904759  0
H  H41  1  0.62703142  0.21302948  0.25562228  1  0.147613  0  0.121898  0.143914  0  0.980461  0
H  H42  1  0.94649535  0.18651567  0.15848001  1  0.108299  0  0.114649  0.124821  0  0.990649  0
H  H43  1  0.03648572  0.06033083  0.26327470  1  0.081683  0  0.121997  0.08816  0  0.985597  0
C  C44  1  0.77187931  0.60750823  0.80912971  1  0.449824  0  0.114136  0.096131  0  3.973108  0
C  C45  1  0.71655556  0.67900483  0.75404827  1  0.019311  0  -0.062761  -0.134394  0  3.880878  0
C  C46  1  0.77935373  0.70736866  0.69811253  1  -0.014269  0  0.006208  0.019494  0  3.916993  0
C  C47  1  0.89355778  0.66116792  0.69903998  1  -0.088963  0  -0.070892  -0.13495  0  3.940239  0
C  C48  1  0.94315804  0.59173052  0.75695057  1  0.540751  0  0.057361  0.109933  0  3.968829  0
C  C49  1  0.70928400  0.56933231  0.87005298  1  1.616734  0  0.241828  0.599332  0  4.194961  0
C  C50  1  0.72736756  0.78735503  0.63838050  1  1.629851  0  0.220538  0.600626  0  4.224337  0
C  C51  1  0.27300933  0.39071446  0.81024481  1  0.530265  0  0.114034  0.095515  0  3.97301  0
C  C52  1  0.21775704  0.31905747  0.75531816  1  -0.105179  0  -0.063385  -0.135314  0  3.884534  0
C  C53  1  0.28142474  0.28948190  0.70013396  1  -0.017326  0  0.007193  0.019749  0  3.921537  0
C  C54  1  0.39669455  0.33428292  0.70182958  1  0.010721  0  -0.072142  -0.135769  0  3.942986  0
C  C55  1  0.44606919  0.40408670  0.75949051  1  0.51533  0  0.057712  0.109563  0  3.970384  0
C  C56  1  0.20964071  0.42988096  0.87047798  1  1.613356  0  0.242174  0.599686  0  4.194842  0
C  C57  1  0.22887015  0.21017126  0.64004485  1  1.622313  0  0.220563  0.601161  0  4.221603  0
C  C58  1  0.72811864  0.10750986  0.69086764  1  0.44995  0  0.114134  0.096099  0  3.972937  0
C  C59  1  0.78344221  0.17901008  0.74594900  1  0.018296  0  -0.062774  -0.134432  0  3.880946  0
C  C60  1  0.72064497  0.20737391  0.80188318  1  -0.013406  0  0.00625  0.019548  0  3.916969  0
C  C61  1  0.60644370  0.16116803  0.80095958  1  -0.089012  0  -0.070918  -0.135033  0  3.940293  0
C  C62  1  0.55684636  0.09173156  0.74305119  1  0.540686  0  0.05747  0.1101  0  3.968988  0
C  C63  1  0.79071581  0.06933547  0.62994749  1  1.616561  0  0.241719  0.599174  0  4.195134  0
C  C64  1  0.77262432  0.28736161  0.86161629  1  1.629879  0  0.220627  0.600745  0  4.224087  0
C  C65  1  0.22699433  0.89072067  0.68975946  1  0.431245  0  0.113995  0.095506  0  3.973194  0
C  C66  1  0.28225231  0.81906654  0.74468932  1  -0.005877  0  -0.063229  -0.135189  0  3.884679  0
C  C67  1  0.21858553  0.78949627  0.79987593  1  -0.018074  0  0.007236  0.019704  0  3.921901  0
C  C68  1  0.10331940  0.83429745  0.79817920  1  0.011552  0  -0.07214  -0.135661  0  3.942988  0
C  C69  1  0.05393716  0.90409383  0.74051586  1  0.515663  0  0.057575  0.109413  0  3.970574  0
C  C70  1  0.29036280  0.92989097  0.62952735  1  1.612901  0  0.24213  0.599604  0  4.195048  0
C  C71  1  0.27113490  0.71017560  0.85995923  1  1.622173  0  0.220446  0.601128  0  4.221815  0
C  C72  1  0.22812046  0.39249552  0.19087037  1  0.449833  0  0.114179  0.096127  0  3.973051  0
C  C73  1  0.28344324  0.32099816  0.24595277  1  0.019566  0  -0.062792  -0.134435  0  3.881039  0
C  C74  1  0.22064704  0.29263205  0.30188603  1  -0.014492  0  0.006217  0.019465  0  3.917058  0
C  C75  1  0.10644296  0.33883356  0.30095913  1  -0.088965  0  -0.070923  -0.134939  0  3.940299  0
C  C76  1  0.05684366  0.40826869  0.24304813  1  0.540703  0  0.05739  0.10998  0  3.968904  0
C  C77  1  0.29071395  0.43066992  0.12994568  1  1.616521  0  0.241715  0.599296  0  4.195082  0
C  C78  1  0.27263039  0.21264644  0.36161816  1  1.629844  0  0.220546  0.600621  0  4.224108  0
C  C79  1  0.72698941  0.60927944  0.18975789  1  0.529966  0  0.113994  0.095467  0  3.973219  0
C  C80  1  0.78224456  0.68093340  0.24468333  1  -0.105055  0  -0.063304  -0.135262  0  3.884801  0
C  C81  1  0.71858141  0.71051124  0.29987106  1  -0.017391  0  0.007199  0.019648  0  3.921849  0
C  C82  1  0.60330698  0.66571326  0.29817357  1  0.011017  0  -0.072024  -0.135586  0  3.943006  0
C  C83  1  0.55393139  0.59590872  0.24051305  1  0.515218  0  0.057545  0.109371  0  3.970476  0
C  C84  1  0.79035987  0.57010840  0.12952558  1  1.612998  0  0.242172  0.599652  0  4.194975  0
C  C85  1  0.77113242  0.78982643  0.35995568  1  1.622261  0  0.220442  0.601143  0  4.221749  0
C  C86  1  0.27188020  0.89249389  0.30913228  1  0.449744  0  0.114083  0.095919  0  3.973166  0
C  C87  1  0.21655472  0.82099367  0.25405174  1  0.019344  0  -0.062817  -0.134391  0  3.880936  0
C  C88  1  0.27935205  0.79262833  0.19811532  1  -0.014146  0  0.006278  0.019579  0  3.917152  0
C  C89  1  0.39355135  0.83882966  0.19904141  1  -0.088879  0  -0.070922  -0.135026  0  3.940163  0
C  C90  1  0.44315530  0.90827295  0.25694863  1  0.540507  0  0.057408  0.110025  0  3.968554  0
C  C91  1  0.20928295  0.93067055  0.37005465  1  1.616625  0  0.241785  0.599347  0  4.195033  0
C  C92  1  0.22736892  0.71264365  0.13838273  1  1.62987  0  0.220631  0.600644  0  4.224145  0
C  C93  1  0.77300829  0.10927626  0.31023995  1  0.431543  0  0.113961  0.095555  0  3.972991  0
C  C94  1  0.71775308  0.18093418  0.25531110  1  -0.006445  0  -0.06326  -0.135341  0  3.884492  0
C  C95  1  0.78142357  0.21050672  0.20012565  1  -0.017652  0  0.007272  0.019807  0  3.921492  0
C  C96  1  0.89669623  0.16570629  0.20182345  1  0.010893  0  -0.072196  -0.13581  0  3.942946  0
C  C97  1  0.94606906  0.09590991  0.25948749  1  0.51611  0  0.057604  0.109543  0  3.970478  0
C  C98  1  0.70963799  0.07010899  0.37047065  1  1.613025  0  0.242131  0.59954  0  4.195072  0
C  C99  1  0.72886408  0.28981982  0.14003680  1  1.622553  0  0.220492  0.601163  0  4.221913  0
N  N100  1  0.88468535  0.56591891  0.81163250  1  -1.255486  0  -0.333602  -0.327537  0  3.460429  0
N  N101  1  0.38645752  0.43138192  0.81327212  1  -1.273545  0  -0.333931  -0.325573  0  3.464436  0
N  N102  1  0.61531342  0.06591541  0.68837116  1  -1.255388  0  -0.333662  -0.327588  0  3.460327  0
N  N103  1  0.11354609  0.93138603  0.68673043  1  -1.274087  0  -0.333895  -0.325558  0  3.464428  0
N  N104  1  0.11531252  0.43408256  0.18836838  1  -1.255582  0  -0.333601  -0.327539  0  3.460502  0
N  N105  1  0.61353668  0.56861501  0.18672649  1  -1.273383  0  -0.333902  -0.325519  0  3.464214  0
N  N106  1  0.38468252  0.93408379  0.31163109  1  -1.255483  0  -0.333597  -0.327499  0  3.46045  0
N  N107  1  0.88646023  0.06861620  0.31327015  1  -1.273879  0  -0.333931  -0.32561  0  3.464358  0
O  O108  1  0.77797070  0.51478796  0.92235047  1  -1.272598  0  -0.356565  -0.68318  0  2.426235  0
O  O109  1  0.59668685  0.59068555  0.86488301  1  -1.223043  0  -0.326093  -0.590319  0  2.244247  0
O  O110  1  0.63609939  0.83910704  0.64825358  1  -1.223715  0  -0.339759  -0.625067  0  2.249986  0
O  O111  1  0.78181512  0.79656957  0.58381661  1  -1.235526  0  -0.352779  -0.639689  0  2.242412  0
O  O112  1  0.44692332  0.58452619  0.02144870  1  -1.395645  0  -0.680044  -1.093721  0  1.949676  0
O  O113  1  0.05251623  0.58416745  0.97807501  1  -1.394547  0  -0.679339  -1.092082  0  1.948409  0
O  O114  1  0.27820369  0.48407296  0.92305177  1  -1.269797  0  -0.356202  -0.682362  0  2.425329  0
O  O115  1  0.09662848  0.40936324  0.86460048  1  -1.222988  0  -0.326277  -0.590799  0  2.246888  0
O  O116  1  0.13750696  0.15839437  0.64974880  1  -1.218232  0  -0.340363  -0.624861  0  2.248986  0
O  O117  1  0.28293403  0.20167847  0.58524938  1  -1.231138  0  -0.352697  -0.639918  0  2.242643  0
O  O118  1  0.72202726  0.01478146  0.57765310  1  -1.272363  0  -0.356512  -0.683089  0  2.426231  0
O  O119  1  0.90331130  0.09068702  0.63510991  1  -1.222992  0  -0.326047  -0.59026  0  2.244267  0
O  O120  1  0.86389230  0.33911502  0.85174481  1  -1.22369  0  -0.3398  -0.625085  0  2.249952  0
O  O121  1  0.71817668  0.29657538  0.91618183  1  -1.235581  0  -0.352812  -0.639786  0  2.242338  0
O  O122  1  0.05307637  0.08452759  0.47855068  1  -1.395624  0  -0.680019  -1.093654  0  1.949642  0
O  O123  1  0.44748367  0.08416677  0.52192498  1  -1.394545  0  -0.67935  -1.092148  0  1.948384  0
O  O124  1  0.22179800  0.98407407  0.57694819  1  -1.269613  0  -0.356191  -0.682332  0  2.425368  0
O  O125  1  0.40337685  0.90937610  0.63540796  1  -1.222684  0  -0.326218  -0.590724  0  2.246897  0
O  O126  1  0.36249543  0.65839859  0.85025489  1  -1.218025  0  -0.340353  -0.624874  0  2.248989  0
O  O127  1  0.21707198  0.70168356  0.91475486  1  -1.231194  0  -0.352623  -0.639893  0  2.242776  0
O  O128  1  0.22202708  0.48521881  0.07765263  1  -1.272491  0  -0.356544  -0.683152  0  2.426327  0
O  O129  1  0.40330755  0.40931592  0.13511004  1  -1.222933  0  -0.326017  -0.59031  0  2.24427  0
O  O130  1  0.36389487  0.16089064  0.35174336  1  -1.223674  0  -0.339767  -0.625045  0  2.24993  0
O  O131  1  0.21818279  0.20343114  0.41618316  1  -1.235536  0  -0.352796  -0.639698  0  2.242299  0
O  O132  1  0.55307282  0.41547074  0.97854799  1  -1.395572  0  -0.680071  -1.093618  0  1.949602  0
O  O133  1  0.94748352  0.41583327  0.02192562  1  -1.394571  0  -0.679376  -1.092168  0  1.948299  0
O  O134  1  0.72179140  0.51592548  0.07694810  1  -1.269704  0  -0.356247  -0.682413  0  2.425312  0
O  O135  1  0.90337202  0.59062460  0.13540530  1  -1.222676  0  -0.326211  -0.590736  0  2.246954  0
O  O136  1  0.86249283  0.84160256  0.35025072  1  -1.218232  0  -0.340368  -0.624876  0  2.248949  0
O  O137  1  0.71707040  0.79832224  0.41475145  1  -1.231076  0  -0.352596  -0.6399  0  2.242682  0
O  O138  1  0.27797250  0.98522077  0.42234753  1  -1.272471  0  -0.356511  -0.683122  0  2.426342  0
O  O139  1  0.09668754  0.90931597  0.36489001  1  -1.22307  0  -0.326079  -0.590333  0  2.244244  0
O  O140  1  0.13610088  0.66088873  0.14825587  1  -1.223745  0  -0.339857  -0.625097  0  2.249885  0
O  O141  1  0.28181930  0.70342912  0.08381931  1  -1.235492  0  -0.352795  -0.639687  0  2.242333  0
O  O142  1  0.94692431  0.91547237  0.52145011  1  -1.395602  0  -0.680045  -1.09364  0  1.949646  0
O  O143  1  0.55251708  0.91583470  0.47807413  1  -1.394485  0  -0.679285  -1.091963  0  1.948387  0
O  O144  1  0.77820556  0.01592741  0.42305082  1  -1.26969  0  -0.356179  -0.68232  0  2.425378  0
O  O145  1  0.59662295  0.09062689  0.36459156  1  -1.222691  0  -0.326237  -0.590717  0  2.2469  0
O  O146  1  0.63750171  0.34159531  0.14974028  1  -1.218425  0  -0.340353  -0.624857  0  2.249088  0
O  O147  1  0.78292881  0.29831640  0.08524314  1  -1.231235  0  -0.352661  -0.639963  0  2.242795  0
