# generated using pymatgen
data_Zn3H40C26N20(ClO2)2
_symmetry_space_group_name_H-M   'P 1'
_cell_length_a   15.46153681
_cell_length_b   15.77358204
_cell_length_c   20.18567735
_cell_angle_alpha   89.99962720
_cell_angle_beta   89.99995690
_cell_angle_gamma   112.65871269
_symmetry_Int_Tables_number   1
_chemical_formula_structural   Zn3H40C26N20(ClO2)2
_chemical_formula_sum   'Zn12 H160 C104 N80 Cl8 O16'
_cell_volume   4542.98601055
_cell_formula_units_Z   4
loop_
 _symmetry_equiv_pos_site_id
 _symmetry_equiv_pos_as_xyz
  1  'x, y, z'
loop_
 _atom_site_type_symbol
 _atom_site_label
 _atom_site_symmetry_multiplicity
 _atom_site_fract_x
 _atom_site_fract_y
 _atom_site_fract_z
 _atom_site_occupancy
 _atom_site_pbe_bader_charge
 _atom_site_pbe_bader_spin_density
 _atom_site_pbe_cm5_charge
 _atom_site_pbe_ddec_charge
 _atom_site_pbe_ddec_spin_density
 _atom_site_pbe_ddec_sum_bond_order
 _atom_site_pbe_magmom
Zn  Zn0  1  0.65238463  0.29944330  0.91718303  1  1.178577  0  0.658896  0.609183  0  2.630755  0
Zn  Zn1  1  0.84761706  0.20055677  0.41718651  1  1.178616  0  0.658836  0.60899  0  2.630877  0
Zn  Zn2  1  0.34761699  0.70055854  0.08281609  1  1.17861  0  0.65895  0.60925  0  2.630721  0
Zn  Zn3  1  0.15238751  0.79944100  0.58281707  1  1.178535  0  0.65886  0.609013  0  2.630955  0
Zn  Zn4  1  0.80546372  0.15231079  0.91701752  1  1.183603  0  0.657341  0.598248  0  2.632554  0
Zn  Zn5  1  0.69453706  0.34768859  0.41701663  1  1.183566  0  0.657377  0.598271  0  2.632598  0
Zn  Zn6  1  0.19453658  0.84768762  0.08298804  1  1.183478  0  0.657367  0.598254  0  2.632559  0
Zn  Zn7  1  0.30546742  0.65231397  0.58298200  1  1.1838  0  0.657338  0.59824  0  2.632575  0
Zn  Zn8  1  0.38413220  0.37535542  0.74504552  1  1.362311  0  0.701835  0.799561  0  2.358204  0
Zn  Zn9  1  0.11586528  0.12463784  0.24505080  1  1.36231  0  0.701902  0.799694  0  2.35803  0
Zn  Zn10  1  0.61586721  0.62464572  0.25495211  1  1.362442  0  0.701884  0.799694  0  2.35806  0
Zn  Zn11  1  0.88413473  0.87535646  0.75495378  1  1.362323  0  0.701865  0.799671  0  2.358091  0
H  H12  1  0.63363146  0.12882823  0.76321840  1  0.051234  0  0.096694  0.107608  0  0.963674  0
H  H13  1  0.86636816  0.37116635  0.26321795  1  0.051359  0  0.09668  0.107545  0  0.963712  0
H  H14  1  0.36637187  0.87117637  0.23678567  1  0.051338  0  0.09664  0.107521  0  0.963681  0
H  H15  1  0.13363274  0.62882522  0.73678563  1  0.051354  0  0.096629  0.107514  0  0.96368  0
H  H16  1  0.64172882  0.13846148  0.85051845  1  0.015043  0  0.085913  0.067895  0  1.082236  0
H  H17  1  0.85827420  0.36153863  0.35051893  1  0.015067  0  0.085911  0.067888  0  1.082256  0
H  H18  1  0.35827427  0.86154586  0.14948365  1  0.015156  0  0.085858  0.067782  0  1.082354  0
H  H19  1  0.14173155  0.63846051  0.64948415  1  0.015089  0  0.085923  0.067902  0  1.082192  0
H  H20  1  0.59092541  0.99117271  0.92273168  1  0.063769  0  0.093278  0.09721  0  1.029754  0
H  H21  1  0.90907488  0.50882697  0.42273045  1  0.063914  0  0.093273  0.09715  0  1.029849  0
H  H22  1  0.40907456  0.00883323  0.07727042  1  0.063889  0  0.093291  0.097149  0  1.029877  0
H  H23  1  0.09092984  0.49117285  0.57727115  1  0.063796  0  0.093288  0.097181  0  1.029826  0
H  H24  1  0.54937093  0.88338628  0.88335494  1  0.023142  0  0.098244  0.106033  0  1.012884  0
H  H25  1  0.95062825  0.61661051  0.38335185  1  0.023127  0  0.098262  0.106011  0  1.012935  0
H  H26  1  0.45063396  0.11661902  0.11664815  1  0.023447  0  0.098218  0.105976  0  1.012925  0
H  H27  1  0.04937620  0.38338862  0.61664728  1  0.023123  0  0.09827  0.106012  0  1.012984  0
H  H28  1  0.32132251  0.89029599  0.82578705  1  0.032734  0  0.099472  0.108644  0  0.974744  0
H  H29  1  0.17868098  0.60969939  0.32578621  1  0.032958  0  0.099482  0.108668  0  0.974776  0
H  H30  1  0.67868236  0.10970588  0.17421108  1  0.03295  0  0.099426  0.108625  0  0.974738  0
H  H31  1  0.82132345  0.39029631  0.67421440  1  0.032766  0  0.099487  0.108698  0  0.974718  0
H  H32  1  0.39009445  0.82252225  0.82710903  1  0.036357  0  0.095801  0.10093  0  0.988433  0
H  H33  1  0.10991033  0.67747311  0.32710769  1  0.036178  0  0.095835  0.101049  0  0.988404  0
H  H34  1  0.60991001  0.17747688  0.17288911  1  0.036178  0  0.095833  0.101008  0  0.988439  0
H  H35  1  0.89009463  0.32252397  0.67289341  1  0.036104  0  0.095804  0.100984  0  0.988411  0
H  H36  1  0.37072647  0.03455178  0.75562774  1  0.071739  0  0.100115  0.107543  0  1.001885  0
H  H37  1  0.12927309  0.46544185  0.25562467  1  0.071953  0  0.100182  0.10763  0  1.001904  0
H  H38  1  0.62927919  0.96545215  0.24437138  1  0.071781  0  0.100112  0.107525  0  1.002052  0
H  H39  1  0.87073004  0.53455385  0.74437842  1  0.071802  0  0.100125  0.107477  0  1.00199  0
H  H40  1  0.47355084  0.06854122  0.70737426  1  0.030407  0  0.097776  0.1036  0  0.97793  0
H  H41  1  0.02644763  0.43145459  0.20737358  1  0.030162  0  0.097765  0.103549  0  0.977986  0
H  H42  1  0.52645783  0.93146548  0.29262783  1  0.030413  0  0.097821  0.103619  0  0.977962  0
H  H43  1  0.97355665  0.56853906  0.79262951  1  0.030301  0  0.097792  0.103592  0  0.977911  0
H  H44  1  0.54016142  0.87129283  0.75814286  1  0.037132  0  0.096338  0.09864  0  1.021742  0
H  H45  1  0.95984004  0.62870309  0.25814478  1  0.037229  0  0.096407  0.0987  0  1.021606  0
H  H46  1  0.45984332  0.12871042  0.24185725  1  0.03707  0  0.096339  0.098566  0  1.021779  0
H  H47  1  0.04016233  0.37129397  0.74185533  1  0.03726  0  0.096357  0.098641  0  1.021738  0
H  H48  1  0.57456694  0.97128646  0.70909153  1  0.010596  0  0.096696  0.100816  0  0.982417  0
H  H49  1  0.92543527  0.52871304  0.20909091  1  0.01058  0  0.096678  0.100785  0  0.982433  0
H  H50  1  0.42544055  0.02871886  0.29091106  1  0.010548  0  0.09668  0.10076  0  0.982426  0
H  H51  1  0.07456904  0.47128403  0.79091119  1  0.010487  0  0.096729  0.100831  0  0.982379  0
H  H52  1  0.48936719  0.08872264  0.92112934  1  0.042965  0  0.092834  0.097221  0  1.028964  0
H  H53  1  0.01063483  0.41127408  0.42112905  1  0.042969  0  0.092865  0.097243  0  1.028896  0
H  H54  1  0.51062898  0.91127847  0.07887325  1  0.04301  0  0.092826  0.097195  0  1.028852  0
H  H55  1  0.98936860  0.58872573  0.57887354  1  0.042987  0  0.092837  0.097176  0  1.028937  0
H  H56  1  0.38036655  0.04609578  0.88024088  1  0.043164  0  0.098271  0.104561  0  1.006163  0
H  H57  1  0.11963452  0.45390015  0.38024072  1  0.043404  0  0.098256  0.104589  0  1.00617  0
H  H58  1  0.61963234  0.95390399  0.11975824  1  0.043193  0  0.098278  0.104563  0  1.006163  0
H  H59  1  0.88036967  0.54609829  0.61976138  1  0.043167  0  0.098259  0.104568  0  1.006195  0
H  H60  1  0.27595171  0.40100503  0.87370768  1  0.102628  0  0.120437  0.051111  0  0.998676  0
H  H61  1  0.22405122  0.09900413  0.37371168  1  0.102719  0  0.120443  0.051099  0  0.998695  0
H  H62  1  0.72404152  0.59900359  0.12629342  1  0.102524  0  0.120448  0.051026  0  0.998784  0
H  H63  1  0.77595430  0.90099775  0.62629338  1  0.102007  0  0.120443  0.051067  0  0.998765  0
H  H64  1  0.03460604  0.24118669  0.79841881  1  0.057997  0  0.095199  0.100407  0  1.041339  0
H  H65  1  0.46539839  0.25881455  0.29841210  1  0.057781  0  0.095201  0.100456  0  1.04128  0
H  H66  1  0.96540113  0.75881109  0.20158032  1  0.06244  0  0.095234  0.100506  0  1.041234  0
H  H67  1  0.53459672  0.74118381  0.70158306  1  0.062435  0  0.095224  0.100468  0  1.041314  0
H  H68  1  0.02203799  0.18236426  0.87507299  1  0.097402  0  0.093208  0.109804  0  1.061985  0
H  H69  1  0.47796959  0.31764353  0.37506217  1  0.097885  0  0.093222  0.109756  0  1.062175  0
H  H70  1  0.97796705  0.81764309  0.12492960  1  0.097476  0  0.093223  0.109831  0  1.061952  0
H  H71  1  0.52203333  0.68235833  0.62493200  1  0.097576  0  0.093228  0.10983  0  1.061959  0
H  H72  1  0.10948286  0.18115328  0.81668599  1  0.054439  0  0.103927  0.119679  0  1.014347  0
H  H73  1  0.39051862  0.31884875  0.31667676  1  0.054208  0  0.103897  0.119668  0  1.014266  0
H  H74  1  0.89052357  0.81884930  0.18332156  1  0.054309  0  0.103907  0.119715  0  1.014313  0
H  H75  1  0.60947884  0.68115238  0.68332186  1  0.054272  0  0.103885  0.119673  0  1.014291  0
H  H76  1  0.16653182  0.41588671  0.93218936  1  0.047822  0  0.104314  0.117509  0  1.011696  0
H  H77  1  0.33348131  0.08412209  0.43219017  1  0.047786  0  0.104324  0.117601  0  1.011659  0
H  H78  1  0.83346192  0.58411986  0.06780977  1  0.04765  0  0.104309  0.11751  0  1.011702  0
H  H79  1  0.66652801  0.91588462  0.56781490  1  0.047927  0  0.104323  0.117547  0  1.011765  0
H  H80  1  0.07207728  0.31130692  0.95651773  1  0.093598  0  0.095686  0.123844  0  1.017157  0
H  H81  1  0.42793637  0.18870660  0.45651312  1  0.093507  0  0.095668  0.123871  0  1.017163  0
H  H82  1  0.92792062  0.68870037  0.04348139  1  0.093446  0  0.095671  0.12387  0  1.017229  0
H  H83  1  0.57207672  0.81130151  0.54348353  1  0.093497  0  0.095667  0.123851  0  1.017178  0
H  H84  1  0.05618565  0.37717749  0.88973544  1  0.063446  0  0.099668  0.115886  0  1.009276  0
H  H85  1  0.44382163  0.12283120  0.38973190  1  0.063369  0  0.099653  0.115887  0  1.009375  0
H  H86  1  0.94380662  0.62282359  0.11026368  1  0.063634  0  0.099664  0.115886  0  1.009167  0
H  H87  1  0.55618336  0.87716930  0.61026772  1  0.063466  0  0.09967  0.115879  0  1.009395  0
H  H88  1  0.43396477  0.58831502  0.78160523  1  0.092134  0  0.119068  0.041779  0  1.005957  0
H  H89  1  0.06603605  0.91168514  0.28160835  1  0.092054  0  0.119124  0.041889  0  1.005892  0
H  H90  1  0.56602878  0.41170113  0.21839686  1  0.092282  0  0.119204  0.041949  0  1.005961  0
H  H91  1  0.93396401  0.08831601  0.71839524  1  0.092087  0  0.119103  0.041846  0  1.005965  0
H  H92  1  0.51920382  0.50777078  0.92478368  1  0.129426  0  0.11239  0.134892  0  1.013828  0
H  H93  1  0.98079767  0.99221857  0.42478631  1  0.129584  0  0.112462  0.134976  0  1.013719  0
H  H94  1  0.48078680  0.49223439  0.07521296  1  0.129236  0  0.112337  0.134907  0  1.013773  0
H  H95  1  0.01920169  0.00777572  0.57521579  1  0.129554  0  0.112455  0.134995  0  1.013758  0
H  H96  1  0.49730225  0.59207407  0.97430025  1  0.09393  0  0.095666  0.124995  0  1.024691  0
H  H97  1  0.00269578  0.90791390  0.47430292  1  0.093699  0  0.095717  0.125023  0  1.024778  0
H  H98  1  0.50268474  0.40793175  0.02569788  1  0.094007  0  0.095672  0.125078  0  1.024723  0
H  H99  1  0.99729969  0.09208036  0.52570066  1  0.093776  0  0.095705  0.125058  0  1.024788  0
H  H100  1  0.60981204  0.61928583  0.93629758  1  0.068454  0  0.104562  0.12045  0  0.981621  0
H  H101  1  0.89018839  0.88070248  0.43629963  1  0.068112  0  0.104588  0.120534  0  0.981597  0
H  H102  1  0.39017985  0.38071593  0.06370204  1  0.068286  0  0.104589  0.12049  0  0.981667  0
H  H103  1  0.10980967  0.11929181  0.56370444  1  0.068221  0  0.104549  0.120513  0  0.98162  0
H  H104  1  0.48646219  0.72358072  0.82298446  1  0.055076  0  0.104719  0.111197  0  1.020163  0
H  H105  1  0.01353238  0.77641331  0.32298136  1  0.055003  0  0.104656  0.111089  0  1.020175  0
H  H106  1  0.51353001  0.27642858  0.17702309  1  0.054528  0  0.104645  0.111167  0  1.020215  0
H  H107  1  0.98646196  0.22358642  0.67701529  1  0.055015  0  0.104688  0.11117  0  1.020209  0
H  H108  1  0.59260164  0.75249946  0.86908697  1  0.048086  0  0.104253  0.122352  0  0.980343  0
H  H109  1  0.90739199  0.74749636  0.36908324  1  0.048002  0  0.104265  0.122331  0  0.980207  0
H  H110  1  0.40739133  0.24750847  0.13092255  1  0.048061  0  0.104235  0.122328  0  0.980408  0
H  H111  1  0.09260155  0.25250131  0.63091291  1  0.048095  0  0.104261  0.122397  0  0.980324  0
H  H112  1  0.48357829  0.72849141  0.91152101  1  0.114123  0  0.099861  0.115385  0  1.039264  0
H  H113  1  0.01641675  0.77150055  0.41151838  1  0.114067  0  0.099891  0.11539  0  1.039293  0
H  H114  1  0.51641432  0.27152062  0.08848653  1  0.114665  0  0.09992  0.11554  0  1.039256  0
H  H115  1  0.98357821  0.22849577  0.58847876  1  0.114064  0  0.099921  0.115455  0  1.039298  0
H  H116  1  0.46687720  0.50362878  0.60913663  1  0.127844  0  0.1189  0.037212  0  1.05624  0
H  H117  1  0.03312075  0.99635208  0.10915417  1  0.127228  0  0.118924  0.037272  0  1.0562  0
H  H118  1  0.53312004  0.49636002  0.39084714  1  0.127184  0  0.118865  0.03714  0  1.056218  0
H  H119  1  0.96688767  0.00363887  0.89084991  1  0.127232  0  0.118882  0.037114  0  1.056125  0
H  H120  1  0.73845195  0.56814833  0.64924183  1  0.038598  0  0.101408  0.116198  0  0.985565  0
H  H121  1  0.76154837  0.93186808  0.14924534  1  0.038673  0  0.10143  0.116271  0  0.985572  0
H  H122  1  0.26154164  0.43185618  0.35075035  1  0.039024  0  0.101402  0.116178  0  0.985532  0
H  H123  1  0.23845642  0.06814201  0.85075279  1  0.038677  0  0.101388  0.116217  0  0.985556  0
H  H124  1  0.71497759  0.47453672  0.59207925  1  0.094426  0  0.098068  0.111342  0  1.046918  0
H  H125  1  0.78503761  0.02547975  0.09208025  1  0.094261  0  0.098043  0.111402  0  1.047025  0
H  H126  1  0.28502459  0.52546992  0.40791145  1  0.094526  0  0.098041  0.111313  0  1.04701  0
H  H127  1  0.21497913  0.97453113  0.90791590  1  0.094442  0  0.098079  0.111415  0  1.046894  0
H  H128  1  0.66031076  0.45470156  0.67233365  1  0.08255  0  0.111605  0.135623  0  0.993644  0
H  H129  1  0.83969735  0.04531167  0.17233669  1  0.082239  0  0.111589  0.135661  0  0.993798  0
H  H130  1  0.33968048  0.54530020  0.32765408  1  0.083057  0  0.111587  0.135593  0  0.993693  0
H  H131  1  0.16031757  0.95469782  0.82765896  1  0.082474  0  0.111588  0.135635  0  0.993662  0
H  H132  1  0.64000933  0.53652860  0.50325314  1  0.089934  0  0.096171  0.117126  0  1.014446  0
H  H133  1  0.85999968  0.96347668  0.00326068  1  0.089073  0  0.096201  0.117156  0  1.014586  0
H  H134  1  0.35999518  0.46347738  0.49673806  1  0.089055  0  0.09623  0.117231  0  1.014499  0
H  H135  1  0.14000923  0.03652728  0.99673894  1  0.089051  0  0.096236  0.117261  0  1.014436  0
H  H136  1  0.67694878  0.64061793  0.55069648  1  0.043103  0  0.104419  0.122619  0  0.969569  0
H  H137  1  0.82305200  0.85938786  0.05070293  1  0.043241  0  0.104421  0.122691  0  0.969573  0
H  H138  1  0.32305041  0.35938937  0.44929868  1  0.04355  0  0.104429  0.122728  0  0.969633  0
H  H139  1  0.17694974  0.14061262  0.94929421  1  0.043188  0  0.104418  0.122692  0  0.969636  0
H  H140  1  0.55615138  0.58268091  0.52997326  1  0.092271  0  0.101151  0.123636  0  1.02904  0
H  H141  1  0.94385076  0.91731664  0.02998290  1  0.092518  0  0.101116  0.123549  0  1.029135  0
H  H142  1  0.44384514  0.41731610  0.47001695  1  0.092321  0  0.101158  0.123662  0  1.029128  0
H  H143  1  0.05615550  0.08268046  0.97001523  1  0.092664  0  0.101151  0.123642  0  1.029186  0
H  H144  1  0.21689230  0.19179969  0.72591714  1  0.108003  0  0.117985  0.046617  0  1.029825  0
H  H145  1  0.28309991  0.30818660  0.22590154  1  0.108384  0  0.117965  0.046536  0  1.029964  0
H  H146  1  0.78310600  0.80819186  0.27409684  1  0.108281  0  0.117966  0.046576  0  1.02992  0
H  H147  1  0.71690356  0.69180157  0.77408867  1  0.108475  0  0.117955  0.046647  0  1.029942  0
H  H148  1  0.28677669  0.09562646  0.55796951  1  0.080672  0  0.094135  0.113083  0  1.015378  0
H  H149  1  0.21318205  0.40437024  0.05797488  1  0.081199  0  0.094166  0.113179  0  1.015141  0
H  H150  1  0.71318690  0.90437574  0.44202169  1  0.081204  0  0.094149  0.113139  0  1.015238  0
H  H151  1  0.78680108  0.59562391  0.94202870  1  0.080856  0  0.09417  0.113177  0  1.015229  0
H  H152  1  0.34945547  0.06295595  0.61959475  1  0.077851  0  0.102678  0.117665  0  1.00599  0
H  H153  1  0.15052136  0.43704241  0.11961625  1  0.078115  0  0.102719  0.117785  0  1.005654  0
H  H154  1  0.65052724  0.93705053  0.38038010  1  0.078197  0  0.102688  0.117729  0  1.005595  0
H  H155  1  0.84947254  0.56295115  0.88039476  1  0.078053  0  0.102726  0.117702  0  1.005635  0
H  H156  1  0.38037336  0.18319323  0.60223774  1  0.099077  0  0.109539  0.133016  0  0.996336  0
H  H157  1  0.11959085  0.31680762  0.10225359  1  0.099449  0  0.10949  0.133172  0  0.996172  0
H  H158  1  0.61959509  0.81681655  0.39774503  1  0.099103  0  0.109499  0.133144  0  0.996185  0
H  H159  1  0.88039774  0.68318727  0.89775593  1  0.099647  0  0.109452  0.133095  0  0.996278  0
H  H160  1  0.14123400  0.04582850  0.71608750  1  0.067371  0  0.102785  0.1196  0  1.014812  0
H  H161  1  0.35875598  0.45415533  0.21608211  1  0.067481  0  0.102793  0.119632  0  1.014789  0
H  H162  1  0.85876327  0.95416373  0.28391311  1  0.067368  0  0.102776  0.119631  0  1.014805  0
H  H163  1  0.64124425  0.54583281  0.78391157  1  0.067412  0  0.102796  0.119596  0  1.014797  0
H  H164  1  0.21833499  0.98811802  0.69824796  1  0.089125  0  0.095626  0.105282  0  1.049399  0
H  H165  1  0.28165268  0.51186477  0.19825236  1  0.089397  0  0.095582  0.105225  0  1.049395  0
H  H166  1  0.78166319  0.01187490  0.30174620  1  0.089169  0  0.095651  0.105295  0  1.049316  0
H  H167  1  0.71834610  0.48812130  0.80174924  1  0.089581  0  0.095593  0.105183  0  1.049503  0
H  H168  1  0.14132164  0.99704816  0.63642252  1  0.097378  0  0.093752  0.107036  0  1.06895  0
H  H169  1  0.35866375  0.50294543  0.13642032  1  0.097404  0  0.093701  0.106979  0  1.06881  0
H  H170  1  0.85867097  0.00294539  0.36357661  1  0.097357  0  0.093745  0.107031  0  1.068811  0
H  H171  1  0.64133081  0.49704814  0.86357731  1  0.097499  0  0.093703  0.106975  0  1.068899  0
C  C172  1  0.49806184  0.18872363  0.81060821  1  0.958046  0  0.219921  0.239392  0  3.95535  0
C  C173  1  0.00193734  0.31127240  0.31060781  1  0.957908  0  0.219956  0.239356  0  3.955354  0
C  C174  1  0.50193498  0.81127749  0.18939438  1  0.957979  0  0.219899  0.239395  0  3.955468  0
C  C175  1  0.99806762  0.68872469  0.68939280  1  0.957503  0  0.219941  0.239466  0  3.955288  0
C  C176  1  0.49918386  0.09387902  0.81301507  1  0.084672  0  -0.000527  0.109778  0  3.796366  0
C  C177  1  0.00081712  0.40611832  0.31301525  1  0.084938  0  -0.000547  0.109697  0  3.796457  0
C  C178  1  0.50081894  0.90612420  0.18698554  1  0.084103  0  -0.000502  0.109616  0  3.796422  0
C  C179  1  0.99918849  0.59387877  0.68698734  1  0.084842  0  -0.000599  0.10964  0  3.79626  0
C  C180  1  0.60001239  0.09640071  0.80983207  1  -0.056813  0  -0.159726  -0.245677  0  3.835443  0
C  C181  1  0.89998786  0.40359721  0.30983029  1  -0.057173  0  -0.159723  -0.245581  0  3.835329  0
C  C182  1  0.39999041  0.90360251  0.19017102  1  -0.057055  0  -0.159637  -0.245334  0  3.835305  0
C  C183  1  0.10001684  0.59639918  0.69017082  1  -0.056989  0  -0.159667  -0.245521  0  3.835159  0
C  C184  1  0.59831714  0.99806623  0.81454112  1  0.064984  0  -0.002023  0.109757  0  3.79919  0
C  C185  1  0.90168236  0.50193133  0.31453986  1  0.065069  0  -0.001993  0.109879  0  3.798934  0
C  C186  1  0.40168566  0.00193699  0.18546197  1  0.064811  0  -0.002014  0.109631  0  3.799474  0
C  C187  1  0.09832000  0.49806573  0.68546074  1  0.064752  0  -0.002059  0.10963  0  3.799231  0
C  C188  1  0.55052620  0.95320065  0.88003299  1  -0.014189  0  -0.159076  -0.249228  0  3.816431  0
C  C189  1  0.94947523  0.54679694  0.38003096  1  -0.014545  0  -0.15907  -0.249132  0  3.816471  0
C  C190  1  0.44947621  0.04680325  0.11996960  1  -0.01527  0  -0.159027  -0.249051  0  3.816507  0
C  C191  1  0.05052728  0.45320217  0.61996915  1  -0.014079  0  -0.15913  -0.249136  0  3.816551  0
C  C192  1  0.45004373  0.95010822  0.88301833  1  0.058339  0  -0.003012  0.112832  0  3.820814  0
C  C193  1  0.04995859  0.54989085  0.38301579  1  0.058297  0  -0.003059  0.112771  0  3.820912  0
C  C194  1  0.54995960  0.04989638  0.11698575  1  0.058613  0  -0.003003  0.112874  0  3.820715  0
C  C195  1  0.95004483  0.45010896  0.61698383  1  0.058227  0  -0.003031  0.112683  0  3.821055  0
C  C196  1  0.39364877  0.89345159  0.82396245  1  -0.030716  0  -0.150946  -0.247195  0  3.828264  0
C  C197  1  0.10635463  0.60654522  0.32395821  1  -0.031036  0  -0.151094  -0.247508  0  3.82823  0
C  C198  1  0.60635622  0.10654891  0.17604261  1  -0.030842  0  -0.151039  -0.247463  0  3.828217  0
C  C199  1  0.89364995  0.39345254  0.67603992  1  -0.030454  0  -0.15105  -0.247427  0  3.828183  0
C  C200  1  0.44034811  0.93791810  0.75820207  1  0.059134  0  -0.003094  0.104733  0  3.821897  0
C  C201  1  0.05965230  0.56207594  0.25820010  1  0.059445  0  -0.003037  0.104736  0  3.821743  0
C  C202  1  0.55965493  0.06208239  0.24180151  1  0.059169  0  -0.003029  0.104814  0  3.82172  0
C  C203  1  0.94035083  0.43791976  0.74180051  1  0.058736  0  -0.002996  0.104902  0  3.821602  0
C  C204  1  0.44229051  0.03613695  0.75451057  1  -0.028321  0  -0.155216  -0.249792  0  3.839805  0
C  C205  1  0.05770960  0.46385809  0.25450906  1  -0.028803  0  -0.155234  -0.249706  0  3.839774  0
C  C206  1  0.55771436  0.96386492  0.24549003  1  -0.028382  0  -0.155267  -0.249809  0  3.840002  0
C  C207  1  0.94229327  0.53613692  0.74549353  1  -0.027904  0  -0.155259  -0.249761  0  3.839687  0
C  C208  1  0.54087496  0.94104514  0.75616939  1  0.006526  0  -0.156548  -0.249192  0  3.850356  0
C  C209  1  0.95912614  0.55895152  0.25616891  1  0.006733  0  -0.156605  -0.249239  0  3.850353  0
C  C210  1  0.45912887  0.05895741  0.24383220  1  0.006824  0  -0.156566  -0.249039  0  3.850304  0
C  C211  1  0.04087623  0.44104554  0.74383269  1  0.006694  0  -0.156612  -0.249179  0  3.850487  0
C  C212  1  0.45204378  0.04799826  0.87841975  1  -0.038524  0  -0.159546  -0.250193  0  3.823417  0
C  C213  1  0.04795772  0.45200047  0.37841917  1  -0.038831  0  -0.15952  -0.250241  0  3.823482  0
C  C214  1  0.54795734  0.95200564  0.12158036  1  -0.03796  0  -0.159542  -0.250119  0  3.823155  0
C  C215  1  0.95204608  0.54799866  0.62158293  1  -0.0387  0  -0.159465  -0.250047  0  3.823365  0
C  C216  1  0.69498377  0.99677094  0.81300879  1  0.970191  0  0.222915  0.243337  0  3.943507  0
C  C217  1  0.80501575  0.50322667  0.31300567  1  0.969927  0  0.222903  0.243406  0  3.943513  0
C  C218  1  0.30501718  0.00322747  0.18699925  1  0.969878  0  0.222867  0.243335  0  3.943716  0
C  C219  1  0.19498950  0.49677452  0.68699395  1  0.969679  0  0.222892  0.243329  0  3.943719  0
C  C220  1  0.40221319  0.90375319  0.94490170  1  0.975709  0  0.225882  0.236476  0  3.965569  0
C  C221  1  0.09778943  0.59624669  0.44489889  1  0.976076  0  0.225818  0.236401  0  3.96571  0
C  C222  1  0.59778649  0.09624864  0.05510040  1  0.976057  0  0.225905  0.236531  0  3.965487  0
C  C223  1  0.90221712  0.40375451  0.55509924  1  0.976132  0  0.225961  0.236607  0  3.965431  0
C  C224  1  0.38292486  0.87908274  0.70336552  1  0.93616  0  0.222834  0.23205  0  3.972732  0
C  C225  1  0.11707802  0.62091098  0.20336383  1  0.936276  0  0.222791  0.231979  0  3.972699  0
C  C226  1  0.61707947  0.12091776  0.29663558  1  0.9364  0  0.222802  0.232072  0  3.972689  0
C  C227  1  0.88292863  0.37908544  0.79663677  1  0.936072  0  0.222819  0.23205  0  3.972789  0
C  C228  1  0.23104403  0.33641043  0.84931447  1  1.398223  0  0.17142  0.297261  0  4.119689  0
C  C229  1  0.26896329  0.16358994  0.34930940  1  1.398303  0  0.171391  0.297189  0  4.119599  0
C  C230  1  0.76895519  0.66360030  0.15068316  1  1.398845  0  0.171568  0.297607  0  4.119526  0
C  C231  1  0.73104076  0.83640645  0.65068972  1  1.399561  0  0.17146  0.297351  0  4.119832  0
C  C232  1  0.07295499  0.22209828  0.83769707  1  0.261487  0  -0.141006  -0.272565  0  3.892306  0
C  C233  1  0.42705069  0.27790792  0.33768904  1  0.26125  0  -0.140978  -0.27261  0  3.89222  0
C  C234  1  0.92705002  0.77790565  0.16230602  1  0.25693  0  -0.141001  -0.272714  0  3.892045  0
C  C235  1  0.57294925  0.72209460  0.66230760  1  0.256831  0  -0.140963  -0.272644  0  3.892129  0
C  C236  1  0.10741560  0.35525590  0.91451182  1  0.271141  0  -0.133705  -0.27387  0  3.896405  0
C  C237  1  0.39259347  0.14475410  0.41450996  1  0.271375  0  -0.13363  -0.273962  0  3.896459  0
C  C238  1  0.89258021  0.64474932  0.08548681  1  0.270952  0  -0.13367  -0.273918  0  3.896465  0
C  C239  1  0.60741310  0.85525053  0.58549016  1  0.270936  0  -0.133681  -0.273889  0  3.896645  0
C  C240  1  0.45396266  0.55518455  0.82394157  1  1.37306  0  0.175837  0.296666  0  4.097406  0
C  C241  1  0.04604243  0.94481160  0.32394640  1  1.37305  0  0.175807  0.296469  0  4.09729  0
C  C242  1  0.54603763  0.44482893  0.17605755  1  1.371311  0  0.175672  0.296483  0  4.096868  0
C  C243  1  0.95395852  0.05518682  0.67605817  1  1.373008  0  0.175765  0.296521  0  4.097389  0
C  C244  1  0.53393685  0.58099570  0.93054789  1  0.190414  0  -0.135571  -0.271855  0  3.860234  0
C  C245  1  0.96606326  0.91899346  0.43054959  1  0.191134  0  -0.135688  -0.272098  0  3.860517  0
C  C246  1  0.46605415  0.41900879  0.06945272  1  0.190212  0  -0.135556  -0.272045  0  3.860177  0
C  C247  1  0.03393415  0.08100082  0.56945251  1  0.190785  0  -0.135663  -0.272147  0  3.860569  0
C  C248  1  0.51701145  0.70997156  0.86884315  1  0.235208  0  -0.132998  -0.284227  0  3.922478  0
C  C249  1  0.98298372  0.79002154  0.36884058  1  0.235791  0  -0.132957  -0.284118  0  3.922374  0
C  C250  1  0.48298089  0.29003979  0.13116489  1  0.23466  0  -0.133031  -0.284486  0  3.922654  0
C  C251  1  0.01700994  0.20997476  0.63115706  1  0.23545  0  -0.133035  -0.284345  0  3.922601  0
C  C252  1  0.52230916  0.48893209  0.63499598  1  1.3563  0  0.174876  0.303024  0  4.079968  0
C  C253  1  0.97769077  0.01105485  0.13500905  1  1.356753  0  0.174851  0.30277  0  4.079589  0
C  C254  1  0.47768784  0.51105945  0.36499225  1  1.35676  0  0.175011  0.303197  0  4.079345  0
C  C255  1  0.02231582  0.98893472  0.86499255  1  1.356836  0  0.175031  0.303331  0  4.079421  0
C  C256  1  0.68476794  0.50328833  0.63114072  1  0.255535  0  -0.136054  -0.276282  0  3.887273  0
C  C257  1  0.81523908  0.99672529  0.13114554  1  0.256077  0  -0.136079  -0.276562  0  3.887697  0
C  C258  1  0.31522955  0.49671622  0.36884800  1  0.254962  0  -0.136051  -0.276247  0  3.887377  0
C  C259  1  0.18477180  0.00328212  0.86885209  1  0.255935  0  -0.136069  -0.276482  0  3.887382  0
C  C260  1  0.62035982  0.57273226  0.54337676  1  0.232731  0  -0.1331  -0.275838  0  3.899051  0
C  C261  1  0.87964480  0.92727174  0.04338554  1  0.233112  0  -0.133125  -0.275902  0  3.899271  0
C  C262  1  0.37964091  0.42727232  0.45661345  1  0.233057  0  -0.133168  -0.27607  0  3.899338  0
C  C263  1  0.12036122  0.07272809  0.95661259  1  0.233537  0  -0.133175  -0.276072  0  3.899247  0
C  C264  1  0.26704712  0.19858760  0.68551472  1  1.376813  0  0.167903  0.293942  0  4.109352  0
C  C265  1  0.23294464  0.30139583  0.18549864  1  1.37652  0  0.167815  0.294078  0  4.109762  0
C  C266  1  0.73294793  0.80140392  0.31449678  1  1.377069  0  0.167823  0.293998  0  4.10986  0
C  C267  1  0.76705702  0.69859438  0.81449404  1  1.376671  0  0.16782  0.293739  0  4.110031  0
C  C268  1  0.32284328  0.11579764  0.60578712  1  0.222641  0  -0.13517  -0.266877  0  3.876755  0
C  C269  1  0.17712594  0.38420108  0.10579786  1  0.221638  0  -0.135188  -0.267228  0  3.876307  0
C  C270  1  0.67713138  0.88420808  0.39419912  1  0.221991  0  -0.135161  -0.267104  0  3.876216  0
C  C271  1  0.82286369  0.61579313  0.89420820  1  0.222202  0  -0.135165  -0.267049  0  3.876192  0
C  C272  1  0.18545603  0.03314681  0.67813082  1  0.22871  0  -0.144792  -0.296417  0  3.923711  0
C  C273  1  0.31453001  0.46684022  0.17812952  1  0.227872  0  -0.14466  -0.29626  0  3.923443  0
C  C274  1  0.81453799  0.96684539  0.32186781  1  0.228858  0  -0.144701  -0.296349  0  3.92364  0
C  C275  1  0.68546750  0.53314926  0.82186812  1  0.228013  0  -0.1447  -0.296232  0  3.92361  0
N  N276  1  0.54983024  0.26223803  0.84847039  1  -0.758876  0  -0.248426  -0.256386  0  3.514966  0
N  N277  1  0.95017110  0.23775939  0.34847349  1  -0.758703  0  -0.248401  -0.25627  0  3.514887  0
N  N278  1  0.45016268  0.73776306  0.15153467  1  -0.758947  0  -0.248413  -0.256316  0  3.515064  0
N  N279  1  0.04982959  0.76223834  0.65152662  1  -0.758412  0  -0.248423  -0.256344  0  3.514711  0
N  N280  1  0.52203639  0.33089359  0.83268567  1  -0.090192  0  -0.087021  -0.049624  0  3.192925  0
N  N281  1  0.97796774  0.16910434  0.33269376  1  -0.090075  0  -0.087051  -0.049681  0  3.192961  0
N  N282  1  0.47796225  0.66910891  0.16731395  1  -0.090038  0  -0.087069  -0.049744  0  3.192957  0
N  N283  1  0.02203021  0.83089131  0.66730834  1  -0.090181  0  -0.087053  -0.049594  0  3.192835  0
N  N284  1  0.45657909  0.29907857  0.78761801  1  -0.182776  0  -0.095467  -0.02286  0  3.514284  0
N  N285  1  0.04342217  0.20091613  0.28762234  1  -0.18304  0  -0.095518  -0.022899  0  3.514416  0
N  N286  1  0.54341994  0.70092325  0.21238260  1  -0.182696  0  -0.095574  -0.023036  0  3.514117  0
N  N287  1  0.95657548  0.79907541  0.71237975  1  -0.182683  0  -0.095609  -0.023227  0  3.514342  0
N  N288  1  0.43934878  0.21092952  0.77252883  1  -0.685302  0  -0.219588  -0.266417  0  3.172966  0
N  N289  1  0.06064772  0.28906288  0.27252725  1  -0.684756  0  -0.219577  -0.26641  0  3.173006  0
N  N290  1  0.56064491  0.78907020  0.22747524  1  -0.68533  0  -0.219462  -0.266209  0  3.172658  0
N  N291  1  0.93935292  0.71092801  0.72747237  1  -0.685247  0  -0.219419  -0.266146  0  3.172771  0
N  N292  1  0.77039532  0.04994357  0.84927712  1  -0.780648  0  -0.245688  -0.243104  0  3.514436  0
N  N293  1  0.72960394  0.45005517  0.34927483  1  -0.780695  0  -0.245741  -0.243133  0  3.514342  0
N  N294  1  0.22960666  0.95005417  0.15073141  1  -0.780376  0  -0.245622  -0.242897  0  3.514056  0
N  N295  1  0.27040237  0.54994877  0.65072578  1  -0.780466  0  -0.245554  -0.242922  0  3.51441  0
N  N296  1  0.84025632  0.02188362  0.83482566  1  -0.099328  0  -0.094527  -0.079435  0  3.236653  0
N  N297  1  0.65974285  0.47811489  0.33482313  1  -0.099029  0  -0.094589  -0.079478  0  3.236554  0
N  N298  1  0.15974540  0.97811344  0.16518139  1  -0.099457  0  -0.094651  -0.079602  0  3.236708  0
N  N299  1  0.34026148  0.52188561  0.66517550  1  -0.099235  0  -0.094683  -0.079645  0  3.236744  0
N  N300  1  0.80713345  0.95429827  0.79205215  1  -0.220248  0  -0.097884  -0.049747  0  3.531054  0
N  N301  1  0.69286553  0.54569794  0.29204645  1  -0.22105  0  -0.097813  -0.049679  0  3.530863  0
N  N302  1  0.19286541  0.04569808  0.20795441  1  -0.220579  0  -0.097813  -0.049669  0  3.531018  0
N  N303  1  0.30713816  0.45430255  0.70795218  1  -0.22053  0  -0.097809  -0.049635  0  3.530846  0
N  N304  1  0.71709055  0.93665386  0.77711879  1  -0.674751  0  -0.21994  -0.263287  0  3.181778  0
N  N305  1  0.78290755  0.56334007  0.27711160  1  -0.673936  0  -0.219896  -0.263348  0  3.18197  0
N  N306  1  0.28290830  0.06334248  0.22288975  1  -0.67402  0  -0.219907  -0.263345  0  3.182106  0
N  N307  1  0.21709746  0.43666387  0.72288802  1  -0.674341  0  -0.219911  -0.263258  0  3.181966  0
N  N308  1  0.41944373  0.83569704  0.97512192  1  -0.650215  0  -0.207339  -0.246435  0  3.187758  0
N  N309  1  0.08055369  0.66429775  0.47512153  1  -0.649941  0  -0.207313  -0.24638  0  3.187846  0
N  N310  1  0.58055097  0.16429859  0.02487671  1  -0.650061  0  -0.207353  -0.246452  0  3.187779  0
N  N311  1  0.91945012  0.33570137  0.52487859  1  -0.649608  0  -0.207414  -0.246532  0  3.187749  0
N  N312  1  0.35778829  0.80930592  0.02423974  1  -0.214776  0  -0.124939  -0.050804  0  3.594997  0
N  N313  1  0.14221209  0.69069130  0.52423709  1  -0.214914  0  -0.124874  -0.050713  0  3.594995  0
N  N314  1  0.64221189  0.19069386  0.97576236  1  -0.215006  0  -0.124921  -0.050836  0  3.594989  0
N  N315  1  0.85779107  0.30930782  0.47576302  1  -0.215618  0  -0.124908  -0.050767  0  3.594893  0
N  N316  1  0.30517172  0.85922086  0.02377870  1  -0.277196  0  -0.125223  -0.049211  0  3.589402  0
N  N317  1  0.19482985  0.64077776  0.52377420  1  -0.278971  0  -0.125183  -0.049129  0  3.589294  0
N  N318  1  0.69482846  0.14077892  0.97622488  1  -0.278179  0  -0.125182  -0.049073  0  3.589199  0
N  N319  1  0.80517448  0.35922275  0.47622591  1  -0.278662  0  -0.125132  -0.049036  0  3.589056  0
N  N320  1  0.33148964  0.91931221  0.97429441  1  -0.631928  0  -0.207791  -0.24624  0  3.177523  0
N  N321  1  0.16851132  0.58068674  0.47429192  1  -0.630721  0  -0.207798  -0.246259  0  3.177479  0
N  N322  1  0.66850532  0.08068410  0.02570571  1  -0.631096  0  -0.207828  -0.246323  0  3.177409  0
N  N323  1  0.83149432  0.41931377  0.52570819  1  -0.630519  0  -0.207823  -0.246291  0  3.177281  0
N  N324  1  0.30797426  0.88925722  0.67616463  1  -0.616235  0  -0.202572  -0.23937  0  3.191788  0
N  N325  1  0.19202857  0.61073803  0.17616081  1  -0.616481  0  -0.202461  -0.239204  0  3.191665  0
N  N326  1  0.69203373  0.11074605  0.32383499  1  -0.616391  0  -0.202606  -0.239487  0  3.191895  0
N  N327  1  0.80797848  0.38926113  0.82383732  1  -0.616204  0  -0.202589  -0.23943  0  3.191842  0
N  N328  1  0.27340824  0.81984171  0.63395530  1  -0.284229  0  -0.119604  -0.046264  0  3.567806  0
N  N329  1  0.22659174  0.68015620  0.13395236  1  -0.28431  0  -0.119625  -0.046365  0  3.567856  0
N  N330  1  0.72659506  0.18015947  0.36604630  1  -0.284219  0  -0.119569  -0.04617  0  3.567913  0
N  N331  1  0.77340791  0.31984221  0.86604429  1  -0.284193  0  -0.119619  -0.046334  0  3.567911  0
N  N332  1  0.32538270  0.76911463  0.63548095  1  -0.218767  0  -0.122019  -0.047319  0  3.574904  0
N  N333  1  0.17461909  0.73088462  0.13548333  1  -0.218799  0  -0.121995  -0.047325  0  3.574971  0
N  N334  1  0.67462113  0.23088792  0.36451768  1  -0.218895  0  -0.122058  -0.04746  0  3.575038  0
N  N335  1  0.82538003  0.26911241  0.86451827  1  -0.218787  0  -0.122023  -0.047275  0  3.574901  0
N  N336  1  0.39468281  0.80466717  0.67888407  1  -0.621708  0  -0.209998  -0.252918  0  3.183906  0
N  N337  1  0.10532116  0.69532938  0.17888879  1  -0.621571  0  -0.210084  -0.252929  0  3.18385  0
N  N338  1  0.60532545  0.19533679  0.32111109  1  -0.621577  0  -0.209922  -0.252766  0  3.183958  0
N  N339  1  0.89468353  0.30466702  0.82111677  1  -0.621668  0  -0.209942  -0.252886  0  3.183906  0
N  N340  1  0.14141297  0.30420749  0.86825310  1  -1.230986  0  -0.280638  0.034638  0  3.713006  0
N  N341  1  0.35859340  0.19580050  0.36825159  1  -1.230906  0  -0.280708  0.034694  0  3.712609  0
N  N342  1  0.85858815  0.69579640  0.13175048  1  -1.230938  0  -0.280701  0.034594  0  3.712832  0
N  N343  1  0.64140876  0.80420272  0.63175050  1  -1.231095  0  -0.280725  0.034571  0  3.712855  0
N  N344  1  0.50137097  0.61317703  0.87163891  1  -1.185255  0  -0.279626  0.038896  0  3.721815  0
N  N345  1  0.99862741  0.88681601  0.37163988  1  -1.185975  0  -0.279742  0.038947  0  3.722015  0
N  N346  1  0.49862008  0.38683431  0.12836517  1  -1.183301  0  -0.279562  0.039087  0  3.721228  0
N  N347  1  0.00136793  0.11317962  0.62836172  1  -1.185478  0  -0.279607  0.039053  0  3.721911  0
N  N348  1  0.60527459  0.51967159  0.60428315  1  -1.198377  0  -0.281361  0.03579  0  3.72358  0
N  N349  1  0.89472849  0.98032844  0.10429274  1  -1.198416  0  -0.281171  0.036075  0  3.723458  0
N  N350  1  0.39472114  0.48032335  0.39570210  1  -1.198766  0  -0.281248  0.035813  0  3.723408  0
N  N351  1  0.10528118  0.01967416  0.89570440  1  -1.199242  0  -0.281277  0.03584  0  3.72359  0
N  N352  1  0.25748386  0.11973551  0.65646171  1  -1.224112  0  -0.278966  0.038736  0  3.723844  0
N  N353  1  0.24248899  0.38025756  0.15646641  1  -1.223999  0  -0.278963  0.03861  0  3.724145  0
N  N354  1  0.74249853  0.88026343  0.34353295  1  -1.22478  0  -0.279051  0.038622  0  3.724132  0
N  N355  1  0.75750206  0.61973529  0.84353519  1  -1.224889  0  -0.27896  0.038745  0  3.723801  0
Cl  Cl356  1  0.66751557  0.41405977  0.98530395  1  -0.657857  0  -0.332985  -0.497331  0  1.165031  0
Cl  Cl357  1  0.83247217  0.08593601  0.48530675  1  -0.657931  0  -0.332956  -0.497258  0  1.165033  0
Cl  Cl358  1  0.33247576  0.58593720  0.01469666  1  -0.657884  0  -0.332982  -0.497336  0  1.164999  0
Cl  Cl359  1  0.16752185  0.91405619  0.51469336  1  -0.657827  0  -0.332976  -0.497289  0  1.165098  0
Cl  Cl360  1  0.91944820  0.15602349  0.98453366  1  -0.650692  0  -0.311248  -0.481559  0  1.214184  0
Cl  Cl361  1  0.58055317  0.34397242  0.48453288  1  -0.650732  0  -0.311269  -0.481571  0  1.214223  0
Cl  Cl362  1  0.08055404  0.84397493  0.01547141  1  -0.650707  0  -0.311255  -0.481561  0  1.214202  0
Cl  Cl363  1  0.41945037  0.65602602  0.51546625  1  -0.650715  0  -0.311264  -0.481572  0  1.214207  0
O  O364  1  0.26381789  0.29738577  0.80794788  1  -1.177906  0  -0.305204  -0.472149  0  2.411519  0
O  O365  1  0.23618241  0.20261652  0.30794803  1  -1.177952  0  -0.30519  -0.472106  0  2.411358  0
O  O366  1  0.73618479  0.70261883  0.19205670  1  -1.177958  0  -0.305349  -0.472395  0  2.411556  0
O  O367  1  0.76381556  0.79738256  0.69205505  1  -1.178076  0  -0.305243  -0.472185  0  2.411565  0
O  O368  1  0.43331324  0.47028506  0.82581741  1  -1.16524  0  -0.292134  -0.452396  0  2.449265  0
O  O369  1  0.06669800  0.02971539  0.32582811  1  -1.164912  0  -0.292064  -0.452278  0  2.4491  0
O  O370  1  0.56669565  0.52973396  0.17417428  1  -1.164537  0  -0.292049  -0.452306  0  2.448903  0
O  O371  1  0.93330543  0.97028442  0.67417944  1  -1.165133  0  -0.292106  -0.452366  0  2.449103  0
O  O372  1  0.50796110  0.44832730  0.68993779  1  -1.167576  0  -0.303145  -0.4593  0  2.398584  0
O  O373  1  0.99203510  0.05164831  0.18995704  1  -1.16747  0  -0.303294  -0.459235  0  2.398371  0
O  O374  1  0.49203397  0.55164916  0.31004202  1  -1.167494  0  -0.303331  -0.4594  0  2.398305  0
O  O375  1  0.00797125  0.94834400  0.81004456  1  -1.167495  0  -0.303285  -0.459433  0  2.398214  0
O  O376  1  0.32777990  0.27604509  0.66991575  1  -1.171848  0  -0.3169  -0.46905  0  2.363571  0
O  O377  1  0.17219252  0.22394687  0.16991512  1  -1.171919  0  -0.316854  -0.469144  0  2.363755  0
O  O378  1  0.67219910  0.72395177  0.33008585  1  -1.172179  0  -0.316807  -0.469096  0  2.363845  0
O  O379  1  0.82780112  0.77604600  0.83008648  1  -1.171826  0  -0.316826  -0.468974  0  2.363879  0
