# generated using pymatgen
data_CdH11C17NO4
_symmetry_space_group_name_H-M   'P 1'
_cell_length_a   6.76414140
_cell_length_b   14.04125460
_cell_length_c   14.73574811
_cell_angle_alpha   90.00037175
_cell_angle_beta   89.99888089
_cell_angle_gamma   90.00078290
_symmetry_Int_Tables_number   1
_chemical_formula_structural   CdH11C17NO4
_chemical_formula_sum   'Cd4 H44 C68 N4 O16'
_cell_volume   1399.55761332
_cell_formula_units_Z   4
loop_
 _symmetry_equiv_pos_site_id
 _symmetry_equiv_pos_as_xyz
  1  'x, y, z'
loop_
 _atom_site_type_symbol
 _atom_site_label
 _atom_site_symmetry_multiplicity
 _atom_site_fract_x
 _atom_site_fract_y
 _atom_site_fract_z
 _atom_site_occupancy
 _atom_site_hle17_bader_spin_density
 _atom_site_hle17_ddec_charge
 _atom_site_hle17_ddec_spin_density
 _atom_site_hle17_ddec_sum_bond_order
 _atom_site_hle17_magmom
 _atom_site_hse06_10hf_bader_spin_density
 _atom_site_hse06_10hf_ddec_charge
 _atom_site_hse06_10hf_ddec_spin_density
 _atom_site_hse06_10hf_ddec_sum_bond_order
 _atom_site_hse06_10hf_magmom
 _atom_site_hse06_bader_spin_density
 _atom_site_hse06_ddec_charge
 _atom_site_hse06_ddec_spin_density
 _atom_site_hse06_ddec_sum_bond_order
 _atom_site_hse06_magmom
 _atom_site_pbe_bader_spin_density
 _atom_site_pbe_cm5_charge
 _atom_site_pbe_ddec_charge
 _atom_site_pbe_ddec_spin_density
 _atom_site_pbe_ddec_sum_bond_order
 _atom_site_pbe_magmom
Cd  Cd0  1  0.15533418  0.19304039  0.46260145  1  0  1.219055  0  1.609148  0  0  1.038963  0  2.049327  0  0  1.098091  0  1.992939  0  0  0.788882  0.996487  0  2.088163  0
Cd  Cd1  1  0.34466165  0.80695794  0.96260222  1  0  1.219106  0  1.609058  0  0  1.038981  0  2.049269  0  0  1.098105  0  1.992884  0  0  0.788901  0.996504  0  2.088104  0
Cd  Cd2  1  0.65533708  0.30696016  0.53739793  1  0  1.219047  0  1.609171  0  0  1.038926  0  2.049384  0  0  1.098053  0  1.992993  0  0  0.788867  0.996451  0  2.088219  0
Cd  Cd3  1  0.84465883  0.69303924  0.03739990  1  0  1.219061  0  1.609143  0  0  1.038949  0  2.049373  0  0  1.098089  0  1.992955  0  0  0.788894  0.996471  0  2.088205  0
H  H4  1  0.21849539  0.33160258  0.75608449  1  0  0.096445  0  0.948759  0  0  0.109004  0  1.007706  0  0  0.111938  0  1.006139  0  0  0.103984  0.106883  0  1.008865  0
H  H5  1  0.28150181  0.66840075  0.25608349  1  0  0.096471  0  0.948661  0  0  0.109013  0  1.007651  0  0  0.111944  0  1.006083  0  0  0.103985  0.106893  0  1.008812  0
H  H6  1  0.71848754  0.16840408  0.24392043  1  0  0.096502  0  0.948739  0  0  0.109022  0  1.007741  0  0  0.111957  0  1.006177  0  0  0.103991  0.106901  0  1.008903  0
H  H7  1  0.78151588  0.83159459  0.74391649  1  0  0.09645  0  0.948763  0  0  0.108984  0  1.007759  0  0  0.111918  0  1.006191  0  0  0.103979  0.106869  0  1.008923  0
H  H8  1  0.18269406  0.45575631  0.87678878  1  0  0.091155  0  0.968  0  0  0.100874  0  1.033768  0  0  0.103646  0  1.032808  0  0  0.099453  0.098876  0  1.034535  0
H  H9  1  0.31730985  0.54424927  0.37678601  1  0  0.09122  0  0.967997  0  0  0.100904  0  1.033803  0  0  0.103674  0  1.032844  0  0  0.099458  0.098909  0  1.034578  0
H  H10  1  0.68269073  0.04425225  0.12321375  1  0  0.091215  0  0.967965  0  0  0.100871  0  1.033799  0  0  0.103641  0  1.032841  0  0  0.099418  0.098874  0  1.03457  0
H  H11  1  0.81730746  0.95574916  0.62321432  1  0  0.091227  0  0.967966  0  0  0.100892  0  1.033786  0  0  0.103663  0  1.032826  0  0  0.099425  0.098899  0  1.034562  0
H  H12  1  0.06539915  0.49283744  0.47864472  1  0  0.105922  0  0.974673  0  0  0.115371  0  1.037025  0  0  0.118766  0  1.035204  0  0  0.101291  0.112885  0  1.038462  0
H  H13  1  0.43461522  0.50716171  0.97863876  1  0  0.10603  0  0.974463  0  0  0.115367  0  1.036946  0  0  0.11878  0  1.035103  0  0  0.101311  0.112874  0  1.038386  0
H  H14  1  0.56539858  0.00716110  0.52136090  1  0  0.106015  0  0.974605  0  0  0.115394  0  1.037028  0  0  0.118801  0  1.035192  0  0  0.101315  0.112904  0  1.038476  0
H  H15  1  0.93459358  0.99283463  0.02135712  1  0  0.105903  0  0.974653  0  0  0.115357  0  1.037004  0  0  0.118774  0  1.035156  0  0  0.101291  0.112862  0  1.038447  0
H  H16  1  0.00874784  0.66084488  0.43515398  1  0  0.081219  0  0.955243  0  0  0.094771  0  1.011992  0  0  0.097496  0  1.011058  0  0  0.09657  0.092827  0  1.012699  0
H  H17  1  0.49126690  0.33915397  0.93514919  1  0  0.081219  0  0.955188  0  0  0.094772  0  1.011954  0  0  0.097497  0  1.011018  0  0  0.096551  0.092821  0  1.012666  0
H  H18  1  0.50875346  0.83915296  0.56484913  1  0  0.081239  0  0.955223  0  0  0.094734  0  1.012039  0  0  0.097458  0  1.011107  0  0  0.096564  0.092796  0  1.012754  0
H  H19  1  0.99125608  0.16084164  0.06485124  1  0  0.081143  0  0.955223  0  0  0.094727  0  1.011957  0  0  0.097452  0  1.011023  0  0  0.096562  0.092776  0  1.012665  0
H  H20  1  0.00662861  0.78814302  0.55438417  1  0  0.082824  0  0.954507  0  0  0.097147  0  1.010465  0  0  0.099519  0  1.010137  0  0  0.096584  0.095437  0  1.010748  0
H  H21  1  0.49338157  0.21185964  0.05437979  1  0  0.082807  0  0.954639  0  0  0.097155  0  1.010573  0  0  0.099537  0  1.010229  0  0  0.096555  0.095433  0  1.010848  0
H  H22  1  0.50662233  0.71186264  0.44561761  1  0  0.082778  0  0.95472  0  0  0.097123  0  1.010655  0  0  0.099508  0  1.010305  0  0  0.096536  0.095408  0  1.010938  0
H  H23  1  0.99338289  0.28813741  0.94562198  1  0  0.082781  0  0.954566  0  0  0.097109  0  1.010533  0  0  0.099496  0  1.010183  0  0  0.096488  0.095384  0  1.010806  0
H  H24  1  0.06466005  0.74564613  0.71511603  1  0  0.094008  0  0.994689  0  0  0.103072  0  1.060458  0  0  0.105943  0  1.059085  0  0  0.097815  0.101003  0  1.06148  0
H  H25  1  0.43532558  0.25435905  0.21510905  1  0  0.094052  0  0.9947  0  0  0.103132  0  1.060418  0  0  0.106002  0  1.059044  0  0  0.097891  0.101067  0  1.061447  0
H  H26  1  0.56465588  0.75435777  0.28488794  1  0  0.094071  0  0.994637  0  0  0.103132  0  1.0604  0  0  0.106002  0  1.059026  0  0  0.097862  0.101058  0  1.061423  0
H  H27  1  0.93533545  0.24564403  0.78489053  1  0  0.094105  0  0.994598  0  0  0.103169  0  1.060357  0  0  0.10604  0  1.058983  0  0  0.09788  0.101096  0  1.061389  0
H  H28  1  0.21543553  0.13816801  0.25824288  1  0  0.07885  0  0.948754  0  0  0.088105  0  1.012957  0  0  0.09043  0  1.010836  0  0  0.114662  0.08635  0  1.014562  0
H  H29  1  0.28456306  0.86183462  0.75823706  1  0  0.078887  0  0.948804  0  0  0.088145  0  1.012992  0  0  0.09047  0  1.01087  0  0  0.114681  0.086395  0  1.014598  0
H  H30  1  0.71542690  0.36183079  0.74175936  1  0  0.078863  0  0.948733  0  0  0.088122  0  1.012938  0  0  0.090447  0  1.010816  0  0  0.114673  0.086368  0  1.014537  0
H  H31  1  0.78456627  0.63816715  0.24175949  1  0  0.078784  0  0.94879  0  0  0.088077  0  1.012961  0  0  0.090401  0  1.010841  0  0  0.114653  0.086323  0  1.014567  0
H  H32  1  0.20040605  0.99779093  0.15228288  1  0  0.105478  0  0.938852  0  0  0.11897  0  0.992452  0  0  0.121616  0  0.992281  0  0  0.109393  0.116971  0  0.992897  0
H  H33  1  0.29959703  0.00221240  0.65228587  1  0  0.105471  0  0.938971  0  0  0.118968  0  0.992556  0  0  0.121614  0  0.99239  0  0  0.1094  0.116976  0  0.993006  0
H  H34  1  0.70039149  0.50221030  0.84771037  1  0  0.105545  0  0.938863  0  0  0.119  0  0.992489  0  0  0.121674  0  0.992286  0  0  0.109431  0.117002  0  0.992931  0
H  H35  1  0.79959866  0.49778908  0.34771290  1  0  0.105508  0  0.938849  0  0  0.118996  0  0.992452  0  0  0.12165  0  0.992272  0  0  0.109428  0.117003  0  0.992903  0
H  H36  1  0.10639198  0.83839910  0.21488024  1  0  0.112725  0  0.929651  0  0  0.124663  0  0.986213  0  0  0.127862  0  0.983448  0  0  0.111948  0.122265  0  0.988337  0
H  H37  1  0.39361731  0.16159968  0.71488676  1  0  0.112785  0  0.92951  0  0  0.124689  0  0.986103  0  0  0.127889  0  0.983338  0  0  0.111966  0.122297  0  0.988227  0
H  H38  1  0.60639056  0.66159867  0.78511317  1  0  0.112761  0  0.929577  0  0  0.124699  0  0.986135  0  0  0.127897  0  0.98337  0  0  0.11199  0.122306  0  0.98826  0
H  H39  1  0.89361850  0.33840100  0.28511115  1  0  0.112874  0  0.929332  0  0  0.124745  0  0.985972  0  0  0.127945  0  0.983205  0  0  0.111983  0.122352  0  0.988099  0
H  H40  1  0.03719394  0.82519193  0.38269147  1  0  0.093569  0  0.952773  0  0  0.1063  0  1.010173  0  0  0.108275  0  1.010959  0  0  0.10491  0.104892  0  1.009769  0
H  H41  1  0.46280824  0.17480158  0.88269609  1  0  0.093579  0  0.952651  0  0  0.106333  0  1.010025  0  0  0.10831  0  1.010809  0  0  0.104898  0.104921  0  1.009614  0
H  H42  1  0.53720593  0.67479968  0.61730324  1  0  0.093396  0  0.952698  0  0  0.106168  0  1.010069  0  0  0.108144  0  1.010855  0  0  0.104809  0.10476  0  1.009667  0
H  H43  1  0.96280730  0.32519812  0.11729917  1  0  0.0936  0  0.952677  0  0  0.106349  0  1.010058  0  0  0.108326  0  1.010843  0  0  0.104913  0.104936  0  1.009653  0
H  H44  1  0.06210330  0.97215143  0.47884913  1  0  0.078447  0  0.946022  0  0  0.087043  0  1.012541  0  0  0.089731  0  1.009682  0  0  0.113306  0.084996  0  1.01477  0
H  H45  1  0.43790367  0.02783917  0.97884425  1  0  0.078455  0  0.946099  0  0  0.087041  0  1.012631  0  0  0.08973  0  1.00977  0  0  0.113309  0.08499  0  1.01485  0
H  H46  1  0.56210629  0.52783607  0.52115486  1  0  0.078458  0  0.946077  0  0  0.08701  0  1.012644  0  0  0.089697  0  1.009785  0  0  0.1133  0.084964  0  1.014867  0
H  H47  1  0.93789327  0.47215965  0.02114784  1  0  0.078356  0  0.946078  0  0  0.086933  0  1.01263  0  0  0.08962  0  1.00977  0  0  0.11327  0.084866  0  1.014868  0
C  C48  1  0.15008409  0.34567244  0.58221651  1  0  0.658067  0  3.892574  0  0  0.602313  0  4.187816  0  0  0.638254  0  4.180308  0  0  0.200115  0.577835  0  4.19207  0
C  C49  1  0.34990570  0.65432970  0.08221480  1  0  0.658112  0  3.892353  0  0  0.602323  0  4.187636  0  0  0.638276  0  4.180116  0  0  0.200121  0.57784  0  4.191888  0
C  C50  1  0.65008177  0.15432736  0.41778700  1  0  0.658094  0  3.892523  0  0  0.602324  0  4.187765  0  0  0.638268  0  4.180253  0  0  0.200096  0.57785  0  4.192021  0
C  C51  1  0.84991427  0.84566893  0.91778592  1  0  0.658114  0  3.892526  0  0  0.602403  0  4.187705  0  0  0.638331  0  4.180215  0  0  0.200132  0.577923  0  4.191967  0
C  C52  1  0.14321527  0.42618753  0.64804310  1  0  -0.088656  0  3.709887  0  0  -0.072876  0  3.948409  0  0  -0.079338  0  3.968408  0  0  -0.011198  -0.068727  0  3.935009  0
C  C53  1  0.35678207  0.57381578  0.14804083  1  0  -0.088672  0  3.70984  0  0  -0.072914  0  3.948366  0  0  -0.079389  0  3.96837  0  0  -0.011144  -0.068755  0  3.934958  0
C  C54  1  0.64321640  0.07381721  0.35196114  1  0  -0.088785  0  3.710247  0  0  -0.073058  0  3.948703  0  0  -0.079528  0  3.968709  0  0  -0.011191  -0.068912  0  3.935305  0
C  C55  1  0.85678687  0.92618433  0.85195846  1  0  -0.088803  0  3.710109  0  0  -0.073087  0  3.948597  0  0  -0.079552  0  3.968605  0  0  -0.011181  -0.068926  0  3.9352  0
C  C56  1  0.17982672  0.40457735  0.73824121  1  0  -0.068209  0  3.759899  0  0  -0.095195  0  4.017356  0  0  -0.094709  0  4.035914  0  0  -0.086317  -0.095352  0  4.004618  0
C  C57  1  0.32017863  0.59542514  0.23823940  1  0  -0.068133  0  3.75995  0  0  -0.095135  0  4.017445  0  0  -0.094645  0  4.036005  0  0  -0.086286  -0.0953  0  4.004714  0
C  C58  1  0.67981602  0.09542763  0.26176406  1  0  -0.068092  0  3.760308  0  0  -0.095064  0  4.017758  0  0  -0.094582  0  4.036324  0  0  -0.08622  -0.095224  0  4.005026  0
C  C59  1  0.82018073  0.90457045  0.76176158  1  0  -0.068147  0  3.760147  0  0  -0.095133  0  4.017624  0  0  -0.094648  0  4.036186  0  0  -0.086295  -0.095298  0  4.004907  0
C  C60  1  0.16293279  0.47446159  0.80558250  1  0  -0.089456  0  3.778321  0  0  -0.114792  0  4.03361  0  0  -0.116113  0  4.053401  0  0  -0.091869  -0.113763  0  4.020154  0
C  C61  1  0.33706674  0.52554421  0.30558147  1  0  -0.089615  0  3.778527  0  0  -0.114988  0  4.033782  0  0  -0.116308  0  4.053568  0  0  -0.09196  -0.113963  0  4.020346  0
C  C62  1  0.66292887  0.02554897  0.19441681  1  0  -0.089482  0  3.778542  0  0  -0.114836  0  4.033765  0  0  -0.116155  0  4.05355  0  0  -0.091905  -0.113816  0  4.020317  0
C  C63  1  0.83707222  0.97445363  0.69441665  1  0  -0.089494  0  3.778422  0  0  -0.114847  0  4.033634  0  0  -0.116168  0  4.053416  0  0  -0.091856  -0.113827  0  4.020204  0
C  C64  1  0.12551671  0.56840457  0.78290885  1  0  -0.081719  0  3.705882  0  0  -0.063448  0  3.936766  0  0  -0.068848  0  3.956297  0  0  -0.006889  -0.059973  0  3.92389  0
C  C65  1  0.37448230  0.43159966  0.28290826  1  0  -0.081777  0  3.705911  0  0  -0.063284  0  3.936541  0  0  -0.068677  0  3.956062  0  0  -0.006846  -0.059814  0  3.923673  0
C  C66  1  0.62552050  0.93160116  0.21709321  1  0  -0.082023  0  3.706055  0  0  -0.063523  0  3.936697  0  0  -0.068921  0  3.956219  0  0  -0.006941  -0.060045  0  3.923815  0
C  C67  1  0.87448110  0.06839947  0.71709187  1  0  -0.081875  0  3.705963  0  0  -0.063378  0  3.936552  0  0  -0.068765  0  3.956073  0  0  -0.006906  -0.059899  0  3.923682  0
C  C68  1  0.09873518  0.59502144  0.69015909  1  0  0.043339  0  3.750458  0  0  0.053307  0  3.972689  0  0  0.053381  0  3.997258  0  0  -0.001859  0.05315  0  3.956332  0
C  C69  1  0.40126630  0.40498500  0.19015878  1  0  0.043217  0  3.750632  0  0  0.053098  0  3.972798  0  0  0.053166  0  3.997368  0  0  -0.001868  0.052944  0  3.95644  0
C  C70  1  0.59874018  0.90498339  0.30984253  1  0  0.043347  0  3.750719  0  0  0.053194  0  3.972853  0  0  0.053264  0  3.997423  0  0  -0.001851  0.053037  0  3.956487  0
C  C71  1  0.90125749  0.09501644  0.80984247  1  0  0.04323  0  3.750665  0  0  0.053114  0  3.97277  0  0  0.053182  0  3.99734  0  0  -0.001901  0.052958  0  3.956415  0
C  C72  1  0.10012970  0.52200423  0.62171171  1  0  0.048683  0  3.733769  0  0  0.059119  0  3.957402  0  0  0.059854  0  3.981394  0  0  -0.001478  0.058637  0  3.941255  0
C  C73  1  0.39987320  0.47799818  0.12170710  1  0  0.048637  0  3.733678  0  0  0.059179  0  3.95715  0  0  0.059919  0  3.981145  0  0  -0.001549  0.058701  0  3.940996  0
C  C74  1  0.60012946  0.97799776  0.37829465  1  0  0.048449  0  3.733938  0  0  0.059118  0  3.957249  0  0  0.059859  0  3.981242  0  0  -0.001588  0.058631  0  3.941099  0
C  C75  1  0.89986531  0.02200182  0.87829211  1  0  0.048585  0  3.733865  0  0  0.059193  0  3.957249  0  0  0.059932  0  3.981244  0  0  -0.001518  0.058709  0  3.941103  0
C  C76  1  0.06653722  0.54861539  0.52987812  1  0  -0.117013  0  3.737792  0  0  -0.140516  0  3.993738  0  0  -0.143095  0  4.014121  0  0  -0.09468  -0.138706  0  3.980017  0
C  C77  1  0.43347105  0.45138710  0.02987305  1  0  -0.117034  0  3.737367  0  0  -0.140464  0  3.993293  0  0  -0.143061  0  4.013667  0  0  -0.094673  -0.138652  0  3.979571  0
C  C78  1  0.56653824  0.95138496  0.47012922  1  0  -0.11692  0  3.737615  0  0  -0.140416  0  3.993469  0  0  -0.143004  0  4.013843  0  0  -0.094644  -0.138605  0  3.979765  0
C  C79  1  0.93346298  0.04861454  0.97012654  1  0  -0.11693  0  3.737667  0  0  -0.140481  0  3.993565  0  0  -0.143077  0  4.013939  0  0  -0.094662  -0.138672  0  3.979841  0
C  C80  1  0.03480555  0.64242378  0.50612204  1  0  -0.083711  0  3.817415  0  0  -0.097815  0  4.072675  0  0  -0.100064  0  4.094814  0  0  -0.09928  -0.096117  0  4.057379  0
C  C81  1  0.46521703  0.35757785  0.00611747  1  0  -0.083782  0  3.817335  0  0  -0.097906  0  4.072595  0  0  -0.100158  0  4.094743  0  0  -0.099336  -0.096209  0  4.057293  0
C  C82  1  0.53479992  0.85757779  0.49388151  1  0  -0.083813  0  3.817409  0  0  -0.097898  0  4.072701  0  0  -0.100149  0  4.094845  0  0  -0.099324  -0.096208  0  4.057426  0
C  C83  1  0.96519882  0.14242045  0.99388116  1  0  -0.083673  0  3.817375  0  0  -0.097825  0  4.072664  0  0  -0.100078  0  4.094816  0  0  -0.099358  -0.096122  0  4.057347  0
C  C84  1  0.03366384  0.71415548  0.57330447  1  0  -0.079191  0  3.813059  0  0  -0.09322  0  4.065402  0  0  -0.095469  0  4.088089  0  0  -0.099618  -0.091507  0  4.049726  0
C  C85  1  0.46634111  0.28584731  0.07329876  1  0  -0.079248  0  3.813208  0  0  -0.093305  0  4.065553  0  0  -0.09556  0  4.088247  0  0  -0.099608  -0.091572  0  4.049852  0
C  C86  1  0.53366048  0.78584536  0.42669842  1  0  -0.079163  0  3.813036  0  0  -0.0932  0  4.06535  0  0  -0.095454  0  4.088044  0  0  -0.099577  -0.091486  0  4.049673  0
C  C87  1  0.96634406  0.21415028  0.92669714  1  0  -0.079157  0  3.813058  0  0  -0.093187  0  4.065385  0  0  -0.095443  0  4.088083  0  0  -0.099488  -0.091454  0  4.049677  0
C  C88  1  0.06442826  0.69076411  0.66309950  1  0  -0.116788  0  3.749489  0  0  -0.138574  0  4.001473  0  0  -0.141096  0  4.022462  0  0  -0.094302  -0.136774  0  3.987293  0
C  C89  1  0.43556401  0.30924072  0.16309421  1  0  -0.116639  0  3.749419  0  0  -0.138423  0  4.001412  0  0  -0.140945  0  4.022412  0  0  -0.094294  -0.13664  0  3.987233  0
C  C90  1  0.56442937  0.80924050  0.33689972  1  0  -0.116682  0  3.749358  0  0  -0.138477  0  4.001376  0  0  -0.141001  0  4.022375  0  0  -0.094281  -0.136671  0  3.987182  0
C  C91  1  0.93557158  0.19076022  0.83690333  1  0  -0.116774  0  3.749399  0  0  -0.138574  0  4.001389  0  0  -0.1411  0  4.022393  0  0  -0.094344  -0.136785  0  3.987204  0
C  C92  1  0.11897572  0.63863001  0.85979491  1  0  0.684746  0  3.872837  0  0  0.631327  0  4.168693  0  0  0.667811  0  4.158646  0  0  0.214949  0.606421  0  4.174758  0
C  C93  1  0.38102004  0.36137189  0.35979247  1  0  0.684909  0  3.872938  0  0  0.631374  0  4.168872  0  0  0.667857  0  4.158828  0  0  0.214948  0.606472  0  4.174943  0
C  C94  1  0.61898667  0.86137424  0.14021128  1  0  0.685025  0  3.872862  0  0  0.631486  0  4.168806  0  0  0.667974  0  4.158755  0  0  0.214978  0.606577  0  4.174872  0
C  C95  1  0.88101080  0.13862657  0.64020760  1  0  0.684917  0  3.8729  0  0  0.631416  0  4.168773  0  0  0.66788  0  4.158764  0  0  0.214978  0.60651  0  4.174842  0
C  C96  1  0.17727246  0.06710025  0.28235901  1  0  0.1188  0  3.717052  0  0  0.087465  0  3.970866  0  0  0.094029  0  3.991463  0  0  0.043441  0.083268  0  3.95671  0
C  C97  1  0.32272362  0.93290041  0.78235533  1  0  0.118765  0  3.716816  0  0  0.087407  0  3.970674  0  0  0.093971  0  3.991265  0  0  0.043358  0.083208  0  3.956532  0
C  C98  1  0.67726837  0.43289973  0.71764289  1  0  0.118788  0  3.716896  0  0  0.087435  0  3.970734  0  0  0.093997  0  3.991335  0  0  0.043367  0.08324  0  3.956573  0
C  C99  1  0.82272877  0.56709947  0.21764021  1  0  0.118877  0  3.717023  0  0  0.087512  0  3.970874  0  0  0.094074  0  3.991474  0  0  0.043458  0.083314  0  3.956722  0
C  C100  1  0.16740539  0.98922630  0.22414498  1  0  -0.11142  0  3.727202  0  0  -0.12299  0  3.977651  0  0  -0.13066  0  4.000923  0  0  -0.08104  -0.118163  0  3.962171  0
C  C101  1  0.33260499  0.01077609  0.72414229  1  0  -0.111532  0  3.727318  0  0  -0.123096  0  3.977769  0  0  -0.130767  0  4.001039  0  0  -0.081078  -0.118275  0  3.962311  0
C  C102  1  0.66739560  0.51077470  0.77585467  1  0  -0.111548  0  3.727384  0  0  -0.123077  0  3.977846  0  0  -0.130773  0  4.001107  0  0  -0.081093  -0.118248  0  3.962366  0
C  C103  1  0.83260498  0.48922561  0.27585210  1  0  -0.111545  0  3.727445  0  0  -0.123106  0  3.977899  0  0  -0.130785  0  4.001167  0  0  -0.081113  -0.118283  0  3.962437  0
C  C104  1  0.11644494  0.90032964  0.25940001  1  0  0.008379  0  3.676648  0  0  -0.013635  0  3.928921  0  0  -0.009665  0  3.94638  0  0  -0.059565  -0.015939  0  3.917204  0
C  C105  1  0.38356395  0.09966730  0.75940217  1  0  0.008423  0  3.676572  0  0  -0.013551  0  3.928822  0  0  -0.009579  0  3.946278  0  0  -0.059512  -0.015856  0  3.917112  0
C  C106  1  0.61644068  0.59966462  0.74059874  1  0  0.008449  0  3.676583  0  0  -0.013561  0  3.928849  0  0  -0.009591  0  3.946317  0  0  -0.059493  -0.015869  0  3.91714  0
C  C107  1  0.88356288  0.40033616  0.24059380  1  0  0.00835  0  3.676603  0  0  -0.0136  0  3.928871  0  0  -0.00963  0  3.946332  0  0  -0.059495  -0.015908  0  3.917166  0
C  C108  1  0.07899835  0.89293377  0.35216640  1  0  -0.112812  0  3.737197  0  0  -0.124112  0  3.989153  0  0  -0.131721  0  4.012893  0  0  -0.080573  -0.119332  0  3.973409  0
C  C109  1  0.42100808  0.10706024  0.85216895  1  0  -0.112895  0  3.737003  0  0  -0.124195  0  3.988957  0  0  -0.131806  0  4.012697  0  0  -0.080605  -0.119405  0  3.973196  0
C  C110  1  0.57899971  0.60705597  0.64782725  1  0  -0.112703  0  3.737028  0  0  -0.123999  0  3.988961  0  0  -0.13161  0  4.012702  0  0  -0.080541  -0.119217  0  3.973219  0
C  C111  1  0.92100778  0.39294061  0.14782669  1  0  -0.112989  0  3.73734  0  0  -0.124297  0  3.989289  0  0  -0.131909  0  4.013028  0  0  -0.08067  -0.119512  0  3.973533  0
C  C112  1  0.09289666  0.97397448  0.40627039  1  0  0.124509  0  3.709604  0  0  0.09098  0  3.965418  0  0  0.098048  0  3.985318  0  0  0.044278  0.086378  0  3.95195  0
C  C113  1  0.40710896  0.02601705  0.90626781  1  0  0.124458  0  3.709883  0  0  0.090902  0  3.965735  0  0  0.097969  0  3.985634  0  0  0.044232  0.086313  0  3.952242  0
C  C114  1  0.59290538  0.52601251  0.59372789  1  0  0.124518  0  3.710041  0  0  0.090995  0  3.965883  0  0  0.098063  0  3.985781  0  0  0.044286  0.086399  0  3.952402  0
C  C115  1  0.90710293  0.47398086  0.09372523  1  0  0.12466  0  3.709694  0  0  0.091151  0  3.965509  0  0  0.098219  0  3.98541  0  0  0.044337  0.086571  0  3.95203  0
N  N116  1  0.14067897  0.05974781  0.37192095  1  0  -0.346817  0  3.280162  0  0  -0.268353  0  3.550674  0  0  -0.290658  0  3.571973  0  0  -0.332488  -0.253001  0  3.535789  0
N  N117  1  0.35932514  0.94024918  0.87191698  1  0  -0.346674  0  3.280136  0  0  -0.268179  0  3.550622  0  0  -0.290485  0  3.571925  0  0  -0.332364  -0.252823  0  3.53573  0
N  N118  1  0.64067297  0.44024552  0.62807992  1  0  -0.346801  0  3.280353  0  0  -0.268326  0  3.550874  0  0  -0.290633  0  3.572171  0  0  -0.332442  -0.25297  0  3.535984  0
N  N119  1  0.85931614  0.55974951  0.12807823  1  0  -0.346774  0  3.280144  0  0  -0.268331  0  3.550711  0  0  -0.29064  0  3.572011  0  0  -0.332497  -0.252975  0  3.535814  0
O  O120  1  0.28075288  0.28113950  0.59333901  1  0  -0.656455  0  1.992026  0  0  -0.591376  0  2.243585  0  0  -0.621408  0  2.232882  0  0  -0.322415  -0.570091  0  2.250037  0
O  O121  1  0.21922313  0.71885631  0.09333888  1  0  -0.656493  0  1.991942  0  0  -0.591351  0  2.243448  0  0  -0.621383  0  2.232722  0  0  -0.322443  -0.570066  0  2.249899  0
O  O122  1  0.78075584  0.21885617  0.40666603  1  0  -0.656353  0  1.992022  0  0  -0.591301  0  2.243613  0  0  -0.621324  0  2.232888  0  0  -0.32237  -0.570016  0  2.250061  0
O  O123  1  0.71924660  0.78114076  0.90666573  1  0  -0.656357  0  1.992101  0  0  -0.591323  0  2.243674  0  0  -0.621342  0  2.232956  0  0  -0.322384  -0.570036  0  2.250126  0
O  O124  1  0.02342187  0.34136877  0.51766723  1  0  -0.666578  0  2.045537  0  0  -0.592859  0  2.296641  0  0  -0.623875  0  2.285077  0  0  -0.324227  -0.570887  0  2.303674  0
O  O125  1  0.47657213  0.65863578  0.01766645  1  0  -0.666569  0  2.045474  0  0  -0.592811  0  2.296544  0  0  -0.623833  0  2.284974  0  0  -0.324213  -0.570851  0  2.3036  0
O  O126  1  0.52341398  0.15863163  0.48233808  1  0  -0.666598  0  2.045452  0  0  -0.592848  0  2.296552  0  0  -0.623874  0  2.285003  0  0  -0.324246  -0.570858  0  2.303538  0
O  O127  1  0.97657637  0.84137294  0.98233584  1  0  -0.666536  0  2.045407  0  0  -0.592843  0  2.296508  0  0  -0.623861  0  2.284955  0  0  -0.324217  -0.570854  0  2.303508  0
O  O128  1  0.02546899  0.61132897  0.92994913  1  0  -0.658636  0  2.020223  0  0  -0.596378  0  2.279914  0  0  -0.625799  0  2.268082  0  0  -0.329008  -0.575459  0  2.28718  0
O  O129  1  0.47452379  0.38866842  0.42994534  1  0  -0.658688  0  2.020403  0  0  -0.596386  0  2.280108  0  0  -0.625809  0  2.268287  0  0  -0.328978  -0.575472  0  2.287387  0
O  O130  1  0.52547187  0.88866827  0.07005451  1  0  -0.658741  0  2.020241  0  0  -0.596448  0  2.279957  0  0  -0.625871  0  2.268122  0  0  -0.329005  -0.575533  0  2.28723  0
O  O131  1  0.97451822  0.11132993  0.57005253  1  0  -0.658612  0  2.02023  0  0  -0.596361  0  2.279957  0  0  -0.625779  0  2.268147  0  0  -0.328999  -0.575444  0  2.287234  0
O  O132  1  0.21185656  0.71675364  0.84904536  1  0  -0.648801  0  2.018946  0  0  -0.582685  0  2.273619  0  0  -0.612203  0  2.261436  0  0  -0.324775  -0.561807  0  2.281271  0
O  O133  1  0.28813079  0.28324961  0.34904192  1  0  -0.648834  0  2.018904  0  0  -0.582723  0  2.273647  0  0  -0.612239  0  2.261462  0  0  -0.324792  -0.561841  0  2.281297  0
O  O134  1  0.71186925  0.78325336  0.15095931  1  0  -0.648833  0  2.018858  0  0  -0.582723  0  2.273624  0  0  -0.612241  0  2.261434  0  0  -0.324786  -0.561845  0  2.281273  0
O  O135  1  0.78812037  0.21674682  0.65095763  1  0  -0.648857  0  2.0189  0  0  -0.58274  0  2.273615  0  0  -0.612242  0  2.261429  0  0  -0.324783  -0.561858  0  2.281265  0
