# generated using pymatgen
data_ZnSiH24C48N8(O4F3)2
_symmetry_space_group_name_H-M   'P 1'
_cell_length_a   7.79624515
_cell_length_b   19.81246178
_cell_length_c   19.81255559
_cell_angle_alpha   90.00132001
_cell_angle_beta   90.00002330
_cell_angle_gamma   89.99981316
_symmetry_Int_Tables_number   1
_chemical_formula_structural   ZnSiH24C48N8(O4F3)2
_chemical_formula_sum   'Zn1 Si1 H24 C48 N8 O8 F6'
_cell_volume   3060.30299103
_cell_formula_units_Z   1
loop_
 _symmetry_equiv_pos_site_id
 _symmetry_equiv_pos_as_xyz
  1  'x, y, z'
loop_
 _atom_site_type_symbol
 _atom_site_label
 _atom_site_symmetry_multiplicity
 _atom_site_fract_x
 _atom_site_fract_y
 _atom_site_fract_z
 _atom_site_occupancy
 _atom_site_pbe_bader_charge
 _atom_site_pbe_bader_spin_density
 _atom_site_pbe_cm5_charge
 _atom_site_pbe_ddec_charge
 _atom_site_pbe_ddec_spin_density
 _atom_site_pbe_ddec_sum_bond_order
 _atom_site_pbe_magmom
Zn  Zn0  1  0.99999908  0.99999926  0.99999999  1  1.314276  0  0.707312  0.735193  0  2.326247  0
Si  Si1  1  0.49999993  0.99999950  0.99999916  1  3.176391  0  0.259425  1.717497  0  3.942162  0
H  H2  1  0.00000086  0.43606690  0.16997250  1  0.138095  0  0.121504  0.127017  0  0.972706  0
H  H3  1  0.00000002  0.56393278  0.83002873  1  0.138132  0  0.121503  0.127014  0  0.972678  0
H  H4  1  0.00000067  0.83002505  0.43606689  1  0.137985  0  0.121562  0.127188  0  0.972709  0
H  H5  1  0.00000021  0.16997564  0.56393131  1  0.138013  0  0.12156  0.127121  0  0.972801  0
H  H6  1  0.99999968  0.56393375  0.16997405  1  0.137992  0  0.121547  0.127209  0  0.972737  0
H  H7  1  0.99999992  0.43606592  0.83002667  1  0.138007  0  0.121535  0.127161  0  0.972767  0
H  H8  1  0.99999887  0.16997316  0.43606593  1  0.13805  0  0.121551  0.127125  0  0.972758  0
H  H9  1  0.00000073  0.83002803  0.56393277  1  0.138108  0  0.121514  0.127041  0  0.972696  0
H  H10  1  0.73346672  0.11427255  0.00000238  1  0.172212  0  0.118979  0.101729  0  1.040942  0
H  H11  1  0.72342470  0.24036987  0.99999851  1  0.102486  0  0.119568  0.132011  0  0.969559  0
H  H12  1  0.73347638  0.88572691  0.00000017  1  0.172315  0  0.119034  0.101827  0  1.040874  0
H  H13  1  0.72343232  0.75963052  0.00000225  1  0.103091  0  0.119581  0.132015  0  0.969583  0
H  H14  1  0.73347622  0.00000034  0.11427406  1  0.172331  0  0.119035  0.101843  0  1.040859  0
H  H15  1  0.72343145  0.99999868  0.24036926  1  0.103094  0  0.119566  0.131991  0  0.969571  0
H  H16  1  0.73347636  0.99999803  0.88572518  1  0.172345  0  0.119043  0.101855  0  1.040858  0
H  H17  1  0.72343198  0.00000424  0.75962947  1  0.103084  0  0.119569  0.132013  0  0.969576  0
H  H18  1  0.26652595  0.88572671  0.00000013  1  0.1723  0  0.119031  0.101796  0  1.040891  0
H  H19  1  0.27657233  0.75963081  0.00000221  1  0.10252  0  0.119554  0.132005  0  0.969588  0
H  H20  1  0.26651629  0.11427134  0.00000184  1  0.172358  0  0.119052  0.101814  0  1.040881  0
H  H21  1  0.27656471  0.24036714  0.99999847  1  0.103164  0  0.119584  0.132013  0  0.969608  0
H  H22  1  0.26652708  0.00000013  0.11427453  1  0.172304  0  0.11902  0.101821  0  1.040847  0
H  H23  1  0.27657018  0.99999846  0.24036973  1  0.102533  0  0.119566  0.132033  0  0.969569  0
H  H24  1  0.26652722  0.99999732  0.88572514  1  0.172307  0  0.119033  0.101821  0  1.040885  0
H  H25  1  0.27657199  0.00000352  0.75962944  1  0.102507  0  0.119554  0.132008  0  0.969566  0
C  C26  1  0.99999792  0.35419534  0.06357748  1  1.342184  0  0.244773  0.438431  0  4.102461  0
C  C27  1  0.00000212  0.42903726  0.06239013  1  -0.052828  0  -0.003627  -0.059645  0  3.981942  0
C  C28  1  0.00000072  0.46454641  0.12288198  1  0.099116  0  -0.058947  -0.065714  0  3.92476  0
C  C29  1  0.00000040  0.64580282  0.93642677  1  1.342938  0  0.244766  0.438641  0  4.102529  0
C  C30  1  0.00000199  0.57096055  0.93761152  1  -0.053021  0  -0.003657  -0.059659  0  3.981705  0
C  C31  1  0.00000082  0.53545189  0.87711815  1  -0.072049  0  -0.058948  -0.065765  0  3.924703  0
C  C32  1  0.00000019  0.93641674  0.35419579  1  1.342627  0  0.24473  0.438262  0  4.10265  0
C  C33  1  0.00000022  0.93760927  0.42903622  1  -0.052766  0  -0.003623  -0.059733  0  3.98197  0
C  C34  1  0.00000049  0.87711342  0.46454584  1  0.099112  0  -0.058976  -0.065839  0  3.924671  0
C  C35  1  0.00000007  0.06358460  0.64580132  1  1.342626  0  0.244629  0.438206  0  4.10271  0
C  C36  1  0.00000004  0.06239256  0.57096088  1  -0.05304  0  -0.003714  -0.05976  0  3.981982  0
C  C37  1  0.99999977  0.12288842  0.53545228  1  -0.071992  0  -0.058905  -0.065747  0  3.924712  0
C  C38  1  0.00000251  0.64580387  0.06358379  1  1.34263  0  0.244713  0.438364  0  4.10258  0
C  C39  1  0.00000282  0.57096308  0.06239176  1  -0.05306  0  -0.003588  -0.059622  0  3.981895  0
C  C40  1  0.00000171  0.53545381  0.12288683  1  -0.071958  0  -0.059007  -0.065995  0  3.924782  0
C  C41  1  0.00000031  0.35419544  0.93641887  1  1.342611  0  0.244682  0.438293  0  4.102428  0
C  C42  1  0.00000129  0.42903623  0.93760938  1  -0.052793  0  -0.003622  -0.059662  0  3.981885  0
C  C43  1  0.00000111  0.46454501  0.87711431  1  0.099077  0  -0.058976  -0.065865  0  3.924758  0
C  C44  1  0.99999992  0.06357468  0.35419583  1  1.342122  0  0.244725  0.438532  0  4.102484  0
C  C45  1  0.99999996  0.06239093  0.42903724  1  -0.053131  0  -0.003588  -0.059582  0  3.98173  0
C  C46  1  0.99999973  0.12288357  0.46454573  1  0.09907  0  -0.058997  -0.065883  0  3.92485  0
C  C47  1  0.99999839  0.93642702  0.64580237  1  1.34235  0  0.244781  0.438658  0  4.102538  0
C  C48  1  0.99999963  0.93761127  0.57096196  1  -0.053023  0  -0.003663  -0.059673  0  3.981606  0
C  C49  1  0.00000052  0.87711827  0.53545340  1  -0.072047  0  -0.058955  -0.065804  0  3.924683  0
C  C50  1  0.99999242  0.24926107  0.99999712  1  0.362063  0  0.108321  0.231751  0  4.031577  0
C  C51  1  0.00000374  0.46401393  0.99999951  1  0.045049  0  0.00427  0.028966  0  3.996666  0
C  C52  1  0.00000205  0.75073810  0.00000461  1  0.362059  0  0.10825  0.231641  0  4.031643  0
C  C53  1  0.00000293  0.53598387  0.00000214  1  -0.119162  0  0.004333  0.029016  0  3.996681  0
C  C54  1  0.00000115  0.99999622  0.24926205  1  0.362049  0  0.108285  0.231666  0  4.031797  0
C  C55  1  0.00000060  0.99999956  0.46401434  1  0.045375  0  0.004284  0.029006  0  3.996615  0
C  C56  1  0.00000167  0.00000713  0.75073657  1  0.362058  0  0.10835  0.231807  0  4.031869  0
C  C57  1  0.00000028  0.00000214  0.53598335  1  -0.119189  0  0.004364  0.029048  0  3.996568  0
C  C58  1  0.85117198  0.14379783  0.00000021  1  0.511276  0  0.061802  0.121357  0  3.886069  0
C  C59  1  0.84592096  0.21402072  0.99999771  1  -0.027507  0  -0.071037  -0.185035  0  3.917523  0
C  C60  1  0.85118188  0.85620047  0.00000135  1  0.511314  0  0.061757  0.121232  0  3.886259  0
C  C61  1  0.84592707  0.78597901  0.00000357  1  -0.027473  0  -0.071151  -0.18508  0  3.917705  0
C  C62  1  0.85118265  0.99999900  0.14379970  1  0.511309  0  0.06174  0.121192  0  3.8862  0
C  C63  1  0.84592759  0.99999729  0.21402083  1  -0.027485  0  -0.071158  -0.185076  0  3.917732  0
C  C64  1  0.85118327  0.00000124  0.85619956  1  0.511318  0  0.061754  0.121175  0  3.886223  0
C  C65  1  0.84592814  0.00000649  0.78597843  1  -0.027467  0  -0.071161  -0.185115  0  3.917716  0
C  C66  1  0.14881941  0.85620092  0.00000129  1  0.511316  0  0.061774  0.121288  0  3.886228  0
C  C67  1  0.15407607  0.78597896  0.00000301  1  -0.02749  0  -0.071074  -0.185038  0  3.917497  0
C  C68  1  0.14881079  0.14379778  0.00000066  1  0.51117  0  0.061678  0.121178  0  3.886306  0
C  C69  1  0.15406996  0.21401966  0.99999765  1  -0.027431  0  -0.071147  -0.185092  0  3.917651  0
C  C70  1  0.14882018  0.99999895  0.14379965  1  0.511289  0  0.061781  0.121278  0  3.88614  0
C  C71  1  0.15407531  0.99999723  0.21402077  1  -0.027501  0  -0.071108  -0.185114  0  3.917601  0
C  C72  1  0.14882080  0.00000068  0.85619950  1  0.511294  0  0.061783  0.121271  0  3.886184  0
C  C73  1  0.15407586  0.00000593  0.78597837  1  -0.027494  0  -0.07118  -0.18519  0  3.917782  0
N  N74  1  0.99999504  0.10925281  0.00000083  1  -1.227752  0  -0.310937  -0.227197  0  3.500975  0
N  N75  1  0.99999725  0.32207736  0.99999644  1  -1.196002  0  -0.231777  -0.234539  0  3.581069  0
N  N76  1  0.00000019  0.89074595  0.00000017  1  -1.227873  0  -0.310953  -0.227219  0  3.501044  0
N  N77  1  0.00000235  0.67792181  0.00000478  1  -1.196166  0  -0.231737  -0.234536  0  3.581232  0
N  N78  1  0.00000108  0.99999965  0.10925437  1  -1.22785  0  -0.310952  -0.227222  0  3.50093  0
N  N79  1  0.00000119  0.99999605  0.32207800  1  -1.196031  0  -0.231737  -0.234425  0  3.581215  0
N  N80  1  0.00000148  0.99999957  0.89074517  1  -1.227822  0  -0.310922  -0.227152  0  3.500888  0
N  N81  1  0.00000163  0.00000680  0.67792062  1  -1.1956  0  -0.231786  -0.234576  0  3.581086  0
O  O82  1  0.99999808  0.32097443  0.11586213  1  -1.091828  0  -0.269833  -0.422322  0  2.053789  0
O  O83  1  0.99999829  0.67902359  0.88414069  1  -1.092283  0  -0.269826  -0.422477  0  2.053918  0
O  O84  1  0.99999972  0.88413144  0.32097391  1  -1.092086  0  -0.269716  -0.422099  0  2.054167  0
O  O85  1  0.00000116  0.11587025  0.67902378  1  -1.092146  0  -0.269645  -0.422052  0  2.054162  0
O  O86  1  0.00000046  0.67902686  0.11586827  1  -1.092126  0  -0.269683  -0.422139  0  2.05414  0
O  O87  1  0.99999848  0.32097268  0.88413253  1  -1.09205  0  -0.269713  -0.422168  0  2.053931  0
O  O88  1  0.99999775  0.11586144  0.32097566  1  -1.091686  0  -0.269827  -0.42246  0  2.053827  0
O  O89  1  0.99999734  0.88414162  0.67902262  1  -1.092211  0  -0.269824  -0.422463  0  2.053998  0
F  F90  1  0.27361248  0.00000184  0.00000103  1  -0.829423  0  -0.194299  -0.498279  0  1.337773  0
F  F91  1  0.72638583  0.99999834  0.99999918  1  -0.829423  0  -0.194342  -0.498306  0  1.337813  0
F  F92  1  0.49999945  0.06064251  0.06064259  1  -0.825282  0  -0.240703  -0.538516  0  1.085168  0
F  F93  1  0.50000014  0.93935717  0.93935662  1  -0.825312  0  -0.240684  -0.538528  0  1.085211  0
F  F94  1  0.49999969  0.93935664  0.06064060  1  -0.825267  0  -0.240701  -0.538533  0  1.085211  0
F  F95  1  0.49999990  0.06064203  0.93935810  1  -0.825269  0  -0.240704  -0.538524  0  1.08522  0
