# generated using pymatgen
data_CuHC3NO2
_symmetry_space_group_name_H-M   'P 1'
_cell_length_a   7.92722977
_cell_length_b   10.84629754
_cell_length_c   10.84676233
_cell_angle_alpha   71.39947432
_cell_angle_beta   78.91804735
_cell_angle_gamma   78.91808120
_symmetry_Int_Tables_number   1
_chemical_formula_structural   CuHC3NO2
_chemical_formula_sum   'Cu8 H8 C24 N8 O16'
_cell_volume   858.78586528
_cell_formula_units_Z   8
loop_
 _symmetry_equiv_pos_site_id
 _symmetry_equiv_pos_as_xyz
  1  'x, y, z'
loop_
 _atom_site_type_symbol
 _atom_site_label
 _atom_site_symmetry_multiplicity
 _atom_site_fract_x
 _atom_site_fract_y
 _atom_site_fract_z
 _atom_site_occupancy
 _atom_site_pbe_bader_spin_density
 _atom_site_pbe_cm5_charge
 _atom_site_pbe_ddec_charge
 _atom_site_pbe_ddec_spin_density
 _atom_site_pbe_ddec_sum_bond_order
 _atom_site_pbe_magmom
Cu  Cu0  1  0.28563312  0.47279088  0.09814740  1  0  0.606479  0.499279  0  2.328522  0
Cu  Cu1  1  0.21438284  0.90184560  0.52720616  1  0  0.606471  0.499285  0  2.328286  0
Cu  Cu2  1  0.71436496  0.52720729  0.90185216  1  0  0.606478  0.499262  0  2.328369  0
Cu  Cu3  1  0.78561844  0.09815552  0.47279089  1  0  0.606486  0.499266  0  2.328275  0
Cu  Cu4  1  0.74998437  0.69854985  0.30145994  1  0  0.42481  0.446165  0  2.115154  0
Cu  Cu5  1  0.25001015  0.30145913  0.69853714  1  0  0.424785  0.446104  0  2.115068  0
Cu  Cu6  1  0.75001000  0.49577026  0.50422800  1  0  0.468113  0.488288  0  2.148837  0
Cu  Cu7  1  0.24999301  0.50423483  0.49576733  1  0  0.468102  0.488331  0  2.148738  0
H  H8  1  0.50164092  0.20735765  0.12639558  1  0  0.127654  0.118833  0  0.973839  0
H  H9  1  0.99839014  0.87361128  0.79263294  1  0  0.127693  0.118891  0  0.973813  0
H  H10  1  0.49838349  0.79264540  0.87360913  1  0  0.127737  0.118945  0  0.973904  0
H  H11  1  0.00159846  0.12638848  0.20736291  1  0  0.127634  0.118844  0  0.97384  0
H  H12  1  0.49048636  0.98994975  0.30638169  1  0  0.132013  0.116966  0  0.975379  0
H  H13  1  0.00953407  0.69362606  0.01004101  1  0  0.131952  0.116866  0  0.975188  0
H  H14  1  0.50952289  0.01005209  0.69362585  1  0  0.131997  0.116882  0  0.97513  0
H  H15  1  0.99045567  0.30636759  0.98995228  1  0  0.131942  0.116867  0  0.974904  0
C  C16  1  0.41023911  0.19729477  0.21693134  1  0  0.040734  0.031739  0  3.916625  0
C  C17  1  0.08978204  0.78306957  0.80269930  1  0  0.040615  0.031395  0  3.917161  0
C  C18  1  0.58976565  0.80271134  0.78308365  1  0  0.04057  0.031437  0  3.917038  0
C  C19  1  0.91021418  0.21692575  0.19730436  1  0  0.040692  0.031491  0  3.917165  0
C  C20  1  0.40520610  0.07911992  0.31576216  1  0  0.05296  0.059235  0  3.895165  0
C  C21  1  0.09481214  0.68423632  0.92086782  1  0  0.053058  0.059568  0  3.894885  0
C  C22  1  0.59480800  0.92086972  0.68423984  1  0  0.053041  0.059506  0  3.895041  0
C  C23  1  0.90517747  0.31575263  0.07913183  1  0  0.053109  0.059601  0  3.894575  0
C  C24  1  0.18481358  0.17839476  0.44240453  1  0  0.120661  0.0606  0  3.895581  0
C  C25  1  0.31519943  0.55757680  0.82161726  1  0  0.120801  0.060567  0  3.895842  0
C  C26  1  0.81517150  0.82161736  0.55759935  1  0  0.120748  0.060578  0  3.896015  0
C  C27  1  0.68480201  0.44241738  0.17838138  1  0  0.120819  0.060631  0  3.895799  0
C  C28  1  0.18332435  0.29539281  0.33963252  1  0  0.098988  0.030937  0  3.955154  0
C  C29  1  0.31668094  0.66033642  0.70460930  1  0  0.098747  0.030875  0  3.954752  0
C  C30  1  0.81668915  0.70461010  0.66035457  1  0  0.098791  0.030848  0  3.954858  0
C  C31  1  0.68331884  0.33965981  0.29539070  1  0  0.098747  0.030692  0  3.954989  0
C  C32  1  0.04915547  0.41275278  0.34374783  1  0  0.190394  0.508994  0  4.285886  0
C  C33  1  0.45086771  0.65623482  0.58725634  1  0  0.190518  0.508998  0  4.285275  0
C  C34  1  0.95084105  0.58725347  0.65625363  1  0  0.190423  0.509082  0  4.286127  0
C  C35  1  0.54914441  0.34376342  0.41273821  1  0  0.190511  0.509114  0  4.285666  0
C  C36  1  0.07218768  0.16011214  0.57548688  1  0  0.214735  0.575005  0  4.212315  0
C  C37  1  0.42781074  0.42449222  0.83989099  1  0  0.214732  0.574993  0  4.212779  0
C  C38  1  0.92781045  0.83988612  0.42451449  1  0  0.214734  0.574836  0  4.212213  0
C  C39  1  0.57218055  0.57550785  0.16010986  1  0  0.21483  0.575172  0  4.212374  0
N  N40  1  0.29614096  0.30516826  0.22664003  1  0  -0.367251  -0.227203  0  3.729385  0
N  N41  1  0.20387344  0.77334653  0.69483809  1  0  -0.367107  -0.227025  0  3.729257  0
N  N42  1  0.70385310  0.69483817  0.77336636  1  0  -0.367126  -0.227082  0  3.72873  0
N  N43  1  0.79612380  0.22664384  0.30516630  1  0  -0.367162  -0.226985  0  3.729164  0
N  N44  1  0.29025533  0.06795027  0.42724241  1  0  -0.360271  -0.221048  0  3.644009  0
N  N45  1  0.20975920  0.57274855  0.93204536  1  0  -0.360291  -0.221109  0  3.644078  0
N  N46  1  0.70975164  0.93204929  0.57276078  1  0  -0.360269  -0.221019  0  3.644424  0
N  N47  1  0.79024202  0.42724657  0.06795205  1  0  -0.360342  -0.221164  0  3.644101  0
O  O48  1  0.04968521  0.51486756  0.24820185  1  0  -0.302066  -0.506341  0  2.293845  0
O  O49  1  0.45032643  0.75177433  0.48513675  1  0  -0.30207  -0.506386  0  2.293846  0
O  O50  1  0.95033167  0.48513286  0.75179392  1  0  -0.302005  -0.506343  0  2.293874  0
O  O51  1  0.54966770  0.24823080  0.51486365  1  0  -0.30211  -0.506481  0  2.293797  0
O  O52  1  0.93824859  0.39063417  0.44929312  1  0  -0.336299  -0.50551  0  2.661287  0
O  O53  1  0.56176641  0.55068586  0.60937499  1  0  -0.336366  -0.505431  0  2.660697  0
O  O54  1  0.06174419  0.60936495  0.55070785  1  0  -0.336341  -0.505577  0  2.661332  0
O  O55  1  0.43823918  0.44930758  0.39062697  1  0  -0.336353  -0.505465  0  2.660966  0
O  O56  1  0.94594026  0.09566018  0.59918558  1  0  -0.32732  -0.521551  0  2.384669  0
O  O57  1  0.55405168  0.40079556  0.90434769  1  0  -0.327369  -0.521559  0  2.384819  0
O  O58  1  0.05405766  0.90434492  0.40081239  1  0  -0.327382  -0.521533  0  2.384564  0
O  O59  1  0.44594186  0.59919949  0.09565187  1  0  -0.327463  -0.521695  0  2.384761  0
O  O60  1  0.11927358  0.19530153  0.66274296  1  0  -0.337862  -0.487144  0  2.568386  0
O  O61  1  0.38072987  0.33723023  0.80471219  1  0  -0.337805  -0.487079  0  2.568493  0
O  O62  1  0.88071340  0.80470622  0.33725299  1  0  -0.337851  -0.487065  0  2.568398  0
O  O63  1  0.61927551  0.66277006  0.19528636  1  0  -0.337821  -0.48717  0  2.568387  0
