# generated using pymatgen
data_CdH20C26(N3Cl)2
_symmetry_space_group_name_H-M   'P 1'
_cell_length_a   9.07726305
_cell_length_b   11.41253163
_cell_length_c   16.36046524
_cell_angle_alpha   73.83237069
_cell_angle_beta   73.88835663
_cell_angle_gamma   66.56516287
_symmetry_Int_Tables_number   1
_chemical_formula_structural   CdH20C26(N3Cl)2
_chemical_formula_sum   'Cd2 H40 C52 N12 Cl4'
_cell_volume   1466.56188978
_cell_formula_units_Z   2
loop_
 _symmetry_equiv_pos_site_id
 _symmetry_equiv_pos_as_xyz
  1  'x, y, z'
loop_
 _atom_site_type_symbol
 _atom_site_label
 _atom_site_symmetry_multiplicity
 _atom_site_fract_x
 _atom_site_fract_y
 _atom_site_fract_z
 _atom_site_occupancy
 _atom_site_hle17_bader_spin_density
 _atom_site_hle17_ddec_charge
 _atom_site_hle17_ddec_spin_density
 _atom_site_hle17_ddec_sum_bond_order
 _atom_site_hle17_magmom
 _atom_site_hse06_10hf_bader_spin_density
 _atom_site_hse06_10hf_ddec_charge
 _atom_site_hse06_10hf_ddec_spin_density
 _atom_site_hse06_10hf_ddec_sum_bond_order
 _atom_site_hse06_10hf_magmom
 _atom_site_hse06_bader_spin_density
 _atom_site_hse06_ddec_charge
 _atom_site_hse06_ddec_spin_density
 _atom_site_hse06_ddec_sum_bond_order
 _atom_site_hse06_magmom
 _atom_site_pbe_bader_charge
 _atom_site_pbe_bader_spin_density
 _atom_site_pbe_cm5_charge
 _atom_site_pbe_ddec_charge
 _atom_site_pbe_ddec_spin_density
 _atom_site_pbe_ddec_sum_bond_order
 _atom_site_pbe_magmom
Cd  Cd0  1  0.00000097  0.00000000  0.00000018  1  0  0.922593  0  1.944013  0  0  0.722628  0  2.410861  0  0  0.771531  0  2.372432  0  1.163296  0  0.655595  0.687991  0  2.436797  0
Cd  Cd1  1  0.00000068  0.50000094  0.49999975  1  0  0.921554  0  1.945248  0  0  0.721178  0  2.412737  0  0  0.770145  0  2.374299  0  1.164067  0  0.655914  0.687296  0  2.438197  0
H  H2  1  0.71424286  0.52131718  0.07209114  1  0  0.098273  0  0.952055  0  0  0.113691  0  1.003875  0  0  0.116154  0  1.003225  0  0.087363  0  0.107041  0.112031  0  1.004393  0
H  H3  1  0.30768068  0.97893179  0.42778412  1  0  0.097643  0  0.952836  0  0  0.112731  0  1.005157  0  0  0.115184  0  1.004481  0  0.068894  0  0.106689  0.111048  0  1.00565  0
H  H4  1  0.28575635  0.47868374  0.92790824  1  0  0.098264  0  0.952048  0  0  0.1137  0  1.003846  0  0  0.116162  0  1.003196  0  0.087357  0  0.107052  0.112034  0  1.004372  0
H  H5  1  0.69231773  0.02106816  0.57221660  1  0  0.097673  0  0.95279  0  0  0.112758  0  1.005112  0  0  0.115211  0  1.004435  0  0.068907  0  0.106695  0.111074  0  1.005607  0
H  H6  1  0.59671883  0.73725896  0.76625153  1  0  0.111161  0  0.95777  0  0  0.122427  0  1.014824  0  0  0.125879  0  1.014101  0  0.073258  0  0.104128  0.119999  0  1.015442  0
H  H7  1  0.09988732  0.76263491  0.73389626  1  0  0.111575  0  0.956396  0  0  0.12293  0  1.013408  0  0  0.12643  0  1.01263  0  0.091954  0  0.104191  0.120476  0  1.014023  0
H  H8  1  0.40328226  0.26273904  0.23374761  1  0  0.111184  0  0.957768  0  0  0.122431  0  1.014848  0  0  0.125884  0  1.014125  0  0.073225  0  0.104124  0.120002  0  1.015466  0
H  H9  1  0.90011478  0.23736405  0.26610590  1  0  0.111588  0  0.956365  0  0  0.122908  0  1.013418  0  0  0.126408  0  1.012641  0  0.091941  0  0.104163  0.120454  0  1.014033  0
H  H10  1  0.98030116  0.37783658  0.84581235  1  0  0.124177  0  0.991282  0  0  0.129328  0  1.059175  0  0  0.133252  0  1.057687  0  0.135973  0  0.096076  0.126502  0  1.060422  0
H  H11  1  0.20417060  0.12185986  0.65409785  1  0  0.122056  0  0.992515  0  0  0.127592  0  1.060206  0  0  0.131571  0  1.058681  0  0.158234  0  0.0952  0.124672  0  1.061568  0
H  H12  1  0.01969609  0.62216239  0.15418893  1  0  0.124141  0  0.991306  0  0  0.129302  0  1.059186  0  0  0.133226  0  1.057698  0  0.135978  0  0.096075  0.126477  0  1.060431  0
H  H13  1  0.79583097  0.87814008  0.34590200  1  0  0.122051  0  0.992534  0  0  0.127595  0  1.060219  0  0  0.13157  0  1.058698  0  0.158241  0  0.0952  0.124674  0  1.061582  0
H  H14  1  0.47288079  0.56752489  0.90391829  1  0  0.111992  0  0.951984  0  0  0.122669  0  1.010529  0  0  0.12607  0  1.009542  0  0.083012  0  0.107119  0.120206  0  1.011424  0
H  H15  1  0.94409036  0.93229602  0.59604664  1  0  0.111355  0  0.953024  0  0  0.122033  0  1.011532  0  0  0.125436  0  1.010553  0  0.079851  0  0.107169  0.11959  0  1.012392  0
H  H16  1  0.52711787  0.43247506  0.09608104  1  0  0.111953  0  0.952029  0  0  0.12262  0  1.01059  0  0  0.126022  0  1.009602  0  0.082789  0  0.107107  0.120168  0  1.011472  0
H  H17  1  0.05591005  0.06770684  0.40395503  1  0  0.111332  0  0.953008  0  0  0.122029  0  1.011497  0  0  0.125431  0  1.010516  0  0.079489  0  0.107168  0.119585  0  1.01236  0
H  H18  1  0.19259739  0.71270798  0.96242055  1  0  0.069339  0  0.985556  0  0  0.072766  0  1.061867  0  0  0.074804  0  1.060393  0  0.113845  0  0.101881  0.071088  0  1.063218  0
H  H19  1  0.86756522  0.78711487  0.53749361  1  0  0.069881  0  0.985872  0  0  0.073383  0  1.062065  0  0  0.075445  0  1.060604  0  0.110571  0  0.10219  0.071723  0  1.063306  0
H  H20  1  0.80740163  0.28729196  0.03757957  1  0  0.069335  0  0.985571  0  0  0.072763  0  1.061881  0  0  0.074799  0  1.06041  0  0.11386  0  0.101884  0.071086  0  1.063231  0
H  H21  1  0.13243301  0.21288993  0.46250685  1  0  0.069908  0  0.985807  0  0  0.073382  0  1.062035  0  0  0.075456  0  1.060564  0  0.110597  0  0.102178  0.071723  0  1.063272  0
H  H22  1  0.07105509  0.56679719  0.84048390  1  0  0.100861  0  0.94556  0  0  0.116244  0  0.996497  0  0  0.118724  0  0.995942  0  0.100114  0  0.10796  0.114536  0  0.996966  0
H  H23  1  0.47850049  0.93268614  0.65946601  1  0  0.100443  0  0.945719  0  0  0.115565  0  0.997097  0  0  0.118006  0  0.996566  0  0.072124  0  0.107911  0.113903  0  0.997461  0
H  H24  1  0.92894454  0.43320275  0.15951560  1  0  0.100846  0  0.94547  0  0  0.116229  0  0.996411  0  0  0.118709  0  0.995857  0  0.100138  0  0.107948  0.11452  0  0.996882  0
H  H25  1  0.52149756  0.06731381  0.34053393  1  0  0.100443  0  0.945714  0  0  0.115561  0  0.997095  0  0  0.118002  0  0.996565  0  0.072123  0  0.107907  0.113899  0  0.997459  0
H  H26  1  0.67071564  0.80252977  0.97774023  1  0  0.125417  0  0.987276  0  0  0.130092  0  1.056779  0  0  0.134251  0  1.054589  0  0.164794  0  0.094704  0.127068  0  1.058534  0
H  H27  1  0.45081365  0.69731157  0.52230788  1  0  0.127318  0  0.987029  0  0  0.132023  0  1.056093  0  0  0.136265  0  1.053808  0  0.115735  0  0.095398  0.128924  0  1.057986  0
H  H28  1  0.32928338  0.19747018  0.02225988  1  0  0.125418  0  0.987308  0  0  0.130094  0  1.05681  0  0  0.134252  0  1.054619  0  0.164957  0  0.094704  0.12707  0  1.058566  0
H  H29  1  0.54918439  0.30268837  0.47769205  1  0  0.127276  0  0.986976  0  0  0.132003  0  1.056026  0  0  0.136244  0  1.053742  0  0.11573  0  0.095383  0.128904  0  1.057919  0
H  H30  1  0.38199724  0.94763406  0.02083121  1  0  0.079028  0  0.938009  0  0  0.08793  0  1.000031  0  0  0.090291  0  0.997717  0  0.116246  0  0.111777  0.086168  0  1.001706  0
H  H31  1  0.35038481  0.55213237  0.47921939  1  0  0.079472  0  0.936945  0  0  0.088294  0  0.998947  0  0  0.090646  0  0.996664  0  0.140819  0  0.111383  0.086302  0  1.001096  0
H  H32  1  0.61800317  0.05236491  0.97916921  1  0  0.079024  0  0.938037  0  0  0.087927  0  1.000055  0  0  0.090288  0  0.997742  0  0.116224  0  0.111784  0.086164  0  1.001731  0
H  H33  1  0.64961089  0.44787049  0.52077782  1  0  0.079433  0  0.937005  0  0  0.08826  0  0.999002  0  0  0.090613  0  0.996719  0  0.140784  0  0.111358  0.086269  0  1.001152  0
H  H34  1  0.05083877  0.34457660  0.69347766  1  0  0.076874  0  0.971039  0  0  0.084452  0  1.037249  0  0  0.086985  0  1.034389  0  0.118448  0  0.103327  0.082647  0  1.039103  0
H  H35  1  0.08945019  0.15520739  0.80641318  1  0  0.077271  0  0.970643  0  0  0.085423  0  1.036279  0  0  0.087879  0  1.033512  0  0.115808  0  0.103278  0.083592  0  1.038227  0
H  H36  1  0.94916510  0.65542334  0.30652334  1  0  0.076841  0  0.971009  0  0  0.084424  0  1.037224  0  0  0.086946  0  1.034376  0  0.118331  0  0.103299  0.082619  0  1.039079  0
H  H37  1  0.91054866  0.84479352  0.19358541  1  0  0.077294  0  0.970579  0  0  0.085417  0  1.036258  0  0  0.087874  0  1.03349  0  0.115815  0  0.103278  0.083592  0  1.0382  0
H  H38  1  0.67755802  0.68092382  0.61945470  1  0  0.071948  0  0.979333  0  0  0.076236  0  1.052657  0  0  0.078858  0  1.050142  0  0.113876  0  0.098606  0.074246  0  1.054589  0
H  H39  1  0.97819603  0.81899826  0.88070407  1  0  0.072932  0  0.979192  0  0  0.076903  0  1.052587  0  0  0.079623  0  1.049976  0  0.125371  0  0.098845  0.07485  0  1.054545  0
H  H40  1  0.32244562  0.31907417  0.38054418  1  0  0.071936  0  0.97935  0  0  0.076235  0  1.052664  0  0  0.078856  0  1.050147  0  0.113866  0  0.098597  0.074245  0  1.054598  0
H  H41  1  0.02180304  0.18100460  0.11929663  1  0  0.072945  0  0.979158  0  0  0.076912  0  1.052557  0  0  0.079631  0  1.049948  0  0.125333  0  0.098857  0.074859  0  1.054515  0
C  C42  1  0.59379186  0.67620742  0.93326720  1  0  0.233344  0  3.791027  0  0  0.222546  0  4.042657  0  0  0.234395  0  4.061772  0  0.352196  0  0.107531  0.214706  0  4.029406  0
C  C43  1  0.20309986  0.82367672  0.56664642  1  0  0.235268  0  3.791418  0  0  0.221975  0  4.046289  0  0  0.233935  0  4.065351  0  0.308961  0  0.107079  0.214121  0  4.033151  0
C  C44  1  0.40620777  0.32379252  0.06673230  1  0  0.233403  0  3.791018  0  0  0.222717  0  4.042477  0  0  0.234567  0  4.061588  0  0.352181  0  0.107619  0.214877  0  4.02923  0
C  C45  1  0.79690066  0.17632225  0.43335618  1  0  0.235354  0  3.79132  0  0  0.221952  0  4.046334  0  0  0.233905  0  4.065407  0  0.309047  0  0.107073  0.214098  0  4.033193  0
C  C46  1  0.87726986  0.54915057  0.95005134  1  0  0.189334  0  3.773244  0  0  0.180166  0  4.027494  0  0  0.186593  0  4.049236  0  0.314627  0  0.093488  0.175858  0  4.012634  0
C  C47  1  0.37648029  0.95068980  0.54988681  1  0  0.187742  0  3.773808  0  0  0.179461  0  4.026588  0  0  0.185834  0  4.048383  0  0.306174  0  0.094233  0.175188  0  4.011847  0
C  C48  1  0.12273092  0.45085035  0.04994761  1  0  0.189311  0  3.773292  0  0  0.180166  0  4.027497  0  0  0.186593  0  4.049238  0  0.314772  0  0.093484  0.175859  0  4.012635  0
C  C49  1  0.62351879  0.04930917  0.45011264  1  0  0.187753  0  3.773775  0  0  0.179476  0  4.026519  0  0  0.18585  0  4.048312  0  0.3062  0  0.094209  0.175202  0  4.011778  0
C  C50  1  0.83978993  0.51153706  0.04021296  1  0  -0.124703  0  3.747853  0  0  -0.146269  0  4.003561  0  0  -0.149284  0  4.023953  0  -0.074811  0  -0.087505  -0.14434  0  3.990184  0
C  C51  1  0.39151112  0.98862143  0.45974058  1  0  -0.123949  0  3.751039  0  0  -0.145872  0  4.00689  0  0  -0.148804  0  4.027196  0  0.011879  0  -0.087759  -0.143784  0  3.993137  0
C  C52  1  0.16020988  0.48846385  0.95978581  1  0  -0.124648  0  3.747886  0  0  -0.146218  0  4.003555  0  0  -0.149232  0  4.023945  0  -0.074821  0  -0.087502  -0.144284  0  3.990178  0
C  C53  1  0.60848984  0.01137852  0.54025989  1  0  -0.123914  0  3.750869  0  0  -0.145836  0  4.006709  0  0  -0.148766  0  4.027012  0  0.01188  0  -0.087713  -0.143748  0  3.992956  0
C  C54  1  0.69676255  0.64778740  0.75370620  1  0  -0.231145  0  3.739532  0  0  -0.248564  0  3.99109  0  0  -0.258598  0  4.010709  0  -0.047358  0  -0.10414  -0.242035  0  3.977741  0
C  C55  1  0.09822662  0.85206659  0.74635772  1  0  -0.231772  0  3.736992  0  0  -0.249116  0  3.988793  0  0  -0.259173  0  4.00836  0  -0.046791  0  -0.103967  -0.242465  0  3.975418  0
C  C56  1  0.30323969  0.35221157  0.24629238  1  0  -0.231169  0  3.739485  0  0  -0.248541  0  3.991082  0  0  -0.258575  0  4.010699  0  -0.046978  0  -0.104142  -0.242011  0  3.977732  0
C  C57  1  0.90177592  0.14793335  0.25364231  1  0  -0.231805  0  3.737032  0  0  -0.249116  0  3.988847  0  0  -0.259173  0  4.008415  0  -0.046497  0  -0.10396  -0.242465  0  3.975472  0
C  C58  1  0.91107944  0.44946695  0.79757889  1  0  -0.22156  0  3.708695  0  0  -0.236734  0  3.957244  0  0  -0.24722  0  3.976878  0  -0.030293  0  -0.098451  -0.229933  0  3.944028  0
C  C59  1  0.15845638  0.05022755  0.70239762  1  0  -0.218727  0  3.70837  0  0  -0.233766  0  3.956673  0  0  -0.244277  0  3.976241  0  -0.045088  0  -0.097891  -0.227134  0  3.943769  0
C  C60  1  0.08891629  0.55053105  0.20242217  1  0  -0.221545  0  3.708563  0  0  -0.2367  0  3.957143  0  0  -0.247188  0  3.976781  0  -0.030267  0  -0.098423  -0.229899  0  3.943928  0
C  C61  1  0.84154422  0.94977239  0.29760206  1  0  -0.218702  0  3.708325  0  0  -0.233738  0  3.956623  0  0  -0.244246  0  3.976193  0  -0.045103  0  -0.097882  -0.227107  0  3.943719  0
C  C62  1  0.78534164  0.56411503  0.81861071  1  0  0.247977  0  3.783621  0  0  0.234634  0  4.035328  0  0  0.24885  0  4.052838  0  0.338658  0  0.110714  0.225323  0  4.023011  0
C  C63  1  0.16810092  0.93565334  0.68136813  1  0  0.246924  0  3.782267  0  0  0.23261  0  4.03506  0  0  0.246823  0  4.052602  0  0.304039  0  0.110758  0.223245  0  4.022881  0
C  C64  1  0.21465842  0.43588394  0.18138892  1  0  0.248028  0  3.783563  0  0  0.234601  0  4.035388  0  0  0.248816  0  4.052899  0  0.338275  0  0.110702  0.22529  0  4.023072  0
C  C65  1  0.83190065  0.06434660  0.31863173  1  0  0.246943  0  3.782308  0  0  0.232608  0  4.035092  0  0  0.246822  0  4.052634  0  0.30359  0  0.110783  0.223245  0  4.022909  0
C  C66  1  0.45685910  0.65066899  0.92998630  1  0  -0.218327  0  3.740425  0  0  -0.239031  0  3.999968  0  0  -0.247721  0  4.019344  0  -0.064231  0  -0.096811  -0.233426  0  3.987066  0
C  C67  1  0.03732959  0.84920639  0.56991875  1  0  -0.216523  0  3.742178  0  0  -0.236308  0  4.002342  0  0  -0.245058  0  4.021775  0  -0.036923  0  -0.095806  -0.230838  0  3.989446  0
C  C68  1  0.54314072  0.34933192  0.07001247  1  0  -0.218307  0  3.740417  0  0  -0.239036  0  3.999939  0  0  -0.247726  0  4.019314  0  -0.064072  0  -0.096861  -0.233439  0  3.987034  0
C  C69  1  0.96267046  0.15079647  0.43008214  1  0  -0.216471  0  3.742201  0  0  -0.236245  0  4.002371  0  0  -0.24499  0  4.021805  0  -0.038844  0  -0.095783  -0.230776  0  3.989474  0
C  C70  1  0.30196443  0.73177497  0.96108971  1  0  0.135734  0  3.734957  0  0  0.107091  0  3.986295  0  0  0.114873  0  4.004702  0  0.499633  0  0.036345  0.10205  0  3.973959  0
C  C71  1  0.99467096  0.76807999  0.53880806  1  0  0.133435  0  3.738209  0  0  0.104609  0  3.989433  0  0  0.112345  0  4.007878  0  0.50033  0  0.035092  0.099767  0  3.97683  0
C  C72  1  0.69803513  0.26822594  0.03891046  1  0  0.13573  0  3.734947  0  0  0.107083  0  3.986293  0  0  0.114865  0  4.004698  0  0.499643  0  0.036329  0.102042  0  3.97396  0
C  C73  1  0.00532570  0.23192093  0.46119158  1  0  0.133384  0  3.738203  0  0  0.104572  0  3.989426  0  0  0.112296  0  4.007866  0  0.502561  0  0.035109  0.099731  0  3.976822  0
C  C74  1  0.03909710  0.53779443  0.91044528  1  0  -0.125125  0  3.748451  0  0  -0.145752  0  4.002695  0  0  -0.148807  0  4.022914  0  0.040157  0  -0.086302  -0.143671  0  3.989241  0
C  C75  1  0.48749163  0.96183775  0.58951000  1  0  -0.123505  0  3.751056  0  0  -0.144164  0  4.00531  0  0  -0.147172  0  4.025494  0  -0.01636  0  -0.085957  -0.142115  0  3.991606  0
C  C76  1  0.96090375  0.46220551  0.08955300  1  0  -0.125084  0  3.748304  0  0  -0.145705  0  4.002531  0  0  -0.148759  0  4.022746  0  0.040011  0  -0.086287  -0.143625  0  3.989079  0
C  C77  1  0.51250684  0.03816122  0.41049006  1  0  -0.123505  0  3.751133  0  0  -0.144163  0  4.005377  0  0  -0.147171  0  4.025561  0  -0.016417  0  -0.085944  -0.142114  0  3.991673  0
C  C78  1  0.56829231  0.78155403  0.97004858  1  0  -0.204361  0  3.68773  0  0  -0.220726  0  3.933563  0  0  -0.229809  0  3.952861  0  -0.074227  0  -0.090135  -0.214884  0  3.920709  0
C  C79  1  0.31974614  0.71829314  0.52991129  1  0  -0.209687  0  3.690716  0  0  -0.225321  0  3.937112  0  0  -0.234521  0  3.956342  0  0.041236  0  -0.091761  -0.219279  0  3.924409  0
C  C80  1  0.43170696  0.21844591  0.02995013  1  0  -0.204372  0  3.687722  0  0  -0.220765  0  3.933514  0  0  -0.229851  0  3.952815  0  -0.074659  0  -0.090147  -0.214924  0  3.920661  0
C  C81  1  0.68025459  0.28170875  0.47008831  1  0  -0.209701  0  3.69065  0  0  -0.225329  0  3.937089  0  0  -0.234528  0  3.956322  0  0.041074  0  -0.091743  -0.219287  0  3.924385  0
C  C82  1  0.40782766  0.86011405  0.99661926  1  0  0.144371  0  3.719189  0  0  0.115842  0  3.967655  0  0  0.124064  0  3.985206  0  0.476459  0  0.045767  0.110523  0  3.955644  0
C  C83  1  0.26446436  0.63970783  0.50335792  1  0  0.145014  0  3.719857  0  0  0.116653  0  3.968034  0  0  0.124833  0  3.985695  0  0.450417  0  0.046383  0.111272  0  3.956334  0
C  C84  1  0.59217221  0.13988395  0.00338110  1  0  0.14439  0  3.719164  0  0  0.115861  0  3.96763  0  0  0.12408  0  3.985184  0  0.476737  0  0.045769  0.110542  0  3.955618  0
C  C85  1  0.73553302  0.36029503  0.49664104  1  0  0.145042  0  3.719977  0  0  0.11667  0  3.968154  0  0  0.12485  0  3.985813  0  0.450375  0  0.046373  0.111287  0  3.956456  0
C  C86  1  0.94876162  0.42901169  0.71336042  1  0  0.141284  0  3.730062  0  0  0.112546  0  3.977497  0  0  0.12149  0  3.995061  0  0.498287  0  0.038475  0.106848  0  3.965251  0
C  C87  1  0.09164448  0.07074701  0.78660926  1  0  0.139314  0  3.729174  0  0  0.110024  0  3.976608  0  0  0.119009  0  3.99423  0  0.483327  0  0.03719  0.104363  0  3.964485  0
C  C88  1  0.05123903  0.57098533  0.28664086  1  0  0.141339  0  3.729932  0  0  0.112604  0  3.977387  0  0  0.121555  0  3.994954  0  0.498437  0  0.0385  0.106906  0  3.96514  0
C  C89  1  0.90835771  0.92925293  0.21338998  1  0  0.139298  0  3.729057  0  0  0.110016  0  3.976511  0  0  0.119001  0  3.994132  0  0.483337  0  0.037178  0.10435  0  3.964386  0
C  C90  1  0.74150340  0.61711424  0.67187457  1  0  0.126466  0  3.763439  0  0  0.098772  0  4.014567  0  0  0.107286  0  4.032709  0  0.476911  0  0.031635  0.093335  0  4.002097  0
C  C91  1  0.03077681  0.88274850  0.82822445  1  0  0.126693  0  3.761692  0  0  0.099342  0  4.012626  0  0  0.107787  0  4.030699  0  0.476401  0  0.031471  0.093972  0  4.000139  0
C  C92  1  0.25850078  0.38288473  0.32812436  1  0  0.1264  0  3.763437  0  0  0.098689  0  4.014585  0  0  0.107205  0  4.032725  0  0.476889  0  0.03161  0.093251  0  4.002116  0
C  C93  1  0.96922511  0.11725144  0.17177619  1  0  0.126679  0  3.761694  0  0  0.099326  0  4.012625  0  0  0.107771  0  4.030699  0  0.476395  0  0.031478  0.093956  0  4.00014  0
N  N94  1  0.27623644  0.83716536  0.99208486  1  0  -0.328162  0  3.22663  0  0  -0.257108  0  3.487184  0  0  -0.275888  0  3.505906  0  -1.218745  0  -0.330884  -0.244299  0  3.474248  0
N  N95  1  0.10539406  0.66268570  0.50785474  1  0  -0.325524  0  3.228498  0  0  -0.254287  0  3.488953  0  0  -0.273101  0  3.507783  0  -1.260041  0  -0.329527  -0.24159  0  3.475789  0
N  N96  1  0.72376215  0.16283555  0.00791513  1  0  -0.328164  0  3.22657  0  0  -0.25711  0  3.487126  0  0  -0.275889  0  3.505846  0  -1.218698  0  -0.330864  -0.244302  0  3.474189  0
N  N97  1  0.89460248  0.33731910  0.49214396  1  0  -0.325559  0  3.228491  0  0  -0.254299  0  3.488927  0  0  -0.273111  0  3.50776  0  -1.259877  0  -0.329569  -0.241601  0  3.475763  0
N  N98  1  0.75257684  0.59606457  0.90015243  1  0  -0.238157  0  3.443345  0  0  -0.161454  0  3.664576  0  0  -0.182642  0  3.685704  0  -1.230152  0  -0.245462  -0.146632  0  3.649248  0
N  N99  1  0.24870112  0.90379136  0.59977112  1  0  -0.23826  0  3.440741  0  0  -0.160173  0  3.661507  0  0  -0.18139  0  3.682658  0  -1.203657  0  -0.246093  -0.14545  0  3.64636  0
N  N100  1  0.24742279  0.40393537  0.09984707  1  0  -0.238209  0  3.443407  0  0  -0.161524  0  3.664627  0  0  -0.18271  0  3.685754  0  -1.230159  0  -0.245465  -0.146701  0  3.649299  0
N  N101  1  0.75130027  0.09620761  0.40022947  1  0  -0.238315  0  3.440767  0  0  -0.16015  0  3.661488  0  0  -0.181365  0  3.682641  0  -1.203408  0  -0.246068  -0.145426  0  3.646339  0
N  N102  1  0.86812061  0.51129482  0.65030749  1  0  -0.340361  0  3.238215  0  0  -0.267722  0  3.498798  0  0  -0.287815  0  3.517969  0  -1.246336  0  -0.339923  -0.254134  0  3.485325  0
N  N103  1  0.03021806  0.98853192  0.84972923  1  0  -0.339733  0  3.23596  0  0  -0.267241  0  3.496643  0  0  -0.287322  0  3.51582  0  -1.2326  0  -0.33877  -0.253577  0  3.483246  0
N  N104  1  0.13188120  0.48870317  0.34969323  1  0  -0.340332  0  3.238227  0  0  -0.267697  0  3.498828  0  0  -0.287788  0  3.517996  0  -1.246302  0  -0.339909  -0.254107  0  3.485353  0
N  N105  1  0.96978011  0.01146996  0.15027064  1  0  -0.339725  0  3.235946  0  0  -0.267219  0  3.496624  0  0  -0.287301  0  3.515801  0  -1.232592  0  -0.338776  -0.253555  0  3.483229  0
Cl  Cl106  1  0.12494144  0.18216522  0.95324615  1  0  -0.617337  0  0.841568  0  0  -0.565719  0  1.08796  0  0  -0.581143  0  1.069093  0  -0.70038  0  -0.344802  -0.55417  0  1.101005  0
Cl  Cl107  1  0.26046179  0.31775595  0.54668213  1  0  -0.617108  0  0.840953  0  0  -0.565622  0  1.087404  0  0  -0.581025  0  1.06855  0  -0.701687  0  -0.344863  -0.554091  0  1.100497  0
Cl  Cl108  1  0.87505806  0.81783667  0.04675468  1  0  -0.61732  0  0.841549  0  0  -0.565702  0  1.087942  0  0  -0.581125  0  1.069072  0  -0.700375  0  -0.344801  -0.554154  0  1.100987  0
Cl  Cl109  1  0.73953794  0.68224399  0.45331956  1  0  -0.617126  0  0.840964  0  0  -0.565645  0  1.087435  0  0  -0.581045  0  1.068576  0  -0.701685  0  -0.344868  -0.554114  0  1.100528  0
