# generated using pymatgen
data_CdH15C25N2O7
_symmetry_space_group_name_H-M   'P 1'
_cell_length_a   9.08339905
_cell_length_b   11.44505158
_cell_length_c   11.63578190
_cell_angle_alpha   93.60445287
_cell_angle_beta   102.03723974
_cell_angle_gamma   103.87123609
_symmetry_Int_Tables_number   1
_chemical_formula_structural   CdH15C25N2O7
_chemical_formula_sum   'Cd2 H30 C50 N4 O14'
_cell_volume   1140.41300222
_cell_formula_units_Z   2
loop_
 _symmetry_equiv_pos_site_id
 _symmetry_equiv_pos_as_xyz
  1  'x, y, z'
loop_
 _atom_site_type_symbol
 _atom_site_label
 _atom_site_symmetry_multiplicity
 _atom_site_fract_x
 _atom_site_fract_y
 _atom_site_fract_z
 _atom_site_occupancy
 _atom_site_hle17_bader_spin_density
 _atom_site_hle17_ddec_charge
 _atom_site_hle17_ddec_spin_density
 _atom_site_hle17_ddec_sum_bond_order
 _atom_site_hle17_magmom
 _atom_site_hse06_10hf_bader_spin_density
 _atom_site_hse06_10hf_ddec_charge
 _atom_site_hse06_10hf_ddec_spin_density
 _atom_site_hse06_10hf_ddec_sum_bond_order
 _atom_site_hse06_10hf_magmom
 _atom_site_hse06_bader_spin_density
 _atom_site_hse06_ddec_charge
 _atom_site_hse06_ddec_spin_density
 _atom_site_hse06_ddec_sum_bond_order
 _atom_site_hse06_magmom
 _atom_site_pbe_bader_spin_density
 _atom_site_pbe_cm5_charge
 _atom_site_pbe_ddec_charge
 _atom_site_pbe_ddec_spin_density
 _atom_site_pbe_ddec_sum_bond_order
 _atom_site_pbe_magmom
Cd  Cd0  1  0.03009062  0.09489539  0.29400286  1  0  1.159398  0  1.566047  0  0  0.968339  0  2.006002  0  0  1.034652  0  1.946529  0  0  0.786987  0.921923  0  2.04601  0
Cd  Cd1  1  0.96988357  0.90515977  0.70603733  1  0  1.15948  0  1.565989  0  0  0.968437  0  2.005956  0  0  1.034741  0  1.946476  0  0  0.787255  0.922262  0  2.045756  0
H  H2  1  0.15266185  0.70019018  0.15710657  1  0  0.105853  0  0.950942  0  0  0.114928  0  1.01201  0  0  0.120315  0  1.006629  0  0  0.10448  0.110909  0  1.016187  0
H  H3  1  0.84731446  0.29985411  0.84291440  1  0  0.105963  0  0.95085  0  0  0.114937  0  1.011996  0  0  0.120323  0  1.006619  0  0  0.104427  0.11093  0  1.016191  0
H  H4  1  0.24051428  0.51365794  0.20999800  1  0  0.100661  0  0.961047  0  0  0.109318  0  1.022527  0  0  0.114122  0  1.018363  0  0  0.101989  0.105397  0  1.025721  0
H  H5  1  0.75947702  0.48639099  0.79002395  1  0  0.100519  0  0.961163  0  0  0.109169  0  1.022657  0  0  0.113975  0  1.018482  0  0  0.101939  0.105384  0  1.025971  0
H  H6  1  0.24350814  0.45054273  0.41175003  1  0  0.13824  0  0.926154  0  0  0.147012  0  0.98443  0  0  0.153345  0  0.980826  0  0  0.11672  0.142204  0  0.987564  0
H  H7  1  0.75648960  0.54949814  0.58827334  1  0  0.13818  0  0.926077  0  0  0.147027  0  0.984261  0  0  0.153346  0  0.980672  0  0  0.116753  0.142309  0  0.98734  0
H  H8  1  0.43771405  0.70240799  0.58594390  1  0  0.136465  0  0.936285  0  0  0.1435  0  0.997097  0  0  0.148734  0  0.993384  0  0  0.116033  0.139677  0  0.999525  0
H  H9  1  0.56227765  0.29764555  0.41410417  1  0  0.136605  0  0.93616  0  0  0.143657  0  0.996961  0  0  0.148891  0  0.993248  0  0  0.116073  0.139749  0  0.999427  0
H  H10  1  0.63895901  0.60284921  0.92061078  1  0  0.096372  0  0.958969  0  0  0.106196  0  1.022403  0  0  0.111023  0  1.016961  0  0  0.103062  0.102555  0  1.026695  0
H  H11  1  0.36101797  0.39709834  0.07938735  1  0  0.096421  0  0.959185  0  0  0.106236  0  1.022604  0  0  0.111065  0  1.017161  0  0  0.10302  0.102534  0  1.026905  0
H  H12  1  0.37564113  0.47060496  0.92868682  1  0  0.083393  0  0.976653  0  0  0.096762  0  1.033319  0  0  0.099668  0  1.031221  0  0  0.100574  0.094546  0  1.034951  0
H  H13  1  0.62432907  0.52931803  0.07127351  1  0  0.08324  0  0.976655  0  0  0.096644  0  1.033344  0  0  0.099547  0  1.03125  0  0  0.100478  0.094409  0  1.035013  0
H  H14  1  0.14652794  0.45330009  0.76161433  1  0  0.116875  0  0.956532  0  0  0.125592  0  1.019113  0  0  0.128552  0  1.017762  0  0  0.108801  0.123324  0  1.020691  0
H  H15  1  0.85345234  0.54665460  0.23834522  1  0  0.116816  0  0.956285  0  0  0.125513  0  1.018942  0  0  0.128474  0  1.017587  0  0  0.108767  0.123236  0  1.020469  0
H  H16  1  0.84340341  0.92128613  0.04909509  1  0  0.094943  0  0.944803  0  0  0.10391  0  1.006257  0  0  0.107599  0  1.002757  0  0  0.118258  0.100882  0  1.00911  0
H  H17  1  0.15661947  0.07874871  0.95095260  1  0  0.094832  0  0.944826  0  0  0.103856  0  1.006145  0  0  0.107543  0  1.002645  0  0  0.118196  0.100805  0  1.008962  0
H  H18  1  0.64745537  0.92640684  0.86455315  1  0  0.10833  0  0.977464  0  0  0.118385  0  1.038375  0  0  0.121022  0  1.038121  0  0  0.108383  0.115734  0  1.03961  0
H  H19  1  0.35258833  0.07359107  0.13546820  1  0  0.108075  0  0.977628  0  0  0.1182  0  1.038507  0  0  0.120844  0  1.038241  0  0  0.108267  0.11552  0  1.039721  0
H  H20  1  0.64705253  0.28412788  0.00833183  1  0  0.092015  0  0.980297  0  0  0.103334  0  1.041831  0  0  0.103894  0  1.044893  0  0  0.100792  0.102919  0  1.039981  0
H  H21  1  0.35287270  0.71585527  0.99164030  1  0  0.091937  0  0.980347  0  0  0.103299  0  1.041837  0  0  0.103853  0  1.044914  0  0  0.100754  0.102921  0  1.039984  0
H  H22  1  0.83735896  0.26241274  0.18571759  1  0  0.080935  0  0.939292  0  0  0.089692  0  1.002019  0  0  0.090595  0  1.001471  0  0  0.116658  0.089012  0  1.002566  0
H  H23  1  0.16253585  0.73760186  0.81428933  1  0  0.081227  0  0.939076  0  0  0.090077  0  1.001664  0  0  0.090929  0  1.001171  0  0  0.116931  0.089477  0  1.002237  0
H  H24  1  0.56871602  0.97858845  0.69706220  1  0  0.120209  0  0.964787  0  0  0.130372  0  1.026569  0  0  0.133694  0  1.025148  0  0  0.108556  0.126688  0  1.028573  0
H  H25  1  0.43141441  0.02139213  0.30294461  1  0  0.120062  0  0.964892  0  0  0.130292  0  1.026619  0  0  0.13363  0  1.025169  0  0  0.108537  0.126594  0  1.028624  0
H  H26  1  0.38143499  0.00693226  0.51747826  1  0  0.081374  0  0.934267  0  0  0.092527  0  0.99768  0  0  0.092733  0  0.997244  0  0  0.119099  0.090037  0  0.99922  0
H  H27  1  0.61871691  0.99298877  0.48249323  1  0  0.081331  0  0.933993  0  0  0.092409  0  0.997434  0  0  0.092682  0  0.996936  0  0  0.119264  0.08991  0  0.999055  0
H  H28  1  0.25823697  0.27663872  0.69823772  1  0  0.069773  0  0.954061  0  0  0.079237  0  1.021438  0  0  0.0781  0  1.022705  0  0  0.108734  0.079512  0  1.020424  0
H  H29  1  0.74174531  0.72324523  0.30162340  1  0  0.069641  0  0.954056  0  0  0.078922  0  1.021634  0  0  0.077785  0  1.022913  0  0  0.108604  0.079222  0  1.020599  0
H  H30  1  0.42932668  0.25560659  0.88928779  1  0  0.090566  0  0.970541  0  0  0.103967  0  1.031422  0  0  0.104611  0  1.033372  0  0  0.101844  0.102354  0  1.03157  0
H  H31  1  0.57063331  0.74434142  0.11061051  1  0  0.090294  0  0.970411  0  0  0.103616  0  1.031405  0  0  0.104255  0  1.033372  0  0  0.101741  0.102011  0  1.031579  0
C  C32  1  0.06467769  0.85453887  0.29383371  1  0  0.610102  0  3.973599  0  0  0.562738  0  4.27088  0  0  0.596771  0  4.2726  0  0  0.192065  0.539264  0  4.266715  0
C  C33  1  0.93527954  0.14549162  0.70616446  1  0  0.610313  0  3.973927  0  0  0.563028  0  4.271097  0  0  0.597065  0  4.272804  0  0  0.192309  0.539523  0  4.26665  0
C  C34  1  0.06929728  0.77309069  0.53809667  1  0  0.649355  0  3.953492  0  0  0.591088  0  4.261086  0  0  0.623801  0  4.257516  0  0  0.201698  0.569781  0  4.263416  0
C  C35  1  0.93074998  0.22696782  0.46193660  1  0  0.649486  0  3.952417  0  0  0.591075  0  4.260275  0  0  0.623774  0  4.256724  0  0  0.201162  0.570049  0  4.263447  0
C  C36  1  0.11058183  0.70511133  0.44053292  1  0  -0.100416  0  3.641203  0  0  -0.100052  0  3.890377  0  0  -0.09225  0  3.892594  0  0  0.004058  -0.103566  0  3.886995  0
C  C37  1  0.88940161  0.29494117  0.55949486  1  0  -0.100653  0  3.6408  0  0  -0.100178  0  3.890032  0  0  -0.092333  0  3.89223  0  0  0.003968  -0.103833  0  3.887627  0
C  C38  1  0.11000006  0.74098573  0.32703780  1  0  -0.060059  0  3.724043  0  0  -0.048255  0  3.965961  0  0  -0.055181  0  3.979688  0  0  -0.011228  -0.044775  0  3.957573  0
C  C39  1  0.88998550  0.25904871  0.67298752  1  0  -0.060089  0  3.72486  0  0  -0.048418  0  3.966792  0  0  -0.055379  0  3.980549  0  0  -0.011219  -0.044863  0  3.958715  0
C  C40  1  0.15676978  0.67151265  0.24502980  1  0  -0.053338  0  3.691264  0  0  -0.080545  0  3.942823  0  0  -0.066577  0  3.942065  0  0  -0.076093  -0.091326  0  3.94526  0
C  C41  1  0.84321775  0.32852449  0.75498569  1  0  -0.053542  0  3.691535  0  0  -0.080546  0  3.943009  0  0  -0.066579  0  3.94227  0  0  -0.076052  -0.091263  0  3.945964  0
C  C42  1  0.20724593  0.56862071  0.27496394  1  0  -0.030635  0  3.718404  0  0  -0.043292  0  3.970804  0  0  -0.037712  0  3.977002  0  0  -0.08184  -0.046342  0  3.96738  0
C  C43  1  0.79274080  0.43142456  0.72505104  1  0  -0.030309  0  3.718254  0  0  -0.042988  0  3.970666  0  0  -0.037393  0  3.976856  0  0  -0.081586  -0.046209  0  3.968007  0
C  C44  1  0.21053805  0.53270346  0.38743883  1  0  -0.142305  0  3.685633  0  0  -0.173744  0  3.951163  0  0  -0.179977  0  3.963163  0  0  -0.083778  -0.171163  0  3.944646  0
C  C45  1  0.78946557  0.46733833  0.61257265  1  0  -0.142859  0  3.686188  0  0  -0.17436  0  3.95176  0  0  -0.180589  0  3.963781  0  0  -0.084069  -0.171612  0  3.945637  0
C  C46  1  0.16024523  0.60066919  0.46779843  1  0  0.267227  0  3.727686  0  0  0.245203  0  4.004736  0  0  0.2647  0  4.006587  0  0  0.097995  0.232096  0  4.003604  0
C  C47  1  0.83973450  0.39937875  0.53222589  1  0  0.267695  0  3.727779  0  0  0.245675  0  4.00477  0  0  0.265144  0  4.006641  0  0  0.098236  0.232468  0  4.00446  0
C  C48  1  0.28070637  0.57272581  0.66288863  1  0  0.30312  0  3.750414  0  0  0.288585  0  4.019685  0  0  0.30228  0  4.028563  0  0  0.102288  0.279279  0  4.013851  0
C  C49  1  0.71928746  0.42728877  0.33711793  1  0  0.302849  0  3.751196  0  0  0.288437  0  4.020278  0  0  0.30214  0  4.029152  0  0  0.102175  0.279084  0  4.014664  0
C  C50  1  0.42475622  0.64854752  0.65884009  1  0  -0.180726  0  3.681246  0  0  -0.214732  0  3.931297  0  0  -0.214365  0  3.942359  0  0  -0.087163  -0.212957  0  3.922511  0
C  C51  1  0.57523975  0.35148070  0.34118740  1  0  -0.180917  0  3.681266  0  0  -0.214934  0  3.931283  0  0  -0.214567  0  3.942333  0  0  -0.087318  -0.21321  0  3.922635  0
C  C52  1  0.55207867  0.65842486  0.75300464  1  0  -0.011263  0  3.752685  0  0  0.012646  0  3.986683  0  0  0.009387  0  4.002873  0  0  -0.008189  0.012612  0  3.977499  0
C  C53  1  0.44791003  0.34157706  0.24701152  1  0  -0.011195  0  3.752414  0  0  0.012697  0  3.986443  0  0  0.00945  0  4.002631  0  0  -0.008243  0.012659  0  3.977288  0
C  C54  1  0.53591103  0.59308588  0.84955396  1  0  -0.088719  0  3.731453  0  0  -0.122963  0  3.993414  0  0  -0.117064  0  4.003228  0  0  -0.08941  -0.128676  0  3.989651  0
C  C55  1  0.46406353  0.40687881  0.15044481  1  0  -0.089227  0  3.731985  0  0  -0.123474  0  3.993988  0  0  -0.117584  0  4.003815  0  0  -0.08953  -0.129095  0  3.990251  0
C  C56  1  0.39017477  0.52000609  0.85319992  1  0  -0.059651  0  3.80091  0  0  -0.070526  0  4.056611  0  0  -0.071046  0  4.073159  0  0  -0.088343  -0.069163  0  4.045926  0
C  C57  1  0.60980103  0.47994141  0.14678254  1  0  -0.059114  0  3.80058  0  0  -0.06998  0  4.0562  0  0  -0.070503  0  4.072773  0  0  -0.088075  -0.068662  0  4.045625  0
C  C58  1  0.26147171  0.50922758  0.76032733  1  0  -0.149175  0  3.689151  0  0  -0.175624  0  3.945684  0  0  -0.177236  0  3.959483  0  0  -0.087384  -0.17637  0  3.938018  0
C  C59  1  0.73850796  0.49074617  0.23966162  1  0  -0.149276  0  3.689098  0  0  -0.175751  0  3.945616  0  0  -0.177377  0  3.959437  0  0  -0.087455  -0.176406  0  3.937983  0
C  C60  1  0.70732844  0.74047704  0.75137795  1  0  0.60948  0  3.962908  0  0  0.566047  0  4.250783  0  0  0.599221  0  4.252018  0  0  0.195578  0.542412  0  4.245319  0
C  C61  1  0.29265858  0.25951589  0.24865974  1  0  0.610049  0  3.963117  0  0  0.566645  0  4.250933  0  0  0.599824  0  4.252169  0  0  0.195791  0.542904  0  4.245395  0
C  C62  1  0.79398602  0.99882265  0.03605628  1  0  0.13812  0  3.683759  0  0  0.10655  0  3.935499  0  0  0.115172  0  3.950304  0  0  0.050851  0.100703  0  3.926499  0
C  C63  1  0.20601641  0.00120110  0.96397027  1  0  0.138074  0  3.683695  0  0  0.106591  0  3.935418  0  0  0.115221  0  3.950215  0  0  0.050813  0.100774  0  3.926377  0
C  C64  1  0.68512983  0.00282747  0.93370235  1  0  -0.13565  0  3.669165  0  0  -0.156871  0  3.919782  0  0  -0.162064  0  3.937566  0  0  -0.07783  -0.153584  0  3.908692  0
C  C65  1  0.31488515  0.99718280  0.06630994  1  0  -0.13511  0  3.66896  0  0  -0.156458  0  3.919762  0  0  -0.161636  0  3.937527  0  0  -0.077639  -0.153117  0  3.908555  0
C  C66  1  0.62798028  0.10578829  0.91944309  1  0  0.106066  0  3.745472  0  0  0.114923  0  3.978147  0  0  0.12006  0  3.999609  0  0  0.017486  0.112237  0  3.963311  0
C  C67  1  0.37202379  0.89420555  0.08054584  1  0  0.105929  0  3.744782  0  0  0.114539  0  3.977754  0  0  0.119675  0  3.999223  0  0  0.017483  0.111869  0  3.9629  0
C  C68  1  0.68418375  0.20052820  0.01285863  1  0  -0.17113  0  3.721819  0  0  -0.184679  0  3.963859  0  0  -0.19523  0  3.989737  0  0  -0.085345  -0.17784  0  3.945979  0
C  C69  1  0.31576699  0.79946785  0.98712182  1  0  -0.170831  0  3.721557  0  0  -0.184387  0  3.963716  0  0  -0.194935  0  3.989583  0  0  -0.085134  -0.177533  0  3.945885  0
C  C70  1  0.79191638  0.18969912  0.11266323  1  0  0.152053  0  3.708958  0  0  0.120883  0  3.955135  0  0  0.129065  0  3.975336  0  0  0.050481  0.116031  0  3.941055  0
C  C71  1  0.20801790  0.81031221  0.88734127  1  0  0.151627  0  3.709174  0  0  0.120432  0  3.95537  0  0  0.128655  0  3.975584  0  0  0.050277  0.115602  0  3.941383  0
C  C72  1  0.51781008  0.11670762  0.80994300  1  0  0.076521  0  3.768071  0  0  0.091781  0  3.997562  0  0  0.092195  0  4.023259  0  0  0.005726  0.09044  0  3.980421  0
C  C73  1  0.48223015  0.88326211  0.19002970  1  0  0.076037  0  3.768571  0  0  0.091648  0  3.997699  0  0  0.092061  0  4.023411  0  0  0.005503  0.090342  0  3.980518  0
C  C74  1  0.50261257  0.04598008  0.70307321  1  0  -0.133455  0  3.638728  0  0  -0.155983  0  3.885519  0  0  -0.161036  0  3.904816  0  0  -0.072104  -0.150933  0  3.871872  0
C  C75  1  0.49748834  0.95398571  0.29691248  1  0  -0.133124  0  3.64025  0  0  -0.155768  0  3.886722  0  0  -0.160838  0  3.906061  0  0  -0.071931  -0.150689  0  3.87309  0
C  C76  1  0.39983098  0.06237496  0.60155635  1  0  0.139902  0  3.715325  0  0  0.106113  0  3.977657  0  0  0.114957  0  3.995592  0  0  0.059935  0.102467  0  3.965483  0
C  C77  1  0.60026874  0.93755550  0.39839954  1  0  0.139458  0  3.715688  0  0  0.105907  0  3.977898  0  0  0.114677  0  3.995811  0  0  0.059302  0.102301  0  3.966025  0
C  C78  1  0.32947564  0.21180708  0.70266968  1  0  0.11383  0  3.758725  0  0  0.084782  0  4.012643  0  0  0.091813  0  4.037191  0  0  0.048622  0.08114  0  3.996454  0
C  C79  1  0.67053846  0.78809890  0.29721250  1  0  0.113646  0  3.758972  0  0  0.084779  0  4.012894  0  0  0.091784  0  4.03745  0  0  0.048757  0.081225  0  3.996895  0
C  C80  1  0.42685437  0.20045736  0.80873768  1  0  -0.170288  0  3.736366  0  0  -0.188061  0  3.980069  0  0  -0.198022  0  4.008683  0  0  -0.086986  -0.181497  0  3.96176  0
C  C81  1  0.57314943  0.79949020  0.19118399  1  0  -0.169523  0  3.736723  0  0  -0.187257  0  3.980219  0  0  -0.197204  0  4.008815  0  0  -0.086595  -0.180663  0  3.961951  0
N  N82  1  0.84665935  0.09067749  0.12450443  1  0  -0.333321  0  3.27585  0  0  -0.249662  0  3.539349  0  0  -0.270167  0  3.554938  0  0  -0.324575  -0.237495  0  3.529828  0
N  N83  1  0.15330870  0.90935138  0.87552288  1  0  -0.333356  0  3.275988  0  0  -0.249741  0  3.539481  0  0  -0.270251  0  3.555056  0  0  -0.324557  -0.237608  0  3.530007  0
N  N84  1  0.31801679  0.14446262  0.60201491  1  0  -0.224938  0  3.061878  0  0  -0.162757  0  3.312218  0  0  -0.18736  0  3.337338  0  0  -0.271563  -0.153336  0  3.297789  0
N  N85  1  0.68203738  0.85543115  0.39789450  1  0  -0.224691  0  3.061049  0  0  -0.162262  0  3.311186  0  0  -0.186795  0  3.33629  0  0  -0.27097  -0.152898  0  3.297071  0
O  O86  1  0.03206481  0.87094142  0.18631534  1  0  -0.609895  0  1.892554  0  0  -0.56694  0  2.117215  0  0  -0.606272  0  2.118567  0  0  -0.312696  -0.536326  0  2.113296  0
O  O87  1  0.96790679  0.12908109  0.81368982  1  0  -0.6098  0  1.892077  0  0  -0.567116  0  2.116804  0  0  -0.606428  0  2.118144  0  0  -0.312757  -0.536251  0  2.112594  0
O  O88  1  0.06565981  0.93084655  0.37993479  1  0  -0.591686  0  1.985392  0  0  -0.528025  0  2.231398  0  0  -0.56368  0  2.224817  0  0  -0.305305  -0.497911  0  2.231067  0
O  O89  1  0.93426448  0.06918639  0.62007712  1  0  -0.59184  0  1.985951  0  0  -0.528327  0  2.232126  0  0  -0.563955  0  2.225533  0  0  -0.305459  -0.498161  0  2.231684  0
O  O90  1  0.92727023  0.75758773  0.54209329  1  0  -0.554418  0  1.92168  0  0  -0.496643  0  2.164217  0  0  -0.524882  0  2.158926  0  0  -0.279812  -0.475813  0  2.166342  0
O  O91  1  0.07280246  0.24248297  0.45801099  1  0  -0.554737  0  1.921479  0  0  -0.49686  0  2.163923  0  0  -0.525079  0  2.158634  0  0  -0.279547  -0.476  0  2.166346  0
O  O92  1  0.18013316  0.83753418  0.61885834  1  0  -0.560295  0  1.891844  0  0  -0.500432  0  2.122516  0  0  -0.528342  0  2.120108  0  0  -0.278192  -0.49115  0  2.128233  0
O  O93  1  0.81992221  0.16252525  0.38115567  1  0  -0.56041  0  1.891649  0  0  -0.500435  0  2.122332  0  0  -0.528375  0  2.119936  0  0  -0.277757  -0.491143  0  2.128472  0
O  O94  1  0.70716722  0.83388749  0.69601433  1  0  -0.616118  0  1.975343  0  0  -0.55909  0  2.218938  0  0  -0.592213  0  2.211461  0  0  -0.311721  -0.525056  0  2.217825  0
O  O95  1  0.29283758  0.16610830  0.30402038  1  0  -0.616171  0  1.975272  0  0  -0.559344  0  2.219045  0  0  -0.592519  0  2.211605  0  0  -0.311719  -0.525187  0  2.21785  0
O  O96  1  0.82948139  0.71430790  0.80387416  1  0  -0.599115  0  1.878495  0  0  -0.554624  0  2.096717  0  0  -0.59585  0  2.098517  0  0  -0.305419  -0.518186  0  2.089942  0
O  O97  1  0.17051023  0.28568515  0.19618920  1  0  -0.599274  0  1.878961  0  0  -0.554853  0  2.097181  0  0  -0.596093  0  2.09898  0  0  -0.305485  -0.518261  0  2.09029  0
O  O98  1  0.14834907  0.56356789  0.57733861  1  0  -0.264194  0  2.39927  0  0  -0.190658  0  2.625033  0  0  -0.205307  0  2.62667  0  0  -0.123338  -0.183197  0  2.625024  0
O  O99  1  0.85163882  0.43647740  0.42268430  1  0  -0.264123  0  2.399093  0  0  -0.190557  0  2.624779  0  0  -0.205187  0  2.626405  0  0  -0.123121  -0.182884  0  2.624902  0
