# generated using pymatgen
data_CuH12(C3N2)4
_symmetry_space_group_name_H-M   'P 1'
_cell_length_a   7.86570375
_cell_length_b   9.07066974
_cell_length_c   10.84998455
_cell_angle_alpha   113.83903955
_cell_angle_beta   102.92624446
_cell_angle_gamma   99.52324062
_symmetry_Int_Tables_number   1
_chemical_formula_structural   CuH12(C3N2)4
_chemical_formula_sum   'Cu2 H24 C24 N16'
_cell_volume   661.09599978
_cell_formula_units_Z   2
loop_
 _symmetry_equiv_pos_site_id
 _symmetry_equiv_pos_as_xyz
  1  'x, y, z'
loop_
 _atom_site_type_symbol
 _atom_site_label
 _atom_site_symmetry_multiplicity
 _atom_site_fract_x
 _atom_site_fract_y
 _atom_site_fract_z
 _atom_site_occupancy
 _atom_site_hle17_ddec_charge
 _atom_site_hle17_ddec_spin_density
 _atom_site_hle17_ddec_sum_bond_order
 _atom_site_hle17_magmom
 _atom_site_hse06_10hf_ddec_charge
 _atom_site_hse06_10hf_ddec_spin_density
 _atom_site_hse06_10hf_ddec_sum_bond_order
 _atom_site_hse06_10hf_magmom
 _atom_site_hse06_ddec_charge
 _atom_site_hse06_ddec_spin_density
 _atom_site_hse06_ddec_sum_bond_order
 _atom_site_hse06_magmom
 _atom_site_pbe_cm5_charge
 _atom_site_pbe_ddec_charge
 _atom_site_pbe_ddec_spin_density
 _atom_site_pbe_ddec_sum_bond_order
 _atom_site_pbe_magmom
Cu  Cu0  1  0.71286056  0.99424606  0.09107588  1  0.728978  -0.608281  2.010471  -0.39  0.733117  -0.748621  2.413931  -0.541  0.825074  -0.860602  2.339339  -0.644  0.764031  0.686569  -0.668529  2.458557  -0.472
Cu  Cu1  1  0.28714922  0.00575077  0.90892656  1  0.728867  0.608275  2.01072  0.39  0.732968  0.748619  2.414156  0.541  0.824928  0.860618  2.339674  0.644  0.764038  0.686447  0.668547  2.458747  0.472
H  H2  1  0.03089501  0.30236164  0.30126381  1  0.072332  -0.000517  0.982309  -0.001  0.079775  -0.000669  1.051431  -0.001  0.082273  -0.000491  1.049323  -0.001  0.114771  0.077879  -0.000959  1.053065  -0.002
H  H3  1  0.96911027  0.69764541  0.69873867  1  0.072332  0.000516  0.982402  0.001  0.079802  0.000668  1.051486  0.001  0.082302  0.000491  1.049374  0.001  0.114785  0.077895  0.000958  1.053133  0.002
H  H4  1  0.17978187  0.45307999  0.56634388  1  0.110028  -0.000346  0.938177  0.0  0.126911  -0.000461  0.986345  0.0  0.129992  -0.000362  0.986218  0.0  0.109948  0.124567  -0.000509  0.986772  0.0
H  H5  1  0.82021783  0.54692968  0.43366325  1  0.110053  0.000347  0.938071  0.0  0.126909  0.000461  0.986268  0.0  0.129995  0.000362  0.986134  0.0  0.109957  0.124567  0.000509  0.986698  0.0
H  H6  1  0.79342648  0.07909579  0.59256108  1  0.123819  -0.000783  0.947742  0.0  0.134515  -0.000954  1.008847  -0.001  0.138135  -0.000741  1.007578  0.0  0.112196  0.131935  -0.000863  1.009788  -0.001
H  H7  1  0.20657715  0.92091001  0.40744532  1  0.123842  0.000781  0.947825  0.0  0.134549  0.000954  1.008896  0.001  0.138172  0.000741  1.007624  0.0  0.112221  0.131971  0.000863  1.009838  0.001
H  H8  1  0.60092040  0.84047063  0.46983700  1  0.120201  -0.000643  0.985323  0.0  0.129164  -0.000809  1.052486  -0.001  0.132919  -0.000626  1.050671  0.0  0.106681  0.125932  -0.000732  1.055194  -0.001
H  H9  1  0.39907642  0.15952643  0.53016445  1  0.120213  0.000639  0.985355  0.0  0.129155  0.000809  1.052533  0.001  0.13291  0.000627  1.050718  0.0  0.106661  0.125924  0.000732  1.055236  0.001
H  H10  1  0.26795706  0.47334627  0.04462978  1  0.11286  -0.001002  0.963652  0.0  0.124268  -0.000918  1.024288  0.0  0.127328  -0.000723  1.024299  0.0  0.107658  0.121962  -0.001037  1.024592  -0.001
H  H11  1  0.73204665  0.52665194  0.95537219  1  0.112851  0.001001  0.963622  0.0  0.12425  0.000919  1.024269  0.0  0.127306  0.000723  1.024286  0.0  0.10765  0.121949  0.001037  1.024575  0.001
H  H12  1  0.40991291  0.66541178  0.95582157  1  0.083673  -0.000585  0.962853  -0.001  0.091497  -0.000717  1.031733  -0.002  0.094488  -0.00048  1.02858  -0.001  0.116353  0.089692  -0.000982  1.033205  -0.002
H  H13  1  0.59009647  0.33458380  0.04418129  1  0.083666  0.000587  0.962911  0.001  0.091493  0.000717  1.031776  0.002  0.094487  0.00048  1.02862  0.001  0.116364  0.089682  0.000981  1.033259  0.002
H  H14  1  0.09564527  0.50895282  0.79899392  1  0.117669  0.00028  0.964626  0.0  0.136609  4.9e-05  1.03176  0.0  0.138865  -6.8e-05  1.031084  0.0  0.091715  0.135476  0.000156  1.031594  0.0
H  H15  1  0.90436371  0.49105798  0.20100303  1  0.117515  -0.000282  0.964713  0.0  0.136468  -4.9e-05  1.03183  0.0  0.138721  6.8e-05  1.031161  0.0  0.091677  0.135338  -0.000157  1.03166  0.0
H  H16  1  0.20493304  0.35225745  0.79477349  1  0.116967  0.000152  0.963116  0.0  0.139341  6e-05  1.023758  0.0  0.139421  7.2e-05  1.026321  0.0  0.095635  0.139196  7.1e-05  1.022005  0.0
H  H17  1  0.79505950  0.64774979  0.20524093  1  0.116877  -0.000154  0.963137  0.0  0.139205  -6e-05  1.023882  0.0  0.139282  -7.2e-05  1.026448  0.0  0.095597  0.139064  -7.2e-05  1.022125  0.0
H  H18  1  0.98525362  0.32741178  0.81087078  1  0.118588  -0.000228  0.963572  0.0  0.139189  -0.000246  1.022814  0.0  0.14134  -0.000182  1.022125  0.0  0.091564  0.137655  -0.000265  1.02332  0.0
H  H19  1  0.01473623  0.67261580  0.18913544  1  0.118597  0.000227  0.963468  0.0  0.13919  0.000246  1.022725  0.0  0.141345  0.000182  1.022037  0.0  0.091576  0.137656  0.000265  1.02323  0.0
H  H20  1  0.32617234  0.60225606  0.42184217  1  0.111885  -0.000235  0.9543  0.0  0.131927  -0.000286  1.017691  0.0  0.133071  -0.000205  1.01859  0.0  0.092036  0.131514  -0.000248  1.016703  0.0
H  H21  1  0.67382455  0.39773721  0.57815892  1  0.111964  0.000233  0.95422  0.0  0.131987  0.000286  1.017627  0.0  0.133131  0.000205  1.018526  0.0  0.092062  0.131575  0.000248  1.01664  0.0
H  H22  1  0.45557237  0.46854384  0.34952573  1  0.120083  0.000306  0.94428  0.0  0.14404  0.000206  1.002473  0.0  0.145871  0.000176  1.002014  0.0  0.099061  0.142996  0.000243  1.002398  0.0
H  H23  1  0.54443044  0.53145186  0.65047157  1  0.120123  -0.000309  0.94433  0.0  0.14409  -0.000206  1.002496  0.0  0.145922  -0.000176  1.002036  0.0  0.099077  0.143045  -0.000243  1.00242  0.0
H  H24  1  0.23071460  0.43051401  0.24492390  1  0.116179  -5.8e-05  0.95566  0.0  0.138634  -7.3e-05  1.013696  0.0  0.140422  -4.5e-05  1.013356  0.0  0.095113  0.13722  -8.8e-05  1.014276  0.0
H  H25  1  0.76928647  0.56948426  0.75507493  1  0.116139  5.6e-05  0.95561  0.0  0.138608  7.4e-05  1.013643  0.0  0.140396  4.5e-05  1.013304  0.0  0.095108  0.137197  8.8e-05  1.014222  0.0
C  C26  1  0.98467272  0.25774136  0.37069545  1  0.14492  0.004966  3.73805  0.005  0.115054  0.001334  3.995207  0.002  0.125945  0.002107  4.010962  0.003  0.050115  0.108352  0.000557  3.985073  0.001
C  C27  1  0.01533059  0.74225559  0.62930695  1  0.144993  -0.004959  3.738027  -0.005  0.115095  -0.001336  3.995159  -0.002  0.125989  -0.002106  4.010909  -0.003  0.050177  0.108394  -0.000558  3.985031  -0.001
C  C28  1  0.06471677  0.34029556  0.51741826  1  -0.17929  -0.005683  3.702846  -0.005  -0.196698  -0.00331  3.945546  -0.004  -0.205495  -0.003172  3.965372  -0.004  -0.083592  -0.191824  -0.003456  3.932878  -0.004
C  C29  1  0.93529414  0.65971265  0.48258732  1  -0.179315  0.005671  3.703027  0.005  -0.196719  0.003311  3.945723  0.004  -0.205509  0.003168  3.965556  0.004  -0.083607  -0.191851  0.003455  3.933055  0.004
C  C30  1  0.99427219  0.28034353  0.60152009  1  0.209279  0.004924  3.733454  0.004  0.231734  0.002348  3.968281  0.002  0.238941  0.00254  3.988782  0.002  0.015056  0.227151  0.00216  3.953976  0.002
C  C31  1  0.00572676  0.71965603  0.39848254  1  0.209274  -0.004925  3.73334  -0.004  0.231784  -0.002348  3.968091  -0.002  0.238961  -0.002539  3.988638  -0.002  0.015061  0.227199  -0.00216  3.953784  -0.002
C  C32  1  0.84949123  0.13215632  0.53114008  1  -0.196519  -0.00351  3.638431  -0.003  -0.218175  -0.002021  3.873284  -0.002  -0.226384  -0.002071  3.892668  -0.002  -0.078378  -0.212704  -0.002357  3.859088  -0.002
C  C33  1  0.15051536  0.86785070  0.46886351  1  -0.196651  0.003511  3.638324  0.003  -0.218294  0.002022  3.873177  0.002  -0.226496  0.002071  3.892571  0.002  -0.078425  -0.212826  0.002357  3.858976  0.002
C  C34  1  0.77719260  0.05383370  0.38272525  1  0.186314  0.002072  3.761226  0.002  0.182882  -0.00056  4.005202  0.0  0.191564  0.00029  4.025036  0.001  0.120628  0.177671  -0.00109  3.991642  -0.001
C  C35  1  0.22281454  0.94616698  0.61727809  1  0.186468  -0.002064  3.761324  -0.002  0.182956  0.000561  4.00539  0.0  0.191635  -0.000291  4.025208  -0.001  0.120675  0.17776  0.00109  3.991831  0.001
C  C36  1  0.62972608  0.89495715  0.29762025  1  0.178001  0.001524  3.782714  0.002  0.173529  -0.001054  4.030332  -0.001  0.181995  -0.000186  4.050266  0.0  0.11532  0.167772  -0.001577  4.017633  -0.001
C  C37  1  0.37027372  0.10504113  0.70238023  1  0.177985  -0.001557  3.78269  -0.002  0.173468  0.001059  4.030423  0.001  0.181974  0.000183  4.050299  0.0  0.115266  0.167661  0.001577  4.017785  0.001
C  C38  1  0.55545943  0.79826700  0.35537485  1  -0.203804  -0.003794  3.65633  -0.003  -0.22717  -0.002222  3.894579  -0.002  -0.235414  -0.002152  3.913816  -0.002  -0.081389  -0.222147  -0.002457  3.882743  -0.002
C  C39  1  0.44453853  0.20173387  0.64462162  1  -0.203772  0.003843  3.656189  0.003  -0.227105  0.002218  3.894419  0.002  -0.235361  0.002154  3.913642  0.002  -0.081339  -0.22207  0.002458  3.882591  0.002
C  C40  1  0.42505784  0.64248873  0.26501429  1  0.209495  0.004767  3.722467  0.004  0.23265  0.002046  3.956556  0.002  0.240124  0.002284  3.976227  0.002  0.014455  0.227592  0.001889  3.942865  0.002
C  C41  1  0.57493804  0.35751720  0.73499190  1  0.2094  -0.004806  3.722628  -0.004  0.232608  -0.002042  3.956622  -0.002  0.240078  -0.002285  3.976299  -0.002  0.014465  0.22755  -0.001889  3.942924  -0.002
C  C42  1  0.36919334  0.59370537  0.11886401  1  -0.181193  -0.006258  3.671958  -0.006  -0.196736  -0.003723  3.909591  -0.004  -0.205233  -0.003387  3.9281  -0.004  -0.084428  -0.190361  -0.00399  3.89567  -0.004
C  C43  1  0.63080643  0.40629292  0.88113462  1  -0.181117  0.006298  3.672037  0.006  -0.196665  0.003722  3.909647  0.004  -0.205158  0.003387  3.928159  0.004  -0.084423  -0.190297  0.00399  3.895725  0.004
C  C44  1  0.44726453  0.69759988  0.06839447  1  0.149395  0.004878  3.712532  0.005  0.11988  0.001122  3.968184  0.002  0.131435  0.002018  3.9836  0.003  0.053196  0.113435  0.000321  3.956936  0.001
C  C45  1  0.55273480  0.30240095  0.93160680  1  0.149378  -0.004911  3.712597  -0.005  0.119867  -0.001123  3.968262  -0.002  0.131423  -0.002019  3.98368  -0.003  0.053183  0.113421  -0.000321  3.957001  -0.001
C  C46  1  0.07225517  0.37258012  0.76012216  1  -0.353031  -0.000441  3.693455  -0.001  -0.4314  -0.000422  3.920057  0.0  -0.43449  -0.000427  3.926785  -0.001  -0.243642  -0.428896  -0.000371  3.914853  0.0
C  C47  1  0.92774400  0.62743210  0.23988207  1  -0.352777  0.00045  3.693317  0.001  -0.431136  0.000418  3.919938  0.0  -0.434224  0.000427  3.926691  0.001  -0.243595  -0.428636  0.000371  3.914723  0.0
C  C48  1  0.35385541  0.53017702  0.32327927  1  -0.345103  -0.000484  3.697033  0.0  -0.42555  -0.00033  3.926901  0.0  -0.428657  -0.000245  3.93421  0.0  -0.238148  -0.423308  -0.00035  3.921609  0.0
C  C49  1  0.64614048  0.46982134  0.67671880  1  -0.345173  0.000494  3.697001  0.0  -0.425657  0.000327  3.926877  0.0  -0.428764  0.000244  3.934187  0.0  -0.238199  -0.423415  0.000351  3.921584  0.0
N  N50  1  0.84250514  0.11944025  0.30481606  1  -0.326998  -0.051948  3.319752  -0.058  -0.275293  -0.050185  3.597199  -0.062  -0.303005  -0.045796  3.614998  -0.059  -0.340621  -0.260038  -0.052096  3.587022  -0.062
N  N51  1  0.15751148  0.88056153  0.69518912  1  -0.327107  0.051941  3.319797  0.058  -0.275342  0.050187  3.597241  0.062  -0.303065  0.045797  3.615069  0.059  -0.340709  -0.260087  0.0521  3.587048  0.062
N  N52  1  0.57645490  0.84340090  0.15530361  1  -0.328094  -0.053677  3.312484  -0.06  -0.278368  -0.050916  3.595143  -0.062  -0.306644  -0.045914  3.613481  -0.059  -0.341248  -0.26287  -0.053432  3.585486  -0.063
N  N53  1  0.42354656  0.15659863  0.84469479  1  -0.328107  0.05371  3.312628  0.06  -0.278341  0.050924  3.595214  0.062  -0.306633  0.045921  3.613564  0.059  -0.341236  -0.262828  0.053445  3.58556  0.063
N  N54  1  0.84609397  0.17882634  0.06505034  1  -0.487237  -0.075484  2.731948  -0.085  -0.521965  -0.03959  3.062453  -0.048  -0.561095  -0.023038  3.075444  -0.031  -0.305814  -0.500589  -0.04929  3.05531  -0.057
N  N55  1  0.15392322  0.82116909  0.93495552  1  -0.487025  0.075427  2.732503  0.085  -0.521614  0.039566  3.062928  0.048  -0.560738  0.023018  3.075948  0.031  -0.305734  -0.500249  0.049264  3.055773  0.057
N  N56  1  0.95110590  0.16470755  0.99879082  1  0.374348  0.027172  4.197285  0.039  0.432407  0.00199  4.498081  0.008  0.453538  0.004343  4.535018  0.01  0.079783  0.419986  -0.000671  4.474687  0.006
N  N57  1  0.04889561  0.83527304  0.00118819  1  0.374445  -0.027178  4.197363  -0.039  0.432327  -0.001991  4.498378  -0.008  0.453459  -0.004344  4.535321  -0.01  0.079819  0.419905  0.000668  4.474966  -0.006
N  N58  1  0.05588664  0.16136877  0.93647589  1  -0.389824  -0.136681  2.49699  -0.139  -0.428087  -0.068927  2.773245  -0.074  -0.449669  -0.057894  2.78444  -0.065  -0.209085  -0.417676  -0.075777  2.767266  -0.079
N  N59  1  0.94408253  0.83859723  0.06348580  1  -0.390133  0.136742  2.496818  0.139  -0.428327  0.068946  2.773155  0.074  -0.449923  0.057903  2.78434  0.065  -0.209213  -0.417907  0.075788  2.767164  0.079
N  N60  1  0.56333650  0.85358691  0.88723293  1  -0.517395  -0.082238  2.732936  -0.091  -0.567279  -0.039426  3.091389  -0.047  -0.612855  -0.023179  3.106284  -0.03  -0.317514  -0.541345  -0.050858  3.084282  -0.057
N  N61  1  0.43665797  0.14642286  0.11277066  1  -0.517483  0.082232  2.732933  0.091  -0.56738  0.039424  3.091365  0.047  -0.61295  0.023175  3.106265  0.03  -0.317519  -0.541452  0.050851  3.084257  0.058
N  N62  1  0.61051274  0.86365561  0.79200690  1  0.379059  0.028032  4.20625  0.04  0.429935  0.001736  4.519088  0.008  0.449469  0.004461  4.556913  0.01  0.077048  0.417598  -0.000659  4.494285  0.006
N  N63  1  0.38947934  0.13633902  0.20799114  1  0.379286  -0.028033  4.206093  -0.04  0.430197  -0.001733  4.518861  -0.008  0.449728  -0.004462  4.556682  -0.01  0.07711  0.41786  0.000657  4.494045  -0.006
N  N64  1  0.64908285  0.86789090  0.69501236  1  -0.375525  -0.133232  2.368312  -0.134  -0.400284  -0.065865  2.608074  -0.07  -0.41321  -0.056215  2.622156  -0.062  -0.1985  -0.390333  -0.071525  2.597966  -0.074
N  N65  1  0.35090466  0.13208989  0.30498025  1  -0.375666  0.13323  2.368208  0.134  -0.40045  0.065863  2.607982  0.07  -0.413381  0.056213  2.622062  0.062  -0.198533  -0.390502  0.071518  2.597867  0.074
