# generated using pymatgen
data_CuH11C9N2O
_symmetry_space_group_name_H-M   'P 1'
_cell_length_a   15.80061933
_cell_length_b   16.37472357
_cell_length_c   16.37804760
_cell_angle_alpha   110.18261410
_cell_angle_beta   108.76987599
_cell_angle_gamma   108.75469509
_symmetry_Int_Tables_number   1
_chemical_formula_structural   CuH11C9N2O
_chemical_formula_sum   'Cu12 H132 C108 N24 O12'
_cell_volume   3289.65772499
_cell_formula_units_Z   12
loop_
 _symmetry_equiv_pos_site_id
 _symmetry_equiv_pos_as_xyz
  1  'x, y, z'
loop_
 _atom_site_type_symbol
 _atom_site_label
 _atom_site_symmetry_multiplicity
 _atom_site_fract_x
 _atom_site_fract_y
 _atom_site_fract_z
 _atom_site_occupancy
 _atom_site_pbe_bader_charge
 _atom_site_pbe_bader_spin_density
 _atom_site_pbe_cm5_charge
 _atom_site_pbe_ddec_charge
 _atom_site_pbe_ddec_spin_density
 _atom_site_pbe_ddec_sum_bond_order
 _atom_site_pbe_magmom
Cu  Cu0  1  0.64246533  0.44527234  0.13545689  1  0.989606  -0.387783  0.740821  0.664964  -0.472738  2.47337  -0.38
Cu  Cu1  1  0.50696883  0.86471346  0.30985739  1  0.988029  -0.387491  0.741202  0.664959  -0.473325  2.474806  -0.38
Cu  Cu2  1  0.19704740  0.69004827  0.55485960  1  0.990752  -0.387799  0.740853  0.665149  -0.473839  2.475072  -0.38
Cu  Cu3  1  0.35752765  0.55472079  0.86453183  1  0.989813  -0.38778  0.740819  0.664911  -0.472734  2.473431  -0.38
Cu  Cu4  1  0.49303716  0.13529904  0.69015121  1  0.987882  -0.387487  0.741218  0.664907  -0.473324  2.474829  -0.38
Cu  Cu5  1  0.80295783  0.30994933  0.44514668  1  0.990947  -0.387792  0.740871  0.665219  -0.473825  2.475018  -0.38
Cu  Cu6  1  0.71116135  0.41417717  0.33126290  1  0.98731  0.38939  0.720629  0.671529  0.474781  2.436054  0.384
Cu  Cu7  1  0.37975440  0.66885710  0.08281203  1  0.991591  0.389012  0.720233  0.671297  0.474203  2.433795  0.384
Cu  Cu8  1  0.29692535  0.91707919  0.58605851  1  0.990626  0.388855  0.720032  0.671278  0.473935  2.432434  0.384
Cu  Cu9  1  0.28883251  0.58581372  0.66873265  1  0.987313  0.389396  0.720697  0.671583  0.474792  2.436094  0.384
Cu  Cu10  1  0.62024608  0.33114571  0.91718542  1  0.991489  0.389028  0.720236  0.671353  0.474221  2.43389  0.384
Cu  Cu11  1  0.70308115  0.08292362  0.41394203  1  0.990768  0.388853  0.720075  0.671305  0.473929  2.432676  0.384
H  H12  1  0.46613061  0.45750691  0.05311772  1  0.058423  -0.000324  0.093635  0.12995  -0.000287  1.023404  0.0
H  H13  1  0.41295590  0.94687996  0.40462508  1  0.059236  -0.000321  0.0937  0.130505  -0.000287  1.023002  0.0
H  H14  1  0.00857125  0.59545537  0.54246280  1  0.040513  -0.000327  0.093775  0.13057  -0.000287  1.023712  0.0
H  H15  1  0.53386056  0.54247728  0.94687102  1  0.058386  -0.000324  0.093611  0.129937  -0.000288  1.023477  0.0
H  H16  1  0.58704884  0.05313402  0.59537387  1  0.059134  -0.000321  0.093764  0.130625  -0.000287  1.022877  0.0
H  H17  1  0.99143436  0.40454968  0.45754677  1  0.040392  -0.000327  0.093823  0.130637  -0.000287  1.023711  0.0
H  H18  1  0.39328494  0.48932964  0.10904030  1  0.035262  0.000976  0.09492  0.13854  0.000498  1.002258  0.001
H  H19  1  0.28411949  0.89090139  0.38040872  1  0.054543  0.000958  0.094781  0.1384  0.000495  1.002403  0.001
H  H20  1  0.90379512  0.61944933  0.51064087  1  0.073565  0.000956  0.094807  0.138245  0.000495  1.001089  0.001
H  H21  1  0.60670565  0.51065604  0.89095000  1  0.03506  0.000976  0.094947  0.13857  0.000498  1.002261  0.001
H  H22  1  0.71588450  0.10911110  0.61959193  1  0.054048  0.000959  0.094757  0.138349  0.000495  1.002475  0.001
H  H23  1  0.09620803  0.38055348  0.48936534  1  0.073313  0.000956  0.094833  0.13832  0.000495  1.001086  0.001
H  H24  1  0.34031350  0.36733755  0.01186201  1  0.023718  0.000289  0.091706  0.132738  0.000146  1.005676  0.0
H  H25  1  0.32839498  0.98815542  0.35575769  1  0.034053  0.000284  0.091634  0.13281  0.000145  1.005261  0.0
H  H26  1  0.97282556  0.64422685  0.63257921  1  0.037719  0.000285  0.091719  0.132635  0.000146  1.005617  0.0
H  H27  1  0.65967871  0.63264738  0.98813159  1  0.023945  0.000289  0.091687  0.132689  0.000146  1.005759  0.0
H  H28  1  0.67160834  0.01185707  0.64423970  1  0.034291  0.000284  0.091591  0.132754  0.000145  1.005247  0.0
H  H29  1  0.02718042  0.35577894  0.36743441  1  0.037554  0.000285  0.091739  0.132643  0.000146  1.005453  0.0
H  H30  1  0.51896319  0.27346046  0.33812642  1  0.051611  0.000105  0.093004  0.128211  3.2e-05  1.017302  0.0
H  H31  1  0.18082584  0.66206484  0.93547567  1  0.045349  0.0001  0.092783  0.127782  2.9e-05  1.01768  0.0
H  H32  1  0.24540845  0.06450113  0.72674962  1  -0.001603  0.0001  0.093233  0.128418  2.9e-05  1.01813  0.0
H  H33  1  0.48103066  0.72653043  0.66186974  1  0.051779  0.000106  0.092992  0.128211  3.2e-05  1.017408  0.0
H  H34  1  0.81917115  0.33793500  0.06452576  1  0.045375  0.0001  0.092776  0.127748  2.9e-05  1.017666  0.0
H  H35  1  0.75459812  0.93550317  0.27326000  1  -0.00142  0.0001  0.09324  0.128407  2.9e-05  1.018124  0.0
H  H36  1  0.40246827  0.27672623  0.31858502  1  0.042722  -0.000476  0.092792  0.134062  -0.000232  1.010118  0.0
H  H37  1  0.08380251  0.68152601  0.95818341  1  0.036162  -0.000478  0.092675  0.133747  -0.000233  1.00891  0.0
H  H38  1  0.12572008  0.04193298  0.72351221  1  0.035561  -0.00048  0.092727  0.134136  -0.000233  1.008489  0.0
H  H39  1  0.59752425  0.72326466  0.68141133  1  0.042862  -0.000476  0.09281  0.134077  -0.000232  1.010093  0.0
H  H40  1  0.91619277  0.31847307  0.04181724  1  0.036138  -0.000478  0.092687  0.133778  -0.000233  1.008888  0.0
H  H41  1  0.87428390  0.95807282  0.27649773  1  0.035635  -0.00048  0.092705  0.134133  -0.000233  1.008435  0.0
H  H42  1  0.52193917  0.38106165  0.41728824  1  0.032931  -0.000367  0.091558  0.133473  -0.000177  1.010918  0.0
H  H43  1  0.10457023  0.58279641  0.96371671  1  0.045501  -0.000369  0.091653  0.133643  -0.000179  1.010005  0.0
H  H44  1  0.14090681  0.03630464  0.61923129  1  0.046811  -0.000368  0.091498  0.133306  -0.000179  1.010156  0.0
H  H45  1  0.47805618  0.61893222  0.58270575  1  0.032785  -0.000367  0.091538  0.133425  -0.000177  1.011024  0.0
H  H46  1  0.89542713  0.41720417  0.03628754  1  0.045498  -0.000369  0.091671  0.133659  -0.000179  1.01006  0.0
H  H47  1  0.85909834  0.96369817  0.38077677  1  0.046828  -0.000368  0.091541  0.133338  -0.000179  1.010061  0.0
H  H48  1  0.21897816  0.24102218  0.04124220  1  0.047739  7.6e-05  0.096697  0.097201  5.6e-05  1.02103  0.0
H  H49  1  0.17776170  0.95892814  0.20032757  1  0.046006  7.7e-05  0.096753  0.096976  5.6e-05  1.021244  0.0
H  H50  1  0.97740720  0.79970694  0.75861132  1  0.06004  7.5e-05  0.096829  0.09734  5.6e-05  1.02094  0.0
H  H51  1  0.78101162  0.75897393  0.95874838  1  0.04777  7.6e-05  0.096718  0.097201  5.6e-05  1.021068  0.0
H  H52  1  0.82223693  0.04107766  0.79967765  1  0.046054  7.7e-05  0.096752  0.096997  5.6e-05  1.021215  0.0
H  H53  1  0.02258979  0.20029289  0.24138463  1  0.059977  7.5e-05  0.096834  0.097347  5.6e-05  1.02091  0.0
H  H54  1  0.05607189  0.22816228  0.03477495  1  0.102838  1e-06  0.095686  0.093517  -6e-06  1.035389  0.0
H  H55  1  0.02133045  0.96539009  0.19387791  1  0.060866  -0.0  0.095498  0.093262  -6e-06  1.0354  0.0
H  H56  1  0.82735534  0.80616206  0.77140305  1  0.055042  -0.0  0.095736  0.093423  -6e-06  1.036036  0.0
H  H57  1  0.94391975  0.77183755  0.96522238  1  0.102894  1e-06  0.095726  0.093575  -6e-06  1.035407  0.0
H  H58  1  0.97866415  0.03460900  0.80612253  1  0.060803  -0.0  0.095497  0.093246  -6e-06  1.035414  0.0
H  H59  1  0.17264507  0.19383926  0.22859447  1  0.055265  -0.0  0.095749  0.09348  -6e-06  1.036115  0.0
H  H60  1  0.25930939  0.34656806  0.47943832  1  0.071008  -0.000168  0.092338  0.137399  -6.7e-05  1.015409  0.0
H  H61  1  0.77989915  0.52068642  0.86728671  1  0.050903  -0.000167  0.092511  0.1376  -6.5e-05  1.014424  0.0
H  H62  1  0.91249203  0.13299923  0.65361597  1  0.045906  -0.000168  0.092583  0.137631  -6.6e-05  1.016201  0.0
H  H63  1  0.74069139  0.65343401  0.52056934  1  0.071191  -0.000168  0.092345  0.137372  -6.7e-05  1.015331  0.0
H  H64  1  0.22009524  0.47930820  0.13270724  1  0.050902  -0.000167  0.092525  0.137622  -6.6e-05  1.014382  0.0
H  H65  1  0.08750764  0.86700731  0.34638495  1  0.045956  -0.000168  0.092627  0.137662  -6.6e-05  1.016249  0.0
H  H66  1  0.36222689  0.40192708  0.46112148  1  0.038139  -0.000452  0.089599  0.127556  -0.000221  1.023046  0.0
H  H67  1  0.90115805  0.53898327  0.94096666  1  0.047206  -0.000448  0.089437  0.127516  -0.000221  1.022199  0.0
H  H68  1  0.96021200  0.05942146  0.59837047  1  0.045738  -0.000449  0.089668  0.127818  -0.000221  1.022773  0.0
H  H69  1  0.63777461  0.59806977  0.53888767  1  0.038009  -0.000452  0.089625  0.127627  -0.000221  1.023113  0.0
H  H70  1  0.09883789  0.46100911  0.05902028  1  0.047163  -0.000449  0.089403  0.127482  -0.000221  1.022234  0.0
H  H71  1  0.03979637  0.94059178  0.40163546  1  0.045801  -0.000449  0.089654  0.127773  -0.000221  1.022767  0.0
H  H72  1  0.37023763  0.45959779  0.57983779  1  0.083321  -0.00014  0.092667  0.132508  -6.9e-05  1.037218  0.0
H  H73  1  0.79040469  0.42024116  0.87981109  1  0.04409  -0.000138  0.092619  0.13236  -6.9e-05  1.037542  0.0
H  H74  1  0.91059270  0.12049220  0.54071542  1  0.046405  -0.000139  0.092459  0.132241  -6.9e-05  1.037376  0.0
H  H75  1  0.62976366  0.54040130  0.42017084  1  0.083367  -0.00014  0.092645  0.132447  -6.9e-05  1.037289  0.0
H  H76  1  0.20958857  0.57975123  0.12018356  1  0.044218  -0.000138  0.092645  0.132343  -6.9e-05  1.037579  0.0
H  H77  1  0.08941084  0.87951806  0.45928859  1  0.046666  -0.000139  0.092497  0.132255  -6.9e-05  1.037272  0.0
H  H78  1  0.38251136  0.46027533  0.35251157  1  0.055138  -1.5e-05  0.098351  0.104417  -2e-05  1.009057  0.0
H  H79  1  0.02989032  0.64757013  0.10786331  1  0.045732  -1.5e-05  0.098234  0.104381  -2e-05  1.009612  0.0
H  H80  1  0.92212807  0.89220901  0.53980981  1  0.049585  -1.5e-05  0.098414  0.104362  -2e-05  1.008332  0.0
H  H81  1  0.61748515  0.53970886  0.64748433  1  0.055029  -1.5e-05  0.098349  0.104466  -2e-05  1.008916  0.0
H  H82  1  0.97010980  0.35243193  0.89213132  1  0.045384  -1.5e-05  0.098245  0.104403  -2e-05  1.009532  0.0
H  H83  1  0.07787888  0.10779604  0.46019225  1  0.050089  -1.5e-05  0.09846  0.104403  -2e-05  1.008363  0.0
H  H84  1  0.05569060  0.33108825  0.18761244  1  0.045464  -4.7e-05  0.09734  0.095463  -3.1e-05  1.01279  0.0
H  H85  1  0.86788837  0.81237771  0.14350451  1  0.049801  -4.7e-05  0.097456  0.09571  -3.1e-05  1.01248  0.0
H  H86  1  0.72431845  0.85643688  0.66872820  1  0.042432  -4.7e-05  0.097727  0.096064  -3e-05  1.011967  0.0
H  H87  1  0.94430794  0.66890935  0.81238994  1  0.045495  -4.7e-05  0.097341  0.09546  -3.1e-05  1.012733  0.0
H  H88  1  0.13210734  0.18761690  0.85649107  1  0.049454  -4.7e-05  0.097451  0.095721  -3.1e-05  1.01249  0.0
H  H89  1  0.27568597  0.14357114  0.33127288  1  0.04237  -4.7e-05  0.097729  0.096038  -3e-05  1.011996  0.0
H  H90  1  0.04129950  0.49700267  0.27047302  1  0.03414  -0.000209  0.092607  0.13319  -0.000112  1.003692  0.0
H  H91  1  0.77096747  0.72963289  0.22665919  1  0.037647  -0.000205  0.092832  0.133756  -0.00011  1.004471  0.0
H  H92  1  0.54419922  0.77342430  0.50285363  1  0.026842  -0.000209  0.092718  0.13349  -0.000111  1.004098  0.0
H  H93  1  0.95869815  0.50299046  0.72952631  1  0.034445  -0.000208  0.092654  0.133247  -0.000112  1.003715  0.0
H  H94  1  0.22902350  0.27036024  0.77332646  1  0.038144  -0.000205  0.09276  0.133645  -0.00011  1.004542  0.0
H  H95  1  0.45580736  0.22658670  0.49715220  1  0.026888  -0.000209  0.092723  0.133487  -0.000111  1.004002  0.0
H  H96  1  0.14928138  0.54581306  0.25554444  1  0.048993  0.000412  0.096205  0.142276  0.000232  1.00261  0.0
H  H97  1  0.89391340  0.74458815  0.29036485  1  0.044373  0.000414  0.096124  0.142528  0.000232  1.004229  0.0
H  H98  1  0.60342718  0.70972139  0.45406108  1  0.049844  0.00041  0.095948  0.141802  0.000232  1.004165  0.0
H  H99  1  0.85071226  0.45418007  0.74445242  1  0.048984  0.000412  0.096182  0.142216  0.000232  1.002657  0.0
H  H100  1  0.10607639  0.25541466  0.70963232  1  0.04428  0.000414  0.096107  0.142498  0.000232  1.004358  0.0
H  H101  1  0.39657257  0.29028663  0.54594770  1  0.049863  0.00041  0.095998  0.141854  0.000232  1.004253  0.0
H  H102  1  0.13217545  0.62557465  0.34783350  1  0.080107  -4.9e-05  0.09628  0.134451  -4.2e-05  1.014087  0.0
H  H103  1  0.78457569  0.65237286  0.27793756  1  0.053655  -4.7e-05  0.096505  0.134822  -4.1e-05  1.014184  0.0
H  H104  1  0.50657154  0.72223283  0.37433166  1  0.049434  -4.7e-05  0.096598  0.134857  -4.2e-05  1.014455  0.0
H  H105  1  0.86782212  0.37441698  0.65216285  1  0.080128  -4.8e-05  0.096263  0.134414  -4.2e-05  1.014033  0.0
H  H106  1  0.21541551  0.34762474  0.72205214  1  0.053537  -4.7e-05  0.096504  0.134813  -4.1e-05  1.014176  0.0
H  H107  1  0.49343028  0.27777668  0.62567462  1  0.049557  -4.7e-05  0.096605  0.134874  -4.2e-05  1.014468  0.0
H  H108  1  0.89519106  0.48035549  0.32199175  1  0.054135  -0.002489  0.09485  0.101739  -0.001423  1.019709  -0.001
H  H109  1  0.57306265  0.67803245  0.15837709  1  0.083151  -0.002454  0.094951  0.102025  -0.001419  1.020269  -0.001
H  H110  1  0.41475490  0.84146139  0.51989099  1  0.058241  -0.002481  0.095005  0.102125  -0.001421  1.01977  -0.001
H  H111  1  0.10480965  0.51964508  0.67799889  1  0.053809  -0.002491  0.094869  0.101764  -0.001423  1.019792  -0.001
H  H112  1  0.42694677  0.32198153  0.84162759  1  0.083116  -0.002456  0.094979  0.102053  -0.001419  1.020202  -0.001
H  H113  1  0.58524734  0.15852355  0.48010451  1  0.058336  -0.002482  0.094961  0.102081  -0.001423  1.019879  -0.001
H  H114  1  0.89866427  0.59073528  0.32346554  1  0.020087  0.002533  0.087421  0.091186  0.001285  0.994625  0.001
H  H115  1  0.57486582  0.67661893  0.26719850  1  0.025219  0.002473  0.087702  0.091828  0.001262  0.994656  0.001
H  H116  1  0.30773978  0.73257439  0.40964568  1  0.025187  0.002475  0.087583  0.091582  0.001262  0.99471  0.001
H  H117  1  0.10132588  0.40926158  0.67652847  1  0.020015  0.002533  0.087473  0.091241  0.001285  0.994583  0.001
H  H118  1  0.42513892  0.32339505  0.73280229  1  0.025045  0.002473  0.087604  0.09164  0.001263  0.994684  0.001
H  H119  1  0.69225370  0.26741575  0.59035438  1  0.025181  0.002474  0.087571  0.091535  0.001262  0.99478  0.001
H  H120  1  0.86588486  0.48785728  0.21047755  1  0.048299  0.000313  0.085752  0.080772  0.000224  1.031805  0.0
H  H121  1  0.65532492  0.78957180  0.27743925  1  0.024592  0.000365  0.085649  0.081242  0.000249  1.031069  0.0
H  H122  1  0.37792814  0.72245636  0.51249918  1  0.04294  0.000357  0.085753  0.080798  0.000248  1.031492  0.0
H  H123  1  0.13410262  0.51213957  0.78951014  1  0.048374  0.000313  0.085762  0.08079  0.000224  1.031821  0.0
H  H124  1  0.34467521  0.21044367  0.72256184  1  0.024702  0.000364  0.085649  0.081168  0.000248  1.03119  0.0
H  H125  1  0.62206125  0.27753230  0.48750398  1  0.04322  0.000357  0.085701  0.080628  0.000248  1.031605  0.0
H  H126  1  0.43487090  0.25588842  0.01364942  1  0.030139  0.005015  0.091499  0.099309  0.002621  1.019146  0.003
H  H127  1  0.42118719  0.98649751  0.24240165  1  0.032849  0.005014  0.091371  0.099489  0.002625  1.018322  0.003
H  H128  1  0.17921451  0.75778183  0.74434502  1  0.03471  0.00506  0.091478  0.099539  0.002644  1.018356  0.003
H  H129  1  0.56512846  0.74410546  0.98634277  1  0.029996  0.005014  0.091502  0.099275  0.00262  1.019108  0.003
H  H130  1  0.57882801  0.01351870  0.75760866  1  0.032785  0.005012  0.091453  0.099627  0.002624  1.018289  0.003
H  H131  1  0.82079435  0.24221503  0.25566153  1  0.034725  0.005058  0.091439  0.099504  0.002644  1.018346  0.003
H  H132  1  0.51464964  0.20569070  0.98909079  1  0.025751  0.000271  0.082166  0.072897  0.000146  1.005268  0.0
H  H133  1  0.52555234  0.01113571  0.21678017  1  0.023047  0.000279  0.082148  0.073368  0.00015  1.004914  0.0
H  H134  1  0.30912040  0.78306474  0.79418078  1  0.032401  0.000291  0.082214  0.073403  0.000156  1.004752  0.0
H  H135  1  0.48535775  0.79430988  0.01090437  1  0.026101  0.00027  0.082176  0.07291  0.000145  1.00521  0.0
H  H136  1  0.47447178  0.98887827  0.78323946  1  0.022964  0.000278  0.08219  0.073417  0.000149  1.004948  0.0
H  H137  1  0.69088697  0.21692243  0.20581281  1  0.032003  0.000291  0.082205  0.073333  0.000156  1.004789  0.0
H  H138  1  0.41867919  0.20262795  0.89106194  1  0.035737  -0.004056  0.088612  0.091788  -0.00208  1.019612  -0.002
H  H139  1  0.52761563  0.10911614  0.31181405  1  0.041004  -0.004008  0.088344  0.091846  -0.002086  1.020546  -0.002
H  H140  1  0.21621823  0.68826945  0.79741752  1  0.037393  -0.004061  0.088703  0.092313  -0.002103  1.020144  -0.002
H  H141  1  0.58132359  0.79736741  0.10893060  1  0.035541  -0.004055  0.088621  0.091744  -0.002079  1.019618  -0.002
H  H142  1  0.47240626  0.89090008  0.68820016  1  0.041029  -0.004004  0.088353  0.091886  -0.002084  1.020519  -0.002
H  H143  1  0.78379308  0.31172294  0.20258642  1  0.037688  -0.004058  0.088704  0.092299  -0.002102  1.020145  -0.002
C  C144  1  0.45501227  0.40311296  0.15294311  1  0.422128  0.006616  0.086553  0.20597  0.003679  4.015929  0.003
C  C145  1  0.30198863  0.84710930  0.25035330  1  0.411641  0.006482  0.086746  0.206161  0.003627  4.015505  0.003
C  C146  1  0.05169113  0.74964504  0.59690411  1  0.46032  0.006493  0.087018  0.205881  0.003623  4.018352  0.003
C  C147  1  0.54497585  0.59687048  0.84704504  1  0.422592  0.006615  0.086602  0.205949  0.003678  4.015904  0.003
C  C148  1  0.69801253  0.15290021  0.74964666  1  0.411805  0.006485  0.086747  0.206177  0.003627  4.01535  0.003
C  C149  1  0.94831314  0.25036001  0.40310749  1  0.460871  0.006495  0.086962  0.205925  0.003624  4.018356  0.003
C  C150  1  0.41164174  0.36665978  0.20435600  1  -0.017784  0.000511  -0.042664  -0.177586  0.000369  4.020529  0.0
C  C151  1  0.20720812  0.79574678  0.16246827  1  -0.006675  0.000489  -0.042547  -0.17745  0.00035  4.021928  0.0
C  C152  1  0.04472252  0.83750683  0.63334211  1  -0.022739  0.000562  -0.042535  -0.177031  0.000392  4.021199  0.0
C  C153  1  0.58834586  0.63331994  0.79563193  1  -0.018663  0.000512  -0.04265  -0.177591  0.000369  4.020538  0.0
C  C154  1  0.79279059  0.20426050  0.83753321  1  -0.007062  0.000488  -0.042601  -0.177562  0.000349  4.022037  0.0
C  C155  1  0.95528368  0.16249673  0.36666714  1  -0.023001  0.000561  -0.042518  -0.177086  0.000392  4.021099  0.0
C  C156  1  0.48807178  0.35873506  0.26977641  1  0.422738  -0.001844  0.083804  0.206387  -0.000776  4.013261  -0.001
C  C157  1  0.21820277  0.73031056  0.08909380  1  0.463738  -0.001967  0.083375  0.205377  -0.000833  4.014897  -0.001
C  C158  1  0.12909930  0.91091486  0.64135094  1  0.415151  -0.001944  0.08237  0.203758  -0.000847  4.014569  -0.001
C  C159  1  0.51192207  0.64125583  0.73021731  1  0.422846  -0.00184  0.083866  0.20632  -0.000774  4.013241  -0.001
C  C160  1  0.78179720  0.26969523  0.91090879  1  0.464391  -0.001965  0.083363  0.205388  -0.000832  4.014926  -0.001
C  C161  1  0.87090712  0.08908646  0.35865883  1  0.415031  -0.001943  0.082403  0.203767  -0.000847  4.014642  -0.001
C  C162  1  0.41174272  0.43060724  0.07792120  1  -0.014463  0.000174  -0.238672  -0.419928  0.000152  3.962875  0.0
C  C163  1  0.33376100  0.92208562  0.35290295  1  -0.045168  0.000181  -0.23844  -0.420371  0.000149  3.962376  0.0
C  C164  1  0.98099516  0.64708814  0.56935686  1  -0.052436  0.00019  -0.238971  -0.420273  0.000153  3.962482  0.0
C  C165  1  0.58824652  0.56937844  0.92206929  1  -0.014613  0.000174  -0.238691  -0.419932  0.000151  3.963017  0.0
C  C166  1  0.66624344  0.07792911  0.64709677  1  -0.044724  0.000181  -0.238426  -0.420374  0.000149  3.962289  0.0
C  C167  1  0.01901015  0.35291765  0.43065471  1  -0.051954  0.00019  -0.239069  -0.420427  0.000152  3.962367  0.0
C  C168  1  0.48268181  0.32065350  0.33963194  1  -0.052015  -0.000359  -0.237656  -0.428113  -0.000318  3.98793  0.0
C  C169  1  0.14298297  0.66048698  0.98109380  1  -0.07049  -0.000361  -0.237574  -0.427609  -0.00032  3.98641  0.0
C  C170  1  0.16193180  0.01893383  0.67954875  1  -0.004978  -0.000358  -0.237751  -0.428163  -0.000322  3.987107  0.0
C  C171  1  0.51731242  0.67933814  0.66036337  1  -0.052061  -0.000359  -0.23763  -0.428031  -0.000318  3.988145  0.0
C  C172  1  0.85701551  0.33951583  0.01890973  1  -0.070503  -0.000361  -0.237601  -0.427606  -0.00032  3.986404  0.0
C  C173  1  0.83807581  0.98107122  0.32046268  1  -0.005205  -0.000358  -0.23774  -0.428083  -0.000322  3.987046  0.0
C  C174  1  0.31233132  0.35114686  0.19798035  1  0.031636  -0.000372  -0.009417  0.112769  -0.000246  4.053607  0.0
C  C175  1  0.11428283  0.80212267  0.15339172  1  0.004086  -0.000368  -0.009488  0.11226  -0.000245  4.054825  0.0
C  C176  1  0.96089309  0.84662572  0.64876976  1  -0.019396  -0.000373  -0.00947  0.112771  -0.000248  4.05261  0.0
C  C177  1  0.68766105  0.64884106  0.80201432  1  0.031721  -0.000372  -0.009336  0.112948  -0.000246  4.053688  0.0
C  C178  1  0.88571572  0.19788163  0.84660930  1  0.004546  -0.000368  -0.009465  0.112254  -0.000245  4.054667  0.0
C  C179  1  0.03910962  0.15337486  0.35122944  1  -0.019441  -0.000372  -0.009468  0.112871  -0.000248  4.052637  0.0
C  C180  1  0.21925714  0.28593030  0.10837298  1  -0.060305  0.001842  -0.095078  -0.146006  0.001159  3.968326  0.001
C  C181  1  0.11084721  0.89175557  0.17794646  1  -0.064611  0.001842  -0.095121  -0.144869  0.001159  3.968318  0.001
C  C182  1  0.93284568  0.82201661  0.71376776  1  -0.07188  0.001857  -0.095054  -0.145623  0.001167  3.967818  0.001
C  C183  1  0.78073315  0.71406282  0.89162040  1  -0.059984  0.001842  -0.095204  -0.146118  0.001159  3.968591  0.001
C  C184  1  0.88915335  0.10824873  0.82206068  1  -0.064734  0.001841  -0.095154  -0.144935  0.001158  3.968265  0.001
C  C185  1  0.06714944  0.17797950  0.28622632  1  -0.071852  0.001855  -0.095047  -0.145617  0.001167  3.967827  0.001
C  C186  1  0.12758899  0.27883587  0.10495141  1  -0.091645  -0.000388  -0.093922  -0.075591  -0.000238  4.038882  0.0
C  C187  1  0.02256753  0.89516102  0.17424172  1  0.009695  -0.000392  -0.093876  -0.075952  -0.000237  4.038726  0.0
C  C188  1  0.84826224  0.82573530  0.72081955  1  -0.009193  -0.000392  -0.094133  -0.076279  -0.000238  4.039189  0.0
C  C189  1  0.87240525  0.72116248  0.89504804  1  -0.091659  -0.000389  -0.093914  -0.075679  -0.000238  4.038845  0.0
C  C190  1  0.97743184  0.10483955  0.82576194  1  0.009843  -0.000392  -0.093787  -0.075843  -0.000237  4.038638  0.0
C  C191  1  0.15173929  0.17426825  0.27917725  1  -0.009605  -0.000391  -0.094073  -0.076283  -0.000238  4.038862  0.0
C  C192  1  0.27220040  0.47611992  0.46827734  1  0.471793  -0.001444  0.088148  0.206035  -0.000371  4.010072  0.0
C  C193  1  0.80398640  0.53175438  0.00796024  1  0.455619  -0.001437  0.08803  0.206649  -0.000377  4.009341  0.0
C  C194  1  0.79602884  0.99226948  0.52394397  1  0.40366  -0.001397  0.087821  0.206468  -0.000377  4.011028  0.0
C  C195  1  0.72779806  0.52387619  0.53172510  1  0.471625  -0.001445  0.088135  0.205899  -0.000371  4.010085  0.0
C  C196  1  0.19601444  0.46824247  0.99203649  1  0.455688  -0.001438  0.08795  0.206554  -0.000378  4.009375  0.0
C  C197  1  0.20397655  0.00773109  0.47605301  1  0.403238  -0.001396  0.087769  0.206551  -0.000376  4.011123  0.0
C  C198  1  0.31905600  0.41860544  0.49913460  1  -0.104098  -3.4e-05  -0.24222  -0.438331  -6.8e-05  3.98263  0.0
C  C199  1  0.81993793  0.50094427  0.91956600  1  -0.057735  -3.9e-05  -0.24208  -0.438403  -7.1e-05  3.981534  0.0
C  C200  1  0.90034045  0.08073829  0.58164129  1  -0.051617  -3.6e-05  -0.242352  -0.438629  -7.1e-05  3.984743  0.0
C  C201  1  0.68094433  0.58139439  0.50087398  1  -0.104114  -3.4e-05  -0.242247  -0.438288  -6.9e-05  3.982725  0.0
C  C202  1  0.18005787  0.49905184  0.08042829  1  -0.057965  -3.9e-05  -0.242043  -0.438331  -7.1e-05  3.981501  0.0
C  C203  1  0.09966360  0.91926899  0.41836125  1  -0.051606  -3.6e-05  -0.242423  -0.438641  -7.1e-05  3.984822  0.0
C  C204  1  0.22273450  0.46407417  0.37276206  1  -0.024591  -0.000363  -0.042037  -0.182311  -0.000227  4.027357  0.0
C  C205  1  0.84997396  0.62730210  0.09142075  1  0.006151  -0.000364  -0.041797  -0.182398  -0.000233  4.028805  0.0
C  C206  1  0.75856793  0.90876629  0.53595387  1  0.038631  -0.000381  -0.041738  -0.181886  -0.000233  4.028169  0.0
C  C207  1  0.77726559  0.53592119  0.62724064  1  -0.02451  -0.000363  -0.041898  -0.182036  -0.000227  4.027151  0.0
C  C208  1  0.15002637  0.37269773  0.90857440  1  0.005939  -0.000367  -0.041837  -0.182473  -0.000236  4.028783  0.0
C  C209  1  0.24143843  0.09123354  0.46404132  1  0.038982  -0.000383  -0.041731  -0.182085  -0.000233  4.02818  0.0
C  C210  1  0.21898233  0.40103890  0.28148422  1  -0.039988  -0.000393  -0.00762  0.114195  -0.00025  4.056423  0.0
C  C211  1  0.93742646  0.71861117  0.11969759  1  0.017585  -0.000391  -0.008013  0.11508  -0.000251  4.058578  0.0
C  C212  1  0.81776076  0.88041816  0.59892525  1  -0.022673  -0.000396  -0.007874  0.113283  -0.000252  4.060491  0.0
C  C213  1  0.78101560  0.59895348  0.71851739  1  -0.040255  -0.000393  -0.0077  0.114075  -0.00025  4.056577  0.0
C  C214  1  0.06257239  0.28138568  0.88029485  1  0.017783  -0.000391  -0.008114  0.114951  -0.000251  4.058609  0.0
C  C215  1  0.18224731  0.11958911  0.40107670  1  -0.022373  -0.000395  -0.007795  0.113564  -0.000252  4.060369  0.0
C  C216  1  0.31027813  0.40715303  0.28343438  1  -0.084026  0.000941  -0.092183  -0.193549  0.000552  3.930703  0.001
C  C217  1  0.02676617  0.71666377  0.12389577  1  -0.087623  0.00093  -0.092246  -0.194184  0.000548  3.932936  0.001
C  C218  1  0.90291761  0.87619014  0.59283192  1  -0.034367  0.000947  -0.092561  -0.193955  0.000556  3.931748  0.001
C  C219  1  0.68971771  0.59283116  0.71656375  1  -0.083782  0.000942  -0.09224  -0.193693  0.000552  3.930578  0.001
C  C220  1  0.97323253  0.28333681  0.87609607  1  -0.087489  0.00093  -0.092164  -0.194017  0.000547  3.932537  0.001
C  C221  1  0.09708845  0.12381714  0.40717063  1  -0.034816  0.000946  -0.092631  -0.194134  0.000555  3.931787  0.001
C  C222  1  0.12733511  0.33648575  0.19048316  1  -0.034349  0.001658  -0.094469  -0.148844  0.001022  3.98421  0.001
C  C223  1  0.93672413  0.80958335  0.14615634  1  -0.104679  0.001656  -0.094475  -0.149679  0.001017  3.984546  0.001
C  C224  1  0.79052077  0.85380474  0.66330807  1  -0.056749  0.001667  -0.094875  -0.14871  0.001026  3.984243  0.001
C  C225  1  0.87266298  0.66350961  0.80951586  1  -0.034352  0.001658  -0.094446  -0.148743  0.001022  3.983988  0.001
C  C226  1  0.06327449  0.19041574  0.85384291  1  -0.104332  0.001655  -0.094527  -0.149756  0.001016  3.98482  0.001
C  C227  1  0.20948670  0.14620403  0.33669726  1  -0.056693  0.001666  -0.094996  -0.148874  0.001026  3.984095  0.001
C  C228  1  0.18310417  0.53054666  0.38532888  1  0.449855  -0.001313  0.087888  0.204353  -0.00144  4.015437  -0.001
C  C229  1  0.79788369  0.61472285  0.14536213  1  0.424954  -0.001273  0.087634  0.203747  -0.001422  4.016599  -0.001
C  C230  1  0.65249189  0.85483034  0.46939343  1  0.413381  -0.001304  0.088317  0.204599  -0.001424  4.016558  -0.001
C  C231  1  0.81689623  0.46944795  0.61467121  1  0.449594  -0.001311  0.087869  0.204325  -0.001439  4.015499  -0.001
C  C232  1  0.20211330  0.38527698  0.85462954  1  0.425204  -0.001273  0.087761  0.203911  -0.001421  4.016499  -0.001
C  C233  1  0.34751357  0.14517172  0.53060653  1  0.413556  -0.001304  0.088291  0.204669  -0.001424  4.016359  -0.001
C  C234  1  0.12354029  0.55094659  0.31103324  1  -0.070461  -1.8e-05  -0.2347  -0.427705  -5.3e-05  3.9732  0.0
C  C235  1  0.81266849  0.68910582  0.24005767  1  -0.047481  -7e-06  -0.235361  -0.429088  -5.1e-05  3.976506  0.0
C  C236  1  0.57254869  0.76009003  0.44895885  1  -0.025721  -2.1e-05  -0.235178  -0.428277  -5.6e-05  3.976419  0.0
C  C237  1  0.87645765  0.44904579  0.68896532  1  -0.07101  -1.8e-05  -0.234718  -0.427687  -5.3e-05  3.973231  0.0
C  C238  1  0.18732441  0.31089252  0.75993282  1  -0.048141  -7e-06  -0.2353  -0.42896  -5.1e-05  3.976618  0.0
C  C239  1  0.42745447  0.23991948  0.55104601  1  -0.026085  -2.1e-05  -0.23518  -0.428294  -5.6e-05  3.97637  0.0
C  C240  1  0.85793311  0.50873063  0.27804506  1  0.398329  -0.001448  -0.17088  -0.137898  -0.000981  4.009966  -0.001
C  C241  1  0.57974406  0.72206292  0.23066355  1  0.394048  -0.001429  -0.171382  -0.140246  -0.000965  4.012419  -0.001
C  C242  1  0.34913203  0.76916173  0.49163377  1  0.402636  -0.001419  -0.170847  -0.138971  -0.000981  4.008859  -0.001
C  C243  1  0.14205942  0.49126696  0.72194689  1  0.398552  -0.001447  -0.170997  -0.138031  -0.000981  4.010112  -0.001
C  C244  1  0.42026001  0.27795107  0.76933763  1  0.394772  -0.001428  -0.171268  -0.139977  -0.000965  4.012689  -0.001
C  C245  1  0.65086442  0.23082768  0.50836512  1  0.402194  -0.00142  -0.170738  -0.138718  -0.00098  4.009074  -0.001
C  C246  1  0.47582548  0.24733729  0.97088255  1  0.410291  -0.00048  -0.174123  -0.145437  -0.000291  4.015397  0.0
C  C247  1  0.50492292  0.02929968  0.27661999  1  0.413928  -0.00051  -0.173869  -0.146741  -0.000287  4.016552  0.0
C  C248  1  0.22858074  0.72338656  0.75272067  1  0.397206  -0.000489  -0.174159  -0.146732  -0.000287  4.016153  0.0
C  C249  1  0.52417425  0.75265733  0.02911000  1  0.410143  -0.000479  -0.17416  -0.145371  -0.00029  4.015279  0.0
C  C250  1  0.49509221  0.97071505  0.72339405  1  0.414835  -0.000509  -0.174024  -0.147009  -0.000286  4.016734  0.0
C  C251  1  0.77142500  0.27660806  0.24728169  1  0.39722  -0.000488  -0.17421  -0.146745  -0.000286  4.016312  0.0
N  N252  1  0.55114753  0.41634425  0.18731826  1  -0.748545  -0.039852  -0.315658  -0.249586  -0.025837  3.702513  -0.033
N  N253  1  0.36376126  0.81276015  0.22919335  1  -0.737423  -0.039747  -0.316173  -0.249786  -0.025802  3.700957  -0.033
N  N254  1  0.13463115  0.77083061  0.58374362  1  -0.748474  -0.0399  -0.315669  -0.249971  -0.025848  3.703028  -0.033
N  N255  1  0.44884395  0.58364590  0.81267202  1  -0.748754  -0.039848  -0.315702  -0.249462  -0.025834  3.702465  -0.033
N  N256  1  0.63624273  0.18725235  0.77081035  1  -0.737683  -0.039747  -0.316119  -0.249552  -0.025801  3.700764  -0.033
N  N257  1  0.86537563  0.22917146  0.41626835  1  -0.748791  -0.039894  -0.315627  -0.249939  -0.025843  3.703177  -0.033
N  N258  1  0.57115254  0.38795841  0.25691823  1  -0.749742  0.043453  -0.305765  -0.27275  0.028381  3.649029  0.038
N  N259  1  0.31415305  0.74318079  0.13117623  1  -0.77334  0.04345  -0.305093  -0.271386  0.028385  3.647818  0.038
N  N260  1  0.18300082  0.86884003  0.61215653  1  -0.760039  0.043349  -0.304505  -0.270088  0.028354  3.646068  0.038
N  N261  1  0.42884198  0.61203249  0.74307509  1  -0.749636  0.043457  -0.30585  -0.27281  0.028384  3.649161  0.038
N  N262  1  0.68584966  0.25682649  0.86882711  1  -0.773838  0.043453  -0.30517  -0.271609  0.028388  3.64813  0.038
N  N263  1  0.81700493  0.13116129  0.38785242  1  -0.760113  0.043353  -0.30462  -0.270222  0.028357  3.646398  0.038
N  N264  1  0.26226995  0.54591651  0.53252047  1  -0.758078  0.050062  -0.306177  -0.263989  0.032732  3.678503  0.043
N  N265  1  0.72991930  0.46747506  0.01357275  1  -0.765084  0.049821  -0.306176  -0.265338  0.032619  3.678954  0.043
N  N266  1  0.71634775  0.98666098  0.45405001  1  -0.748998  0.049753  -0.306081  -0.265673  0.032562  3.67917  0.043
N  N267  1  0.73773134  0.45408257  0.46748022  1  -0.757696  0.050058  -0.306111  -0.263851  0.03273  3.678296  0.043
N  N268  1  0.27008170  0.53252477  0.98642505  1  -0.764919  0.049812  -0.306151  -0.265233  0.032613  3.678726  0.043
N  N269  1  0.28365541  0.01334184  0.54595193  1  -0.748946  0.049748  -0.306052  -0.265715  0.032558  3.67925  0.043
N  N270  1  0.20864157  0.57867514  0.48226729  1  -0.757803  -0.041485  -0.316056  -0.241565  -0.026776  3.699794  -0.034
N  N271  1  0.72658550  0.51774091  0.09659696  1  -0.750198  -0.04155  -0.315596  -0.240078  -0.026785  3.70044  -0.034
N  N272  1  0.62996293  0.90361477  0.42122588  1  -0.766157  -0.041474  -0.316024  -0.240244  -0.026757  3.700141  -0.034
N  N273  1  0.79136040  0.42132395  0.51773422  1  -0.757816  -0.04148  -0.316107  -0.241702  -0.026773  3.699768  -0.034
N  N274  1  0.27341312  0.48225818  0.90339923  1  -0.750183  -0.041551  -0.315607  -0.240155  -0.026786  3.700515  -0.034
N  N275  1  0.37004104  0.09639103  0.57877918  1  -0.766302  -0.041471  -0.316047  -0.240238  -0.026755  3.700072  -0.034
O  O276  1  0.75307189  0.46771943  0.25362575  1  -1.025854  -0.011645  -0.415802  -0.491226  -0.007426  2.591013  -0.012
O  O277  1  0.49942438  0.74663425  0.21401707  1  -1.03221  -0.011702  -0.415503  -0.490198  -0.007458  2.591463  -0.012
O  O278  1  0.28539307  0.78584692  0.53273811  1  -1.032527  -0.011735  -0.416323  -0.491008  -0.007477  2.589847  -0.012
O  O279  1  0.24691886  0.53227594  0.74636488  1  -1.025819  -0.011647  -0.415792  -0.49122  -0.007428  2.591222  -0.012
O  O280  1  0.50057701  0.25337974  0.78598695  1  -1.032707  -0.011714  -0.41553  -0.490216  -0.007464  2.591758  -0.012
O  O281  1  0.71460353  0.21414546  0.46726186  1  -1.032524  -0.011747  -0.416369  -0.49107  -0.007484  2.590212  -0.012
O  O282  1  0.54606600  0.34260532  0.99278126  1  -1.016209  -0.00611  -0.40811  -0.478303  -0.0041  2.516487  -0.006
O  O283  1  0.55330141  0.00743195  0.34999213  1  -1.027211  -0.006084  -0.407699  -0.477295  -0.004035  2.516812  -0.006
O  O284  1  0.20308844  0.64983122  0.65731272  1  -1.014674  -0.006013  -0.407854  -0.477975  -0.004006  2.517544  -0.006
O  O285  1  0.45392593  0.65739377  0.00721224  1  -1.016204  -0.006113  -0.40809  -0.478287  -0.004101  2.51643  -0.006
O  O286  1  0.44670420  0.99257980  0.65002526  1  -1.02785  -0.006087  -0.407716  -0.47731  -0.00404  2.516941  -0.006
O  O287  1  0.79690349  0.35016116  0.34268397  1  -1.014742  -0.006015  -0.407766  -0.477894  -0.004008  2.517561  -0.006
