# generated using pymatgen
data_CuH14C11Br3N4
_symmetry_space_group_name_H-M   'P 1'
_cell_length_a   4.07731427
_cell_length_b   8.59097906
_cell_length_c   20.98459677
_cell_angle_alpha   89.99987677
_cell_angle_beta   89.99974090
_cell_angle_gamma   92.71790752
_symmetry_Int_Tables_number   1
_chemical_formula_structural   CuH14C11Br3N4
_chemical_formula_sum   'Cu2 H28 C22 Br6 N8'
_cell_volume   734.22414891
_cell_formula_units_Z   2
loop_
 _symmetry_equiv_pos_site_id
 _symmetry_equiv_pos_as_xyz
  1  'x, y, z'
loop_
 _atom_site_type_symbol
 _atom_site_label
 _atom_site_symmetry_multiplicity
 _atom_site_fract_x
 _atom_site_fract_y
 _atom_site_fract_z
 _atom_site_occupancy
 _atom_site_hle17_bader_spin_density
 _atom_site_hle17_ddec_charge
 _atom_site_hle17_ddec_spin_density
 _atom_site_hle17_ddec_sum_bond_order
 _atom_site_hle17_magmom
 _atom_site_hse06_10hf_bader_spin_density
 _atom_site_hse06_10hf_ddec_charge
 _atom_site_hse06_10hf_ddec_spin_density
 _atom_site_hse06_10hf_ddec_sum_bond_order
 _atom_site_hse06_10hf_magmom
 _atom_site_hse06_bader_spin_density
 _atom_site_hse06_ddec_charge
 _atom_site_hse06_ddec_spin_density
 _atom_site_hse06_ddec_sum_bond_order
 _atom_site_hse06_magmom
 _atom_site_pbe_bader_spin_density
 _atom_site_pbe_cm5_charge
 _atom_site_pbe_ddec_charge
 _atom_site_pbe_ddec_spin_density
 _atom_site_pbe_ddec_sum_bond_order
 _atom_site_pbe_magmom
Cu  Cu0  1  0.03943341  0.58513295  0.75000079  1  0  0.382751  0  2.010014  0  0  0.272269  0  2.520579  0  0  0.276168  0  2.472752  0  0  0.38134  0.272526  0  2.551328  0
Cu  Cu1  1  0.96056486  0.41486637  0.24999943  1  0  0.382791  0  2.010067  0  0  0.272315  0  2.520604  0  0  0.276195  0  2.472765  0  0  0.381351  0.272569  0  2.551349  0
H  H2  1  0.72881862  0.65163472  0.62327417  1  0  0.129677  0  0.956234  0  0  0.147885  0  1.019449  0  0  0.151253  0  1.016685  0  0  0.088244  0.145346  0  1.021509  0
H  H3  1  0.27118530  0.34836767  0.12327491  1  0  0.129656  0  0.956224  0  0  0.147859  0  1.019447  0  0  0.151228  0  1.016682  0  0  0.088234  0.145321  0  1.021508  0
H  H4  1  0.27118466  0.34836578  0.37672462  1  0  0.129665  0  0.95622  0  0  0.147897  0  1.019404  0  0  0.151268  0  1.016641  0  0  0.088242  0.145359  0  1.021465  0
H  H5  1  0.72881799  0.65163283  0.87672531  1  0  0.129659  0  0.956233  0  0  0.147859  0  1.019453  0  0  0.151229  0  1.016688  0  0  0.08823  0.145321  0  1.021514  0
H  H6  1  0.47796314  0.52543315  0.57426220  1  0  0.118146  0  0.957529  0  0  0.136983  0  1.021152  0  0  0.138178  0  1.021858  0  0  0.088149  0.136137  0  1.020649  0
H  H7  1  0.52204654  0.47456604  0.07426165  1  0  0.118146  0  0.957571  0  0  0.136983  0  1.021194  0  0  0.138179  0  1.0219  0  0  0.088148  0.13614  0  1.020693  0
H  H8  1  0.52204250  0.47456618  0.42573707  1  0  0.118169  0  0.957499  0  0  0.137002  0  1.021129  0  0  0.138198  0  1.021837  0  0  0.088154  0.136158  0  1.020627  0
H  H9  1  0.47795674  0.52543446  0.92573905  1  0  0.118161  0  0.957523  0  0  0.137003  0  1.021136  0  0  0.138199  0  1.021842  0  0  0.08815  0.136161  0  1.020636  0
H  H10  1  0.87399940  0.58793589  0.54769584  1  0  0.105349  0  0.973171  0  0  0.119868  0  1.047048  0  0  0.121924  0  1.046041  0  0  0.080859  0.118456  0  1.047702  0
H  H11  1  0.12600630  0.41206694  0.04769713  1  0  0.105355  0  0.973184  0  0  0.11987  0  1.047058  0  0  0.121927  0  1.04605  0  0  0.080874  0.118459  0  1.047713  0
H  H12  1  0.12600163  0.41206693  0.45230343  1  0  0.105355  0  0.973161  0  0  0.119872  0  1.047035  0  0  0.121929  0  1.046028  0  0  0.080866  0.11846  0  1.047689  0
H  H13  1  0.87399238  0.58793704  0.95230405  1  0  0.105334  0  0.973228  0  0  0.119842  0  1.047114  0  0  0.1219  0  1.046106  0  0  0.080857  0.11843  0  1.047769  0
H  H14  1  0.03231618  0.95239223  0.60301711  1  0  0.11883  0  0.962437  0  0  0.136682  0  1.02861  0  0  0.139166  0  1.02684  0  0  0.086061  0.134916  0  1.029878  0
H  H15  1  0.96768331  0.04761026  0.10301797  1  0  0.11882  0  0.962456  0  0  0.13667  0  1.028632  0  0  0.139153  0  1.026862  0  0  0.086066  0.134903  0  1.029901  0
H  H16  1  0.96767749  0.04761057  0.39698121  1  0  0.118895  0  0.962403  0  0  0.136749  0  1.028572  0  0  0.139232  0  1.026802  0  0  0.08609  0.134982  0  1.029841  0
H  H17  1  0.03231732  0.95238790  0.89698225  1  0  0.118864  0  0.962442  0  0  0.136722  0  1.028598  0  0  0.139206  0  1.026826  0  0  0.086097  0.134955  0  1.029867  0
H  H18  1  0.96941040  0.94266626  0.68661230  1  0  0.125603  0  0.982958  0  0  0.140431  0  1.053549  0  0  0.143624  0  1.051777  0  0  0.07911  0.137906  0  1.055147  0
H  H19  1  0.03058426  0.05733108  0.18661303  1  0  0.12559  0  0.982976  0  0  0.140408  0  1.053578  0  0  0.143601  0  1.051803  0  0  0.079102  0.137886  0  1.055174  0
H  H20  1  0.03058522  0.05733072  0.31338649  1  0  0.125679  0  0.982926  0  0  0.140502  0  1.053505  0  0  0.143695  0  1.051732  0  0  0.07914  0.13798  0  1.055102  0
H  H21  1  0.96940921  0.94266939  0.81338719  1  0  0.125616  0  0.982955  0  0  0.140437  0  1.053546  0  0  0.143629  0  1.051772  0  0  0.07911  0.137914  0  1.055143  0
H  H22  1  0.36584713  0.98953809  0.65609921  1  0  0.123922  0  0.959098  0  0  0.142649  0  1.022865  0  0  0.144579  0  1.022814  0  0  0.087496  0.141226  0  1.022903  0
H  H23  1  0.63415091  0.01046177  0.15610040  1  0  0.123891  0  0.959136  0  0  0.14262  0  1.022891  0  0  0.144549  0  1.022842  0  0  0.087491  0.141198  0  1.022929  0
H  H24  1  0.63414624  0.01046122  0.34389910  1  0  0.123896  0  0.959131  0  0  0.142631  0  1.022886  0  0  0.14456  0  1.022838  0  0  0.087471  0.141209  0  1.022924  0
H  H25  1  0.36584716  0.98953522  0.84389982  1  0  0.123918  0  0.959118  0  0  0.142637  0  1.022882  0  0  0.144565  0  1.022833  0  0  0.087493  0.141215  0  1.022919  0
H  H26  1  0.51518336  0.34940390  0.75000021  1  0  0.093674  0  0.942416  0  0  0.089292  0  1.034618  0  0  0.093432  0  1.028649  0  0  0.128324  0.086059  0  1.03903  0
H  H27  1  0.48481021  0.65059773  0.24999954  1  0  0.093766  0  0.942286  0  0  0.089319  0  1.034588  0  0  0.093459  0  1.028617  0  0  0.12831  0.086088  0  1.039003  0
H  H28  1  0.40516480  0.14313964  0.74999987  1  0  0.107256  0  0.899829  0  0  0.122858  0  0.957607  0  0  0.123288  0  0.957617  0  0  0.13991  0.122368  0  0.957798  0
H  H29  1  0.59482836  0.85685733  0.25000035  1  0  0.107266  0  0.899875  0  0  0.122878  0  0.957667  0  0  0.123308  0  0.957682  0  0  0.139938  0.122389  0  0.957859  0
C  C30  1  0.73034812  0.55292953  0.59014992  1  0  -0.35532  0  3.72815  0  0  -0.432822  0  3.965288  0  0  -0.43617  0  3.970848  0  0  -0.246335  -0.43032  0  3.961449  0
C  C31  1  0.26966139  0.44707190  0.09015009  1  0  -0.355283  0  3.728196  0  0  -0.43282  0  3.965319  0  0  -0.436152  0  3.970895  0  0  -0.246351  -0.430324  0  3.961486  0
C  C32  1  0.26965517  0.44707096  0.40984935  1  0  -0.355316  0  3.728177  0  0  -0.432864  0  3.965319  0  0  -0.436198  0  3.970877  0  0  -0.246336  -0.430361  0  3.961481  0
C  C33  1  0.73034445  0.55292977  0.90985061  1  0  -0.355284  0  3.728138  0  0  -0.432784  0  3.965222  0  0  -0.436128  0  3.970787  0  0  -0.246326  -0.430286  0  3.96139  0
C  C34  1  0.86803434  0.41604623  0.62184459  1  0  0.240105  0  3.760018  0  0  0.232341  0  4.0316  0  0  0.242467  0  4.04825  0  0  0.094391  0.225698  0  4.020381  0
C  C35  1  0.13197708  0.58395735  0.12184429  1  0  0.239966  0  3.760056  0  0  0.232305  0  4.031487  0  0  0.242373  0  4.048219  0  0  0.09437  0.225664  0  4.02027  0
C  C36  1  0.13197140  0.58395427  0.37815468  1  0  0.240028  0  3.760039  0  0  0.232339  0  4.03154  0  0  0.242428  0  4.048247  0  0  0.094409  0.225699  0  4.020325  0
C  C37  1  0.86803356  0.41604317  0.87815736  1  0  0.240047  0  3.760082  0  0  0.232329  0  4.031568  0  0  0.242436  0  4.048247  0  0  0.094373  0.225688  0  4.020349  0
C  C38  1  0.86735033  0.25951302  0.60107896  1  0  -0.162404  0  3.740923  0  0  -0.158487  0  4.03404  0  0  -0.164695  0  4.054452  0  0  -0.055666  -0.154821  0  4.020488  0
C  C39  1  0.13265912  0.74049068  0.10107947  1  0  -0.162274  0  3.741036  0  0  -0.158382  0  4.034126  0  0  -0.164571  0  4.054553  0  0  -0.055637  -0.154719  0  4.020576  0
C  C40  1  0.13265295  0.74048748  0.39892031  1  0  -0.162215  0  3.741029  0  0  -0.158345  0  4.034092  0  0  -0.164541  0  4.054517  0  0  -0.055628  -0.154682  0  4.020545  0
C  C41  1  0.86734907  0.25950983  0.89892218  1  0  -0.162421  0  3.741075  0  0  -0.15853  0  4.0342  0  0  -0.164731  0  4.054617  0  0  -0.055684  -0.154866  0  4.020653  0
C  C42  1  0.03025613  0.17395982  0.64655653  1  0  0.181025  0  3.754562  0  0  0.159409  0  4.033402  0  0  0.170858  0  4.051644  0  0  0.087666  0.152003  0  4.020746  0
C  C43  1  0.96974233  0.82604242  0.14655623  1  0  0.181017  0  3.754601  0  0  0.159351  0  4.033471  0  0  0.1708  0  4.051711  0  0  0.087669  0.151942  0  4.020823  0
C  C44  1  0.96973713  0.82603831  0.35344417  1  0  0.181006  0  3.754735  0  0  0.15946  0  4.033459  0  0  0.17091  0  4.051695  0  0  0.087719  0.152053  0  4.02081  0
C  C45  1  0.03026341  0.17395809  0.85344543  1  0  0.18109  0  3.754528  0  0  0.159443  0  4.033385  0  0  0.170892  0  4.051623  0  0  0.087684  0.152037  0  4.020734  0
C  C46  1  0.10365726  0.00683806  0.64852468  1  0  -0.369537  0  3.751213  0  0  -0.44522  0  3.990907  0  0  -0.449273  0  3.995939  0  0  -0.250136  -0.442192  0  3.987463  0
C  C47  1  0.89634106  0.99316300  0.14852525  1  0  -0.369502  0  3.751268  0  0  -0.445171  0  3.990994  0  0  -0.449224  0  3.996029  0  0  -0.250146  -0.442144  0  3.987547  0
C  C48  1  0.89633601  0.99316008  0.35147459  1  0  -0.369705  0  3.75131  0  0  -0.445429  0  3.991022  0  0  -0.449481  0  3.996052  0  0  -0.250204  -0.442403  0  3.987581  0
C  C49  1  0.10365967  0.00683632  0.85147545  1  0  -0.369596  0  3.751293  0  0  -0.445267  0  3.991  0  0  -0.449321  0  3.99604  0  0  -0.250159  -0.442239  0  3.987553  0
C  C50  1  0.31159776  0.26053266  0.75000082  1  0  0.085921  0  3.599273  0  0  0.005811  0  3.851489  0  0  0.01591  0  3.857178  0  0  0.063807  -0.000915  0  3.84806  0
C  C51  1  0.68840051  0.73946665  0.24999988  1  0  0.085828  0  3.599308  0  0  0.005657  0  3.851645  0  0  0.015751  0  3.857337  0  0  0.063775  -0.001063  0  3.848202  0
Br  Br52  1  0.55897599  0.74558084  0.75000002  1  0  -0.535093  0  1.394233  0  0  -0.463194  0  1.802596  0  0  -0.478712  0  1.763971  0  0  -0.257971  -0.451686  0  1.828442  0
Br  Br53  1  0.44102239  0.25441964  0.24999973  1  0  -0.53512  0  1.394284  0  0  -0.463209  0  1.802624  0  0  -0.47872  0  1.763998  0  0  -0.257973  -0.451699  0  1.828469  0
Br  Br54  1  0.68524022  0.17923122  0.52492607  1  0  -0.019921  0  1.431114  0  0  -0.00476  0  1.711965  0  0  -0.008904  0  1.706135  0  0  0.067774  -0.002108  0  1.71642  0
Br  Br55  1  0.31477369  0.82077526  0.02492874  1  0  -0.019946  0  1.431187  0  0  -0.004793  0  1.712077  0  0  -0.008935  0  1.706244  0  0  0.067773  -0.002137  0  1.716534  0
Br  Br56  1  0.31476307  0.82076928  0.47507129  1  0  -0.019984  0  1.431213  0  0  -0.004843  0  1.712105  0  0  -0.008987  0  1.706274  0  0  0.067745  -0.002186  0  1.716558  0
Br  Br57  1  0.68523205  0.17922525  0.97507339  1  0  -0.019937  0  1.431138  0  0  -0.004787  0  1.712045  0  0  -0.008931  0  1.706213  0  0  0.067759  -0.002131  0  1.716502  0
N  N58  1  0.02645856  0.42740141  0.67803809  1  0  -0.282041  0  3.157204  0  0  -0.24632  0  3.472988  0  0  -0.252582  0  3.477217  0  0  -0.275425  -0.242866  0  3.470256  0
N  N59  1  0.97354407  0.57260066  0.17803705  1  0  -0.281972  0  3.157182  0  0  -0.246268  0  3.472857  0  0  -0.252507  0  3.47709  0  0  -0.275396  -0.242814  0  3.470124  0
N  N60  1  0.97353982  0.57259907  0.32196214  1  0  -0.281997  0  3.157215  0  0  -0.246329  0  3.472957  0  0  -0.252574  0  3.477187  0  0  -0.275422  -0.242874  0  3.470226  0
N  N61  1  0.02645676  0.42739983  0.82196365  1  0  -0.281988  0  3.157206  0  0  -0.246257  0  3.47292  0  0  -0.252515  0  3.477158  0  0  -0.275374  -0.242801  0  3.47019  0
N  N62  1  0.12214112  0.28068084  0.69237577  1  0  -0.020678  0  3.516921  0  0  0.057852  0  3.746407  0  0  0.044542  0  3.77243  0  0  -0.159903  0.066445  0  3.729089  0
N  N63  1  0.87785607  0.71931880  0.19237516  1  0  -0.020731  0  3.517008  0  0  0.057898  0  3.746418  0  0  0.04459  0  3.772434  0  0  -0.15989  0.06649  0  3.729105  0
N  N64  1  0.87785225  0.71931846  0.30762493  1  0  -0.020737  0  3.517042  0  0  0.057864  0  3.746435  0  0  0.044555  0  3.772454  0  0  -0.159949  0.066457  0  3.729124  0
N  N65  1  0.12213976  0.28068051  0.80762649  1  0  -0.020733  0  3.51694  0  0  0.057831  0  3.746375  0  0  0.044521  0  3.772398  0  0  -0.159912  0.066423  0  3.729058  0
