# generated using pymatgen
data_NaH7C8SO8
_symmetry_space_group_name_H-M   'P 1'
_cell_length_a   5.29407707
_cell_length_b   5.55762883
_cell_length_c   9.26237157
_cell_angle_alpha   104.27796237
_cell_angle_beta   90.49685519
_cell_angle_gamma   105.20313462
_symmetry_Int_Tables_number   1
_chemical_formula_structural   NaH7C8SO8
_chemical_formula_sum   'Na1 H7 C8 S1 O8'
_cell_volume   254.07608465
_cell_formula_units_Z   1
loop_
 _symmetry_equiv_pos_site_id
 _symmetry_equiv_pos_as_xyz
  1  'x, y, z'
loop_
 _atom_site_type_symbol
 _atom_site_label
 _atom_site_symmetry_multiplicity
 _atom_site_fract_x
 _atom_site_fract_y
 _atom_site_fract_z
 _atom_site_occupancy
 _atom_site_hle17_bader_spin_density
 _atom_site_hle17_ddec_charge
 _atom_site_hle17_ddec_spin_density
 _atom_site_hle17_ddec_sum_bond_order
 _atom_site_hle17_magmom
 _atom_site_hse06_10hf_bader_spin_density
 _atom_site_hse06_10hf_ddec_charge
 _atom_site_hse06_10hf_ddec_spin_density
 _atom_site_hse06_10hf_ddec_sum_bond_order
 _atom_site_hse06_10hf_magmom
 _atom_site_hse06_bader_spin_density
 _atom_site_hse06_ddec_charge
 _atom_site_hse06_ddec_spin_density
 _atom_site_hse06_ddec_sum_bond_order
 _atom_site_hse06_magmom
 _atom_site_pbe_bader_spin_density
 _atom_site_pbe_cm5_charge
 _atom_site_pbe_ddec_charge
 _atom_site_pbe_ddec_spin_density
 _atom_site_pbe_ddec_sum_bond_order
 _atom_site_pbe_magmom
Na  Na0  1  0.28306819  0.84753296  0.89692771  1  0  0.914382  0  0.3562  0  0  0.875287  0  0.501334  0  0  0.885412  0  0.480507  0  0  0.675107  0.867794  0  0.516379  0
H  H1  1  0.10213473  0.29413384  0.23739185  1  0  0.113471  0  0.952516  0  0  0.116548  0  1.027785  0  0  0.121022  0  1.023863  0  0  0.111964  0.113305  0  1.030671  0
H  H2  1  0.78567076  0.88459305  0.50493950  1  0  0.119925  0  0.93241  0  0  0.127627  0  0.994774  0  0  0.132179  0  0.990195  0  0  0.116106  0.124365  0  0.998032  0
H  H3  1  0.56337029  0.59656579  0.03329962  1  0  0.103991  0  0.970024  0  0  0.107622  0  1.044726  0  0  0.112286  0  1.039702  0  0  0.118443  0.104215  0  1.048223  0
H  H4  1  0.43048618  0.50322694  0.63683106  1  0  0.433858  0  0.866755  0  0  0.396616  0  0.943189  0  0  0.410522  0  0.923964  0  0  0.304646  0.38686  0  0.955941  0
H  H5  1  0.37293290  0.20240101  0.41832841  1  0  0.413313  0  0.857642  0  0  0.38273  0  0.935575  0  0  0.394944  0  0.92174  0  0  0.315941  0.374099  0  0.945295  0
H  H6  1  0.58632669  0.40282155  0.77487889  1  0  0.456984  0  0.830995  0  0  0.424498  0  0.89527  0  0  0.436043  0  0.87872  0  0  0.317352  0.416342  0  0.906988  0
H  H7  1  0.76106356  0.63076988  0.70229848  1  0  0.445816  0  0.847585  0  0  0.411307  0  0.918289  0  0  0.422609  0  0.902157  0  0  0.315175  0.403413  0  0.929538  0
C  C8  1  0.83928487  0.43433971  0.12169287  1  0  -0.122224  0  3.728167  0  0  -0.090516  0  3.972841  0  0  -0.100379  0  3.994565  0  0  -0.008643  -0.084454  0  3.958225  0
C  C9  1  0.97896296  0.42618618  0.24802518  1  0  -0.034681  0  3.667475  0  0  -0.075367  0  3.919817  0  0  -0.070933  0  3.93776  0  0  -0.064162  -0.078606  0  3.908499  0
C  C10  1  0.95479199  0.58611667  0.38725498  1  0  -0.089196  0  3.752317  0  0  -0.064075  0  3.996439  0  0  -0.074984  0  4.018881  0  0  -0.019836  -0.057497  0  3.981699  0
C  C11  1  0.79768674  0.75585925  0.39729546  1  0  -0.032223  0  3.648031  0  0  -0.078631  0  3.90472  0  0  -0.071567  0  3.919195  0  0  -0.066261  -0.082082  0  3.894069  0
C  C12  1  0.65868175  0.76154522  0.26968236  1  0  -0.078685  0  3.750075  0  0  -0.050151  0  3.986651  0  0  -0.06192  0  4.01032  0  0  -0.010934  -0.042898  0  3.970348  0
C  C13  1  0.67727059  0.59740700  0.13155198  1  0  -0.009931  0  3.669603  0  0  -0.051841  0  3.918669  0  0  -0.045076  0  3.933666  0  0  -0.051402  -0.05497  0  3.907472  0
C  C14  1  0.09864800  0.58500914  0.52669469  1  0  0.691601  0  3.829757  0  0  0.635836  0  4.12736  0  0  0.670454  0  4.118307  0  0  0.232665  0.612264  0  4.133274  0
C  C15  1  0.49136468  0.94050799  0.27627599  1  0  0.659063  0  3.830837  0  0  0.610356  0  4.126734  0  0  0.641945  0  4.12177  0  0  0.235684  0.588919  0  4.129603  0
S  S16  1  0.88138296  0.24561070  0.94253157  1  0  1.322765  0  5.66248  0  0  1.230202  0  6.177176  0  0  1.278071  0  6.152586  0  0  0.516017  1.197455  0  6.192796  0
O  O17  1  0.10048874  0.40855736  0.88553440  1  0  -0.698035  0  1.951669  0  0  -0.654061  0  2.208217  0  0  -0.674752  0  2.193017  0  0  -0.392752  -0.640105  0  2.21869  0
O  O18  1  0.92851046  0.01044776  0.96564358  1  0  -0.693698  0  1.989954  0  0  -0.651496  0  2.255569  0  0  -0.671888  0  2.241102  0  0  -0.392356  -0.637236  0  2.264811  0
O  O19  1  0.62894179  0.19073266  0.85151666  1  0  -0.725532  0  1.967099  0  0  -0.671085  0  2.21009  0  0  -0.69073  0  2.191468  0  0  -0.38788  -0.656963  0  2.222413  0
O  O20  1  0.04936630  0.70928474  0.65185348  1  0  -0.659029  0  1.992921  0  0  -0.609706  0  2.224187  0  0  -0.631647  0  2.210814  0  0  -0.35382  -0.594719  0  2.233391  0
O  O21  1  0.27389595  0.45862909  0.51218577  1  0  -0.629622  0  2.071816  0  0  -0.561817  0  2.295119  0  0  -0.589738  0  2.283615  0  0  -0.305111  -0.542444  0  2.302537  0
O  O22  1  0.37754617  0.96339513  0.16578480  1  0  -0.59416  0  1.957115  0  0  -0.557151  0  2.192379  0  0  -0.577499  0  2.186116  0  0  -0.326383  -0.54315  0  2.196496  0
O  O23  1  0.47866887  0.07603272  0.41568203  1  0  -0.550094  0  2.102245  0  0  -0.49893  0  2.320147  0  0  -0.521073  0  2.306831  0  0  -0.32998  -0.48339  0  2.328992  0
O  O24  1  0.57841179  0.55543117  0.73323958  1  0  -0.758057  0  2.012438  0  0  -0.7038  0  2.202378  0  0  -0.7233  0  2.16521  0  0  -0.549581  -0.690517  0  2.228082  0
