# generated using pymatgen
data_ZnH15C24NO4
_symmetry_space_group_name_H-M   'P 1'
_cell_length_a   11.04316097
_cell_length_b   18.26452632
_cell_length_c   19.70560234
_cell_angle_alpha   90.09421685
_cell_angle_beta   90.01466793
_cell_angle_gamma   90.11081621
_symmetry_Int_Tables_number   1
_chemical_formula_structural   ZnH15C24NO4
_chemical_formula_sum   'Zn2 H30 C48 N2 O8'
_cell_volume   3974.56969215
_cell_formula_units_Z   2
loop_
 _symmetry_equiv_pos_site_id
 _symmetry_equiv_pos_as_xyz
  1  'x, y, z'
loop_
 _atom_site_type_symbol
 _atom_site_label
 _atom_site_symmetry_multiplicity
 _atom_site_fract_x
 _atom_site_fract_y
 _atom_site_fract_z
 _atom_site_occupancy
 _atom_site_pbe_bader_charge
 _atom_site_pbe_bader_spin_density
 _atom_site_pbe_cm5_charge
 _atom_site_pbe_ddec_charge
 _atom_site_pbe_ddec_spin_density
 _atom_site_pbe_ddec_sum_bond_order
 _atom_site_pbe_magmom
Zn  Zn0  1  0.50008242  0.42370148  0.49971478  1  1.272578  0  0.661843  0.809239  0  2.44313  0
Zn  Zn1  1  0.50037327  0.57613827  0.50094422  1  1.254019  0  0.660792  0.811158  0  2.441206  0
H  H2  1  0.88780949  0.56526881  0.58348379  1  0.063984  0  0.101885  0.104967  0  0.992783  0
H  H3  1  0.30710545  0.93220103  0.48152889  1  0.079896  0  0.106594  0.105606  0  0.996225  0
H  H4  1  0.36329621  0.82867737  0.42111084  1  0.078154  0  0.112322  0.118207  0  0.993326  0
H  H5  1  0.63606316  0.83020693  0.57874034  1  0.055925  0  0.111798  0.117021  0  0.99482  0
H  H6  1  0.36836358  0.69163711  0.42592046  1  0.109158  0  0.131702  0.108305  0  0.964222  0
H  H7  1  0.63204566  0.69311594  0.57466556  1  0.107692  0  0.130713  0.106106  0  0.964882  0
H  H8  1  0.77368702  0.43114584  0.38382182  1  0.094731  0  0.100979  0.113315  0  1.01717  0
H  H9  1  0.22525718  0.43285348  0.38223296  1  0.102869  0  0.098511  0.10707  0  1.025212  0
H  H10  1  0.88538674  0.37776488  0.28747936  1  0.061721  0  0.095884  0.091133  0  1.00135  0
H  H11  1  0.11192639  0.37860906  0.28658307  1  0.038186  0  0.095283  0.09116  0  1.002187  0
H  H12  1  0.49152015  0.61686614  0.28289070  1  0.08247  0  0.102224  0.105203  0  1.002658  0
H  H13  1  0.11461090  0.56563384  0.58277986  1  0.074307  0  0.103766  0.108677  0  0.988859  0
H  H14  1  0.49432457  0.61700332  0.71804225  1  0.077515  0  0.100698  0.103825  0  1.006625  0
H  H15  1  0.49112431  0.61757254  0.15607122  1  0.081382  0  0.098536  0.096818  0  1.006196  0
H  H16  1  0.49297171  0.61708718  0.84485209  1  0.054291  0  0.097832  0.09652  0  1.007278  0
H  H17  1  0.50346829  0.38183469  0.15560571  1  0.066394  0  0.097563  0.095488  0  1.009094  0
H  H18  1  0.50605600  0.38138673  0.84366958  1  0.075033  0  0.097865  0.095962  0  1.006553  0
H  H19  1  0.50370069  0.38243446  0.28238391  1  0.076048  0  0.101174  0.104474  0  1.005609  0
H  H20  1  0.50751248  0.38260492  0.71685722  1  0.071803  0  0.101568  0.104745  0  1.005289  0
H  H21  1  0.63619454  0.41681079  0.06319561  1  0.035139  0  0.100246  0.099416  0  1.002466  0
H  H22  1  0.63703281  0.41647095  0.93760143  1  0.034471  0  0.100371  0.099604  0  1.002822  0
H  H23  1  0.35967990  0.58171093  0.93684348  1  0.059901  0  0.100439  0.100083  0  1.002636  0
H  H24  1  0.36625376  0.30719119  0.42633557  1  0.108199  0  0.130604  0.106094  0  0.971722  0
H  H25  1  0.35873928  0.58203754  0.06244215  1  0.025786  0  0.100567  0.099793  0  1.002454  0
H  H26  1  0.63251710  0.30753641  0.57375615  1  0.110795  0  0.131793  0.107782  0  0.96317  0
H  H27  1  0.36203676  0.17025180  0.42152739  1  0.082797  0  0.11216  0.118075  0  0.993672  0
H  H28  1  0.63717194  0.17053596  0.57789511  1  0.085121  0  0.112155  0.117562  0  0.994886  0
H  H29  1  0.69221140  0.06761421  0.51750078  1  0.079378  0  0.106783  0.105968  0  0.995788  0
H  H30  1  0.30716007  0.06715081  0.48155092  1  0.034034  0  0.106856  0.105898  0  0.995979  0
H  H31  1  0.69213851  0.93268481  0.51757871  1  0.036948  0  0.106697  0.105718  0  0.996011  0
C  C32  1  0.50221039  0.50035157  0.63388011  1  1.593408  0  0.211149  0.589243  0  4.178718  0
C  C33  1  0.50157742  0.49983108  0.70995793  1  -0.038428  0  -0.021759  -0.036617  0  3.970578  0
C  C34  1  0.57393788  0.45223288  0.03554550  1  0.028767  0  -0.093295  -0.129694  0  4.00328  0
C  C35  1  0.57441905  0.45202828  0.96493452  1  -0.066894  0  -0.094507  -0.131278  0  4.005792  0
C  C36  1  0.49854308  0.49912366  0.92801810  1  0.023695  0  -0.010239  0.064145  0  4.013477  0
C  C37  1  0.49754153  0.49954226  0.07204809  1  0.065402  0  -0.010834  0.063618  0  4.012619  0
C  C38  1  0.42198817  0.54634038  0.96452105  1  -0.000317  0  -0.093505  -0.130829  0  4.006008  0
C  C39  1  0.42148981  0.54654331  0.03512389  1  -0.107502  0  -0.093289  -0.12985  0  4.005578  0
C  C40  1  0.42475139  0.27412672  0.45864383  1  0.427972  0  0.062623  0.110145  0  3.918408  0
C  C41  1  0.57429331  0.27430778  0.54121194  1  0.430196  0  0.063447  0.11054  0  3.920515  0
C  C42  1  0.42236519  0.19812760  0.45695272  1  0.032155  0  -0.080384  -0.181997  0  3.953835  0
C  C43  1  0.49787855  0.49920177  0.36615026  1  1.589145  0  0.210498  0.583546  0  4.18836  0
C  C44  1  0.57689451  0.19830810  0.54256272  1  0.034527  0  -0.081117  -0.182323  0  3.955575  0
C  C45  1  0.49965624  0.15817975  0.49967305  1  -0.059437  0  0.014249  0.1108  0  4.000941  0
C  C46  1  0.73715419  0.50009550  0.49748210  1  1.573648  0  0.216704  0.602346  0  4.172222  0
C  C47  1  0.26340295  0.50067244  0.49644062  1  1.552108  0  0.216826  0.603351  0  4.169305  0
C  C48  1  0.60712161  0.03810787  0.51066987  1  -0.001477  0  -0.084331  -0.119295  0  3.985641  0
C  C49  1  0.39219269  0.03783717  0.48846541  1  -0.123953  0  -0.084446  -0.11941  0  3.984166  0
C  C50  1  0.60708133  0.96199412  0.51071597  1  -0.127116  0  -0.084885  -0.120263  0  3.986166  0
C  C51  1  0.39216605  0.96171134  0.48847345  1  -0.01222  0  -0.084554  -0.119888  0  3.984949  0
C  C52  1  0.49958923  0.92238145  0.49965812  1  0.121328  0  -0.00534  0.0614  0  4.00184  0
C  C53  1  0.49966562  0.07743733  0.49959428  1  0.123239  0  -0.004952  0.061311  0  4.001973  0
C  C54  1  0.49721211  0.49970423  0.14694143  1  -0.0666  0  -0.006232  0.072675  0  4.010054  0
C  C55  1  0.42321010  0.80117590  0.45680488  1  -0.07104  0  -0.080892  -0.182465  0  3.953489  0
C  C56  1  0.57646824  0.80201282  0.54313580  1  0.073817  0  -0.081256  -0.182586  0  3.956569  0
C  C57  1  0.42604970  0.72517416  0.45850701  1  0.559172  0  0.063184  0.110023  0  3.920155  0
C  C58  1  0.57430143  0.72601162  0.54179094  1  0.425144  0  0.062574  0.10992  0  3.921236  0
C  C59  1  0.49970496  0.84163017  0.49984839  1  -0.093344  0  0.013934  0.110506  0  4.001018  0
C  C60  1  0.87228871  0.43188131  0.38360850  1  -0.016976  0  -0.093686  -0.12984  0  3.97769  0
C  C61  1  0.12661263  0.43254446  0.38282548  1  -0.069321  0  -0.097387  -0.137129  0  3.990506  0
C  C62  1  0.93503057  0.40162085  0.33000508  1  -0.043004  0  -0.101593  -0.093561  0  4.070643  0
C  C63  1  0.06306884  0.40199168  0.32956536  1  -0.070925  0  -0.103899  -0.098284  0  4.077691  0
C  C64  1  0.06500338  0.46500440  0.43865575  1  -0.138672  0  -0.002782  0.060668  0  3.950328  0
C  C65  1  0.49953288  0.49921955  0.85312991  1  -0.071303  0  -0.007123  0.073313  0  4.010357  0
C  C66  1  0.93472598  0.46476142  0.43902232  1  0.095092  0  -0.002653  0.056446  0  3.950377  0
C  C67  1  0.87270083  0.50051497  0.49334827  1  -0.044256  0  -0.011543  -0.063024  0  3.942538  0
C  C68  1  0.12787280  0.50089312  0.49264951  1  0.015018  0  -0.012144  -0.064019  0  3.943593  0
C  C69  1  0.93707989  0.53702789  0.54328359  1  -0.081403  0  -0.092709  -0.108851  0  4.030113  0
C  C70  1  0.06443867  0.53723405  0.54293618  1  0.039319  0  -0.091978  -0.109139  0  4.026954  0
C  C71  1  0.49306057  0.56578001  0.25424414  1  -0.062846  0  -0.085758  -0.085135  0  3.991771  0
C  C72  1  0.49654626  0.56579585  0.74631709  1  -0.037802  0  -0.087634  -0.088517  0  3.999579  0
C  C73  1  0.49239233  0.56578460  0.18363013  1  -0.037017  0  -0.094488  -0.139437  0  3.995969  0
C  C74  1  0.49500199  0.56545544  0.81689941  1  -0.045425  0  -0.095582  -0.142199  0  4.002231  0
C  C75  1  0.50199632  0.43359200  0.18336093  1  -0.046396  0  -0.09515  -0.140741  0  4.002816  0
C  C76  1  0.50504677  0.43328898  0.81627278  1  -0.022348  0  -0.094965  -0.140311  0  3.997639  0
C  C77  1  0.50139773  0.43353705  0.25393542  1  -0.057922  0  -0.088131  -0.089451  0  3.998643  0
C  C78  1  0.50540115  0.43356707  0.74566114  1  -0.069691  0  -0.086901  -0.087483  0  3.995631  0
C  C79  1  0.49723638  0.49964736  0.29010497  1  -0.042079  0  -0.020913  -0.036832  0  3.973323  0
N  N80  1  0.49947697  0.31152655  0.50001692  1  -1.204216  0  -0.31732  -0.190775  0  3.511997  0
N  N81  1  0.50039633  0.68829517  0.50022145  1  -1.201033  0  -0.317603  -0.19127  0  3.513167  0
O  O82  1  0.50311905  0.43849615  0.60376884  1  -1.170643  0  -0.321265  -0.552777  0  2.319201  0
O  O83  1  0.49832139  0.43668971  0.39495677  1  -1.180385  0  -0.321194  -0.557119  0  2.329152  0
O  O84  1  0.50147052  0.56275711  0.60502717  1  -1.173768  0  -0.321611  -0.552946  0  2.325357  0
O  O85  1  0.49819300  0.56095319  0.39635476  1  -1.170339  0  -0.319668  -0.551642  0  2.317208  0
O  O86  1  0.68490454  0.43787815  0.49718554  1  -1.164763  0  -0.316566  -0.549878  0  2.325757  0
O  O87  1  0.31554832  0.43856505  0.49672643  1  -1.162713  0  -0.316409  -0.549001  0  2.322912  0
O  O88  1  0.68536708  0.56213209  0.50166074  1  -1.165044  0  -0.31942  -0.549464  0  2.308388  0
O  O89  1  0.31522856  0.56285040  0.50021252  1  -1.155261  0  -0.319498  -0.549668  0  2.308136  0
