# generated using pymatgen
data_MnH14C20(NO2)2
_symmetry_space_group_name_H-M   'P 1'
_cell_length_a   9.96475978
_cell_length_b   10.15541817
_cell_length_c   10.68432702
_cell_angle_alpha   80.71345902
_cell_angle_beta   81.85713088
_cell_angle_gamma   65.52509879
_symmetry_Int_Tables_number   1
_chemical_formula_structural   MnH14C20(NO2)2
_chemical_formula_sum   'Mn2 H28 C40 N4 O8'
_cell_volume   967.79000080
_cell_formula_units_Z   2
loop_
 _symmetry_equiv_pos_site_id
 _symmetry_equiv_pos_as_xyz
  1  'x, y, z'
loop_
 _atom_site_type_symbol
 _atom_site_label
 _atom_site_symmetry_multiplicity
 _atom_site_fract_x
 _atom_site_fract_y
 _atom_site_fract_z
 _atom_site_occupancy
 _atom_site_hle17_ddec_charge
 _atom_site_hle17_ddec_spin_density
 _atom_site_hle17_ddec_sum_bond_order
 _atom_site_hle17_magmom
 _atom_site_hse06_10hf_ddec_charge
 _atom_site_hse06_10hf_ddec_spin_density
 _atom_site_hse06_10hf_ddec_sum_bond_order
 _atom_site_hse06_10hf_magmom
 _atom_site_hse06_ddec_charge
 _atom_site_hse06_ddec_spin_density
 _atom_site_hse06_ddec_sum_bond_order
 _atom_site_hse06_magmom
 _atom_site_pbe_cm5_charge
 _atom_site_pbe_ddec_charge
 _atom_site_pbe_ddec_spin_density
 _atom_site_pbe_ddec_sum_bond_order
 _atom_site_pbe_magmom
Mn  Mn0  1  0.18643379  0.87971686  0.11275184  1  1.104401  4.790485  1.850024  4.664  0.935447  4.708038  2.360445  4.511  0.995315  4.758176  2.288605  4.583  0.611753  0.890825  4.652575  2.413298  4.435
Mn  Mn1  1  0.81356707  0.12028519  0.88724884  1  1.104379  4.79047  1.850037  4.663  0.935417  4.708015  2.360479  4.511  0.995293  4.758162  2.288631  4.583  0.611761  0.890792  4.652537  2.413364  4.435
H  H2  1  0.25446223  0.51648823  0.45593268  1  0.097014  -0.000113  0.940642  0.0  0.108048  -7.8e-05  0.998105  0.0  0.111893  -9.6e-05  0.995631  0.0  0.104782  0.105501  -5.1e-05  0.999528  0.0
H  H3  1  0.74554438  0.48351709  0.54406575  1  0.096942  -0.000116  0.940587  0.0  0.107955  -7.8e-05  0.998095  0.0  0.111777  -9.6e-05  0.995649  0.0  0.104736  0.105412  -5.1e-05  0.999518  0.0
H  H4  1  0.61895659  0.64506424  0.35381779  1  0.094286  -6.3e-05  0.945891  0.0  0.106418  3.7e-05  1.004225  0.0  0.10986  -2e-06  1.002346  0.0  0.104598  0.103752  0.000112  1.006107  0.0
H  H5  1  0.38105091  0.35493888  0.64617995  1  0.09416  -5.7e-05  0.945975  0.0  0.106317  3.7e-05  1.004295  0.0  0.109759  -2e-06  1.002416  0.0  0.104556  0.103649  0.000112  1.006175  0.0
H  H6  1  0.79377224  0.69661166  0.88713841  1  0.100695  -0.000284  0.953063  0.0  0.108033  -0.000272  1.016487  0.0  0.11184  -0.000291  1.014533  0.0  0.100389  0.105289  -0.000138  1.017907  0.0
H  H7  1  0.20622468  0.30339260  0.11286524  1  0.100681  -0.000297  0.953018  0.0  0.108024  -0.000272  1.016447  0.0  0.111823  -0.000291  1.0145  0.0  0.100392  0.10528  -0.000138  1.01787  0.0
H  H8  1  0.18833619  0.55940794  0.08117229  1  0.113621  -0.000549  0.97205  0.0  0.120622  -0.000628  1.038596  0.0  0.124814  -0.000626  1.035313  0.0  0.105182  0.117277  -0.000553  1.041578  0.0
H  H9  1  0.81166275  0.44059634  0.91883203  1  0.113638  -0.000579  0.97206  0.0  0.120641  -0.000627  1.038591  0.0  0.124838  -0.000626  1.035312  0.0  0.105189  0.117293  -0.000554  1.041574  0.0
H  H10  1  0.36358907  0.05405828  0.97164116  1  0.079964  -0.000192  0.955443  0.0  0.088166  0.000282  1.018182  0.0  0.09047  9.9e-05  1.016588  0.0  0.117495  0.086276  0.000522  1.01971  0.001
H  H11  1  0.63641706  0.94593827  0.02835504  1  0.079996  -0.0002  0.955516  0.0  0.088227  0.000282  1.018209  0.0  0.090526  0.0001  1.01662  0.0  0.117566  0.086361  0.000522  1.019715  0.001
H  H12  1  0.48182190  0.08275015  0.75539043  1  0.118292  -2.6e-05  0.978163  0.0  0.126857  -7.7e-05  1.040531  0.0  0.130759  -0.00016  1.038662  0.0  0.106357  0.123663  2.1e-05  1.042586  0.0
H  H13  1  0.51818063  0.91724526  0.24460364  1  0.118333  -5.8e-05  0.978153  0.0  0.126945  -7.7e-05  1.040459  0.0  0.130861  -0.000159  1.038583  0.0  0.106372  0.123751  2.1e-05  1.042518  0.0
H  H14  1  0.50662035  0.65805265  0.70690052  1  0.103336  0.000258  0.983726  0.0  0.111399  0.000319  1.048815  0.0  0.113554  0.000208  1.050006  0.0  0.10078  0.109449  0.000419  1.048808  0.0
H  H15  1  0.49337317  0.34194496  0.29309720  1  0.103463  0.000263  0.983625  0.0  0.111464  0.000319  1.048768  0.0  0.113601  0.000208  1.049975  0.0  0.100788  0.109515  0.000419  1.048762  0.0
H  H16  1  0.39296391  0.64512329  0.92887276  1  0.08146  1.6e-05  0.9222  0.0  0.091618  0.000588  0.980831  0.0  0.094091  0.000364  0.978542  0.0  0.121251  0.089615  0.000764  0.982973  0.0
H  H17  1  0.60703277  0.35487655  0.07112698  1  0.08147  2e-06  0.922151  0.0  0.091633  0.000588  0.980789  0.0  0.094107  0.000364  0.978499  0.0  0.12126  0.089632  0.000764  0.982931  0.0
H  H18  1  0.59833014  0.79136105  0.53322426  1  0.059724  8.7e-05  0.963294  0.0  0.06987  0.000156  1.029287  0.0  0.070662  0.000115  1.029639  0.0  0.095654  0.068942  0.000242  1.029803  0.0
H  H19  1  0.40166745  0.20863655  0.46677105  1  0.059782  9.1e-05  0.963291  0.0  0.069942  0.000156  1.029263  0.0  0.070735  0.000115  1.029615  0.0  0.095682  0.069011  0.000242  1.029779  0.0
H  H20  1  0.60158928  0.07664986  0.58895769  1  0.091496  -0.000112  0.964374  0.0  0.099647  -1.6e-05  1.029705  0.0  0.102317  -0.000104  1.028278  0.0  0.104902  0.097239  0.000122  1.03137  0.0
H  H21  1  0.39840380  0.92334887  0.41104178  1  0.091492  -0.000135  0.964403  0.0  0.099654  -1.5e-05  1.029704  0.0  0.102321  -0.000104  1.028282  0.0  0.1049  0.097243  0.000121  1.031371  0.0
H  H22  1  0.78258699  0.74611894  0.41525001  1  0.096599  0.000235  0.968766  0.0  0.109517  0.000265  1.026459  0.0  0.112117  0.000192  1.026142  0.0  0.103049  0.107625  0.000316  1.026923  0.0
H  H23  1  0.21741842  0.25387448  0.58475710  1  0.096613  0.000232  0.968762  0.0  0.109553  0.000265  1.026425  0.0  0.112152  0.000192  1.026108  0.0  0.103045  0.10766  0.000316  1.026886  0.0
H  H24  1  0.00973423  0.70517132  0.26881696  1  0.080826  5.1e-05  0.944099  0.0  0.089706  0.000387  1.006051  0.0  0.091667  0.000254  1.004825  0.0  0.118646  0.088271  0.000523  1.006979  0.001
H  H25  1  0.99027130  0.29482431  0.73119164  1  0.080884  2.4e-05  0.944009  0.0  0.089737  0.000387  1.006001  0.0  0.091664  0.000255  1.004813  0.0  0.118661  0.088305  0.000523  1.006924  0.001
H  H26  1  0.99338715  0.11244950  0.29798576  1  0.082446  -9.5e-05  0.934448  0.0  0.092986  0.000352  0.991118  0.0  0.095315  0.000161  0.98923  0.0  0.121275  0.09138  0.000466  0.992429  0.0
H  H27  1  0.00660472  0.88755467  0.70201297  1  0.082409  -8.7e-05  0.934512  0.0  0.093006  0.000352  0.991123  0.0  0.09534  0.000161  0.98923  0.0  0.121265  0.091401  0.000466  0.992429  0.0
H  H28  1  0.76507294  0.17162753  0.44750486  1  0.107749  0.000173  0.947521  0.0  0.118438  0.000204  1.007146  0.0  0.120682  0.000133  1.008142  0.0  0.107268  0.116707  0.000277  1.006888  0.0
H  H29  1  0.23491925  0.82837336  0.55249344  1  0.107734  0.000187  0.94748  0.0  0.118417  0.000204  1.007114  0.0  0.120663  0.000133  1.008107  0.0  0.107246  0.116688  0.000277  1.006844  0.0
C  C30  1  0.35236603  0.68873386  0.28383840  1  0.619617  0.00379  3.952919  0.002  0.572184  0.00763  4.245364  0.004  0.605436  0.006056  4.240157  0.003  0.198146  0.549026  0.009098  4.247894  0.005
C  C31  1  0.64764104  0.31127035  0.71615829  1  0.619571  0.003772  3.953178  0.002  0.572146  0.007633  4.245567  0.004  0.6054  0.006055  4.240363  0.003  0.198179  0.54898  0.009099  4.248103  0.005
C  C32  1  0.42935041  0.59048806  0.39472128  1  -0.04052  -0.00074  3.760235  -0.001  -0.019642  0.000716  3.994776  0.0  -0.023313  -0.000125  4.013454  0.0  -0.012589  -0.017708  0.002102  3.982814  0.001
C  C33  1  0.57065620  0.40951724  0.60527621  1  -0.040677  -0.000676  3.760558  -0.001  -0.01971  0.000715  3.994947  0.0  -0.023382  -0.000122  4.013622  0.0  -0.012661  -0.017773  0.002102  3.982984  0.001
C  C34  1  0.36195597  0.50859828  0.47644065  1  -0.092181  0.000735  3.765136  0.001  -0.113908  0.001568  4.017273  0.001  -0.114455  0.001003  4.035098  0.001  -0.087626  -0.113017  0.002283  4.004877  0.002
C  C35  1  0.63805166  0.49140703  0.52355671  1  -0.091874  0.000704  3.765183  0.001  -0.113616  0.001568  4.017258  0.001  -0.114142  0.001002  4.035092  0.001  -0.08749  -0.112727  0.002283  4.004869  0.002
C  C36  1  0.56776061  0.58122431  0.41885190  1  -0.087133  0.000795  3.757179  0.001  -0.110138  0.001622  4.008684  0.001  -0.111167  0.001059  4.027796  0.001  -0.087241  -0.109386  0.002493  3.996258  0.002
C  C37  1  0.43224600  0.41878099  0.58114560  1  -0.086827  0.000737  3.757085  0.001  -0.109874  0.001623  4.008552  0.001  -0.110904  0.001058  4.027676  0.001  -0.087137  -0.109118  0.002493  3.996115  0.002
C  C38  1  0.97990834  0.79665931  0.95986593  1  0.663005  0.01363  3.885901  0.014  0.60864  0.022195  4.183125  0.02  0.645589  0.016842  4.174179  0.016  0.223985  0.583071  0.028266  4.187828  0.025
C  C39  1  0.02009151  0.20334272  0.04013302  1  0.663097  0.013623  3.885984  0.014  0.608737  0.022198  4.183186  0.02  0.645689  0.016841  4.174236  0.016  0.224052  0.583169  0.02827  4.187886  0.025
C  C40  1  0.99010287  0.64349766  0.98141852  1  -0.071456  0.001796  3.768671  0.002  -0.049353  0.003023  4.001842  0.002  -0.056512  0.001723  4.024537  0.002  -0.020457  -0.04499  0.004908  3.987077  0.003
C  C41  1  0.00989493  0.35650444  0.01858631  1  -0.071514  0.001635  3.768688  0.002  -0.049394  0.003025  4.001852  0.002  -0.056555  0.001718  4.024547  0.002  -0.020487  -0.045029  0.004907  3.987086  0.003
C  C42  1  0.88360394  0.60967033  0.93660274  1  -0.077433  0.001138  3.745577  0.001  -0.099325  0.002603  3.99231  0.002  -0.100103  0.001663  4.012155  0.001  -0.09012  -0.098717  0.003854  3.979265  0.003
C  C43  1  0.11639444  0.39033285  0.06340090  1  -0.077361  0.001313  3.745298  0.001  -0.099265  0.002601  3.992043  0.002  -0.100036  0.001668  4.01189  0.001  -0.090081  -0.098657  0.003855  3.979002  0.003
C  C44  1  0.10685008  0.53267346  0.04501982  1  -0.084098  0.000547  3.736351  0.001  -0.107094  0.001723  3.983477  0.001  -0.108175  0.001026  4.003242  0.001  -0.089639  -0.106581  0.002888  3.971045  0.002
C  C45  1  0.89314639  0.46733191  0.95498465  1  -0.084088  0.000776  3.736467  0.001  -0.107086  0.00172  3.983568  0.001  -0.108175  0.001031  4.003342  0.001  -0.089603  -0.106569  0.002888  3.971133  0.002
C  C46  1  0.39852538  0.96805509  0.91002077  1  0.129678  0.005543  3.71945  0.005  0.101001  0.007559  3.97255  0.006  0.108139  0.006425  3.990937  0.006  0.048794  0.096157  0.009351  3.960757  0.008
C  C47  1  0.60147713  0.03194037  0.08997703  1  0.129709  0.005525  3.719462  0.005  0.101023  0.00756  3.972547  0.006  0.108173  0.006424  3.990937  0.006  0.048784  0.096163  0.009351  3.960752  0.008
C  C48  1  0.46151447  0.98467128  0.78718981  1  -0.166424  -0.004411  3.700327  -0.003  -0.18559  -0.002645  3.950425  -0.001  -0.193733  -0.003559  3.971233  -0.002  -0.086489  -0.18051  -0.002111  3.937185  -0.001
C  C49  1  0.53848806  0.01532416  0.21280613  1  -0.166517  -0.004279  3.700303  -0.003  -0.185757  -0.002648  3.950358  -0.001  -0.193916  -0.003561  3.971175  -0.002  -0.086595  -0.180676  -0.002111  3.937124  -0.001
C  C50  1  0.49655612  0.87583571  0.70784198  1  0.125591  0.004953  3.728099  0.004  0.136088  0.00645  3.965383  0.005  0.141583  0.005435  3.987459  0.004  0.007683  0.132097  0.008769  3.950401  0.007
C  C51  1  0.50344191  0.12416080  0.29215438  1  0.125652  0.004926  3.728089  0.004  0.136227  0.006452  3.965253  0.005  0.141721  0.005437  3.98733  0.004  0.00777  0.132239  0.008771  3.95027  0.007
C  C52  1  0.47669414  0.74900740  0.76196500  1  -0.173955  -0.004194  3.720626  -0.002  -0.190986  -0.002508  3.968584  -0.001  -0.199168  -0.003346  3.990628  -0.002  -0.088395  -0.185373  -0.001991  3.954556  -0.001
C  C53  1  0.52330186  0.25098911  0.23803164  1  -0.174108  -0.004206  3.7207  -0.003  -0.191097  -0.002509  3.968639  -0.001  -0.199261  -0.003347  3.990686  -0.002  -0.08836  -0.185489  -0.001992  3.954614  -0.001
C  C54  1  0.41402467  0.74059480  0.88617005  1  0.139555  0.005576  3.710456  0.005  0.110009  0.007546  3.962836  0.007  0.117736  0.006314  3.980239  0.006  0.051998  0.104424  0.009521  3.951558  0.008
C  C55  1  0.58597303  0.25940502  0.11382862  1  0.139536  0.005608  3.71033  0.006  0.109965  0.007547  3.962707  0.007  0.117694  0.006313  3.980104  0.006  0.051905  0.104388  0.009523  3.951424  0.008
C  C56  1  0.53597927  0.89792145  0.56777486  1  -0.054333  -3.3e-05  3.527751  0.0  -0.065715  0.000554  3.7601  0.0  -0.06695  0.000344  3.774142  0.0  -0.071853  -0.06469  0.000938  3.750899  0.0
C  C57  1  0.46401572  0.10207505  0.43222098  1  -0.054431  -6.5e-05  3.52783  0.0  -0.065865  0.000556  3.760193  0.0  -0.067106  0.000339  3.774247  0.0  -0.071959  -0.064836  0.000938  3.750984  0.0
C  C58  1  0.60222430  0.01141905  0.51606354  1  -0.072272  0.000586  3.518233  0.0  -0.081893  0.001258  3.745854  0.001  -0.084151  0.000915  3.759099  0.001  -0.072883  -0.080337  0.001688  3.737206  0.001
C  C59  1  0.39777417  0.98857641  0.48393481  1  -0.072255  0.000637  3.518231  0.001  -0.081931  0.001258  3.746004  0.001  -0.084192  0.000915  3.759253  0.001  -0.072865  -0.080378  0.001688  3.73736  0.001
C  C60  1  0.75038258  0.96541954  0.44226447  1  0.136703  0.00291  3.723929  0.003  0.147933  0.004297  3.959882  0.003  0.153786  0.003664  3.981958  0.003  0.01286  0.144034  0.005405  3.944809  0.004
C  C61  1  0.24961601  0.03457812  0.55773537  1  0.136688  0.002915  3.724002  0.003  0.147893  0.004301  3.959959  0.004  0.153744  0.003661  3.982037  0.003  0.012839  0.143995  0.005407  3.944884  0.004
C  C62  1  0.82423550  0.83162176  0.39272088  1  -0.183851  -0.002138  3.745294  -0.001  -0.20139  -0.001237  3.991204  -0.001  -0.210512  -0.001848  4.014408  -0.001  -0.09144  -0.195326  -0.000918  3.97565  0.0
C  C63  1  0.17576643  0.16837273  0.60728558  1  -0.18389  -0.002175  3.745376  -0.001  -0.201435  -0.001239  3.991263  -0.001  -0.210554  -0.001847  4.01446  -0.001  -0.091411  -0.195367  -0.000919  3.975705  0.0
C  C64  1  0.95141426  0.80757770  0.31029689  1  0.128239  0.003253  3.726423  0.003  0.100593  0.005271  3.975445  0.005  0.107566  0.004384  3.995247  0.004  0.048455  0.095886  0.006528  3.961934  0.006
C  C65  1  0.04858824  0.19241788  0.68970932  1  0.128184  0.00336  3.726451  0.003  0.10056  0.005272  3.97549  0.005  0.107559  0.004386  3.995299  0.004  0.048411  0.09585  0.00653  3.961982  0.006
C  C66  1  0.94225963  0.03466584  0.32673781  1  0.137949  0.003079  3.712728  0.003  0.107299  0.00484  3.967893  0.004  0.114961  0.004052  3.985735  0.004  0.05231  0.102108  0.005791  3.955911  0.005
C  C67  1  0.05773749  0.96533295  0.67326485  1  0.137887  0.003063  3.712815  0.003  0.107192  0.004842  3.967979  0.004  0.114851  0.004052  3.985826  0.004  0.052276  0.102001  0.005792  3.955992  0.005
C  C68  1  0.81550183  0.06662745  0.40984313  1  -0.160786  -0.002492  3.703656  -0.001  -0.179833  -0.001659  3.955343  -0.001  -0.187953  -0.002294  3.977262  -0.001  -0.081192  -0.174763  -0.001238  3.941196  -0.001
C  C69  1  0.18449238  0.93337349  0.59015770  1  -0.160718  -0.002558  3.703641  -0.001  -0.17973  -0.001661  3.955299  -0.001  -0.187849  -0.002294  3.977219  -0.001  -0.081164  -0.174663  -0.001238  3.94115  -0.001
N  N70  1  0.37056598  0.85025993  0.95888823  1  -0.334111  0.023991  3.229011  0.012  -0.266444  0.029012  3.502521  0.013  -0.28558  0.024762  3.5171  0.01  -0.32463  -0.253171  0.03324  3.492826  0.017
N  N71  1  0.62943464  0.14973772  0.04111040  1  -0.334156  0.023995  3.228814  0.012  -0.266459  0.02901  3.502276  0.013  -0.285603  0.024761  3.516858  0.01  -0.324601  -0.253184  0.033238  3.49259  0.017
N  N72  1  0.00875773  0.90816147  0.27498583  1  -0.33006  0.024606  3.238712  0.013  -0.261613  0.028465  3.510628  0.013  -0.281439  0.025321  3.526823  0.01  -0.317484  -0.247647  0.031407  3.499799  0.015
N  N73  1  0.99124040  0.09183733  0.72501763  1  -0.329971  0.024597  3.238697  0.013  -0.261543  0.028465  3.510633  0.013  -0.281371  0.025321  3.526821  0.01  -0.317436  -0.247577  0.031408  3.499806  0.015
O  O74  1  0.86513546  0.89474117  0.91055983  1  -0.637748  0.040117  2.05711  0.027  -0.571852  0.049699  2.325705  0.033  -0.601926  0.043234  2.309961  0.027  -0.307909  -0.548934  0.056362  2.334874  0.039
O  O75  1  0.13486236  0.10526085  0.08943939  1  -0.637793  0.040112  2.057199  0.027  -0.57188  0.049698  2.325776  0.033  -0.601949  0.043233  2.310021  0.027  -0.30789  -0.548959  0.056361  2.334936  0.039
O  O76  1  0.08648270  0.82140170  0.98797661  1  -0.657958  0.037034  2.1188  0.021  -0.596545  0.048623  2.414498  0.027  -0.627505  0.042514  2.397604  0.022  -0.315295  -0.573338  0.054611  2.4258  0.033
O  O77  1  0.91351086  0.17860579  0.01202416  1  -0.657944  0.037028  2.118816  0.021  -0.596573  0.04862  2.414567  0.027  -0.627538  0.042514  2.397675  0.022  -0.315323  -0.573367  0.054607  2.425872  0.033
O  O78  1  0.35387213  0.81556749  0.26096245  1  -0.632595  0.026717  1.971817  0.02  -0.576414  0.033647  2.216515  0.024  -0.605755  0.029419  2.206986  0.021  -0.308914  -0.553565  0.037674  2.22196  0.028
O  O79  1  0.64612795  0.18443893  0.73903855  1  -0.632553  0.026711  1.971927  0.02  -0.576406  0.033646  2.216656  0.024  -0.605748  0.029419  2.207125  0.021  -0.308949  -0.553551  0.037675  2.222101  0.028
O  O80  1  0.28475483  0.64478988  0.21874912  1  -0.635471  0.023248  1.954614  0.017  -0.582914  0.030199  2.198014  0.022  -0.611883  0.026598  2.188537  0.019  -0.313539  -0.560707  0.033478  2.203702  0.025
O  O81  1  0.71525458  0.35521105  0.78124779  1  -0.635486  0.023268  1.954642  0.017  -0.582923  0.030199  2.198026  0.022  -0.61188  0.026599  2.18852  0.019  -0.313538  -0.560713  0.033479  2.20372  0.025
