# generated using pymatgen
data_KH3C2NO2
_symmetry_space_group_name_H-M   'P 1'
_cell_length_a   7.23758838
_cell_length_b   13.56152751
_cell_length_c   23.33343411
_cell_angle_alpha   90.00019296
_cell_angle_beta   89.99916264
_cell_angle_gamma   89.99996557
_symmetry_Int_Tables_number   1
_chemical_formula_structural   KH3C2NO2
_chemical_formula_sum   'K16 H48 C32 N16 O32'
_cell_volume   2290.24081527
_cell_formula_units_Z   16
loop_
 _symmetry_equiv_pos_site_id
 _symmetry_equiv_pos_as_xyz
  1  'x, y, z'
loop_
 _atom_site_type_symbol
 _atom_site_label
 _atom_site_symmetry_multiplicity
 _atom_site_fract_x
 _atom_site_fract_y
 _atom_site_fract_z
 _atom_site_occupancy
 _atom_site_pbe_bader_charge
 _atom_site_pbe_bader_spin_density
 _atom_site_pbe_cm5_charge
 _atom_site_pbe_ddec_charge
 _atom_site_pbe_ddec_spin_density
 _atom_site_pbe_ddec_sum_bond_order
 _atom_site_pbe_magmom
K  K0  1  0.59718514  0.96913048  0.79361961  1  0.88074  0  0.857162  0.851695  0  0.700095  0
K  K1  1  0.90283011  0.46913198  0.20637867  1  0.880717  0  0.857173  0.851708  0  0.700058  0
K  K2  1  0.09718835  0.03086727  0.70637762  1  0.880709  0  0.857143  0.851698  0  0.700068  0
K  K3  1  0.40283826  0.53086650  0.29362592  1  0.880716  0  0.857182  0.851705  0  0.700064  0
K  K4  1  0.40282681  0.03086505  0.20637466  1  0.880738  0  0.857164  0.851695  0  0.700074  0
K  K5  1  0.09714730  0.53086134  0.79363059  1  0.880718  0  0.857164  0.851692  0  0.70007  0
K  K6  1  0.90282912  0.96913564  0.29363422  1  0.880689  0  0.857182  0.851702  0  0.700092  0
K  K7  1  0.59715572  0.46913862  0.70636878  1  0.880714  0  0.857159  0.851704  0  0.700053  0
K  K8  1  0.42315892  0.28436773  0.81221024  1  0.86321  0  0.874195  0.836308  0  0.747758  0
K  K9  1  0.07683837  0.78436940  0.18778650  1  0.86327  0  0.874161  0.836326  0  0.747686  0
K  K10  1  0.92316239  0.71563066  0.68778679  1  0.863244  0  0.874168  0.836307  0  0.747726  0
K  K11  1  0.57683935  0.21563065  0.31221656  1  0.863284  0  0.874179  0.836367  0  0.747615  0
K  K12  1  0.57684474  0.71563002  0.18778188  1  0.863242  0  0.874156  0.836351  0  0.747621  0
K  K13  1  0.92315562  0.21563056  0.81221719  1  0.863256  0  0.874159  0.836343  0  0.747659  0
K  K14  1  0.07684541  0.28436856  0.31221904  1  0.863268  0  0.87417  0.836334  0  0.747657  0
K  K15  1  0.42315878  0.78436783  0.68777985  1  0.863264  0  0.874137  0.836347  0  0.74762  0
H  H16  1  0.75677819  0.64193449  0.86763889  1  0.091609  0  0.129951  0.090396  0  0.993829  0
H  H17  1  0.74320015  0.14193856  0.13236646  1  0.091359  0  0.129947  0.090339  0  0.993776  0
H  H18  1  0.25678587  0.35806321  0.63235718  1  0.090837  0  0.129961  0.090451  0  0.993675  0
H  H19  1  0.24320441  0.85805923  0.36763971  1  0.091439  0  0.129928  0.090373  0  0.993686  0
H  H20  1  0.24320198  0.35806030  0.13236137  1  0.09145  0  0.12993  0.090358  0  0.993684  0
H  H21  1  0.25680627  0.85805992  0.86763852  1  0.091349  0  0.1299  0.090259  0  0.993798  0
H  H22  1  0.74320397  0.64193970  0.36764136  1  0.09143  0  0.129929  0.090312  0  0.9937  0
H  H23  1  0.75682135  0.14193926  0.63235841  1  0.091143  0  0.129901  0.090301  0  0.993787  0
H  H24  1  0.49503261  0.73986461  0.90476399  1  0.032474  0  0.098157  0.095618  0  0.982818  0
H  H25  1  0.00494401  0.23986558  0.09523653  1  0.032669  0  0.098189  0.095627  0  0.982926  0
H  H26  1  0.99503134  0.26013376  0.59523443  1  0.032454  0  0.098143  0.095591  0  0.982901  0
H  H27  1  0.50495239  0.76013080  0.40476600  1  0.032626  0  0.098148  0.095552  0  0.982942  0
H  H28  1  0.50495585  0.26013314  0.09523413  1  0.032646  0  0.098174  0.095582  0  0.982927  0
H  H29  1  0.99505965  0.76013290  0.90476673  1  0.032614  0  0.098161  0.095547  0  0.982889  0
H  H30  1  0.00495298  0.73986841  0.40476754  1  0.032626  0  0.09816  0.095586  0  0.982881  0
H  H31  1  0.49507338  0.23987137  0.59523340  1  0.032282  0  0.098163  0.095581  0  0.982846  0
H  H32  1  0.33539027  0.65097045  0.88104465  1  0.032399  0  0.096309  0.08225  0  0.999203  0
H  H33  1  0.16458231  0.15097372  0.11895569  1  0.032141  0  0.096274  0.082248  0  0.999481  0
H  H34  1  0.83539053  0.34903313  0.61895364  1  0.032449  0  0.096298  0.082265  0  0.999285  0
H  H35  1  0.66459585  0.84902409  0.38104269  1  0.032176  0  0.096267  0.082246  0  0.999271  0
H  H36  1  0.66459266  0.34902656  0.11895304  1  0.03219  0  0.096328  0.082283  0  0.99931  0
H  H37  1  0.83541858  0.84902255  0.88104457  1  0.03229  0  0.096252  0.082185  0  0.999422  0
H  H38  1  0.16459655  0.65097567  0.38104662  1  0.032593  0  0.096303  0.082278  0  0.999299  0
H  H39  1  0.33542992  0.15098030  0.61895329  1  0.032429  0  0.096286  0.082233  0  0.999375  0
H  H40  1  0.47964955  0.52402843  0.94702463  1  0.028005  0  0.090827  0.116621  0  1.019597  0
H  H41  1  0.02032733  0.02403210  0.05297761  1  0.027974  0  0.090872  0.116682  0  1.019585  0
H  H42  1  0.97965829  0.47596774  0.55297172  1  0.028005  0  0.090872  0.116686  0  1.019649  0
H  H43  1  0.52034451  0.97596944  0.44702271  1  0.02806  0  0.090849  0.116661  0  1.019538  0
H  H44  1  0.52033200  0.47596711  0.05297349  1  0.027993  0  0.090862  0.116665  0  1.019648  0
H  H45  1  0.97966527  0.97596564  0.94702480  1  0.028026  0  0.090866  0.116695  0  1.019605  0
H  H46  1  0.02033707  0.52403296  0.44702597  1  0.028001  0  0.090849  0.116696  0  1.019612  0
H  H47  1  0.47968264  0.02404158  0.55297112  1  0.028212  0  0.090918  0.116755  0  1.019629  0
H  H48  1  0.64139203  0.61295282  0.97103410  1  0.04822  0  0.085999  0.109372  0  1.004299  0
H  H49  1  0.85859049  0.11295331  0.02896647  1  0.048107  0  0.085998  0.109355  0  1.004321  0
H  H50  1  0.14138798  0.38704123  0.52896249  1  0.048261  0  0.086018  0.109415  0  1.004242  0
H  H51  1  0.35859813  0.88704739  0.47103703  1  0.048077  0  0.08601  0.109405  0  1.004171  0
H  H52  1  0.35859228  0.38704419  0.02896359  1  0.048092  0  0.086003  0.109367  0  1.004234  0
H  H53  1  0.14140488  0.88704665  0.97103850  1  0.048013  0  0.085998  0.109342  0  1.004235  0
H  H54  1  0.85859634  0.61295283  0.47103777  1  0.048147  0  0.086015  0.109428  0  1.004284  0
H  H55  1  0.64140829  0.11296363  0.52895809  1  0.047861  0  0.085967  0.109356  0  1.004253  0
H  H56  1  0.40247368  0.62802642  0.98646231  1  0.022891  0  0.089449  0.115884  0  1.000732  0
H  H57  1  0.09750031  0.12803059  0.01353970  1  0.023104  0  0.089392  0.115849  0  1.000898  0
H  H58  1  0.90247612  0.37196903  0.51353611  1  0.022827  0  0.089491  0.115987  0  1.000726  0
H  H59  1  0.59752128  0.87196872  0.48646112  1  0.022936  0  0.089442  0.115952  0  1.000669  0
H  H60  1  0.59750649  0.37197059  0.01353710  1  0.023003  0  0.089431  0.115901  0  1.000794  0
H  H61  1  0.90249229  0.87196790  0.98646227  1  0.022967  0  0.089408  0.115889  0  1.000768  0
H  H62  1  0.09751234  0.62803019  0.48646373  1  0.022939  0  0.089436  0.115951  0  1.000707  0
H  H63  1  0.40251277  0.12804230  0.51353700  1  0.023024  0  0.089481  0.11594  0  1.000811  0
C  C64  1  0.59941804  0.69075993  0.79604889  1  1.620344  0  0.189872  0.617661  0  4.2102  0
C  C65  1  0.90057129  0.19075256  0.20395741  1  1.620491  0  0.189892  0.617654  0  4.210414  0
C  C66  1  0.09942379  0.30923856  0.70394875  1  1.621059  0  0.18992  0.617686  0  4.210158  0
C  C67  1  0.40056794  0.80925108  0.29604847  1  1.62099  0  0.189837  0.617563  0  4.210586  0
C  C68  1  0.40056351  0.30924961  0.20395180  1  1.621038  0  0.189856  0.617579  0  4.210276  0
C  C69  1  0.09944203  0.80924076  0.79605142  1  1.621181  0  0.189804  0.617597  0  4.210535  0
C  C70  1  0.90056191  0.69075108  0.29605194  1  1.620506  0  0.189972  0.617844  0  4.210319  0
C  C71  1  0.59945644  0.19075921  0.70394922  1  1.620761  0  0.189784  0.617491  0  4.210651  0
C  C72  1  0.61502002  0.62983775  0.85191412  1  0.282818  0  0.018549  -0.104702  0  3.832349  0
C  C73  1  0.88495695  0.12984113  0.14808863  1  0.282768  0  0.01864  -0.104426  0  3.832198  0
C  C74  1  0.11502695  0.37016074  0.64808216  1  0.283409  0  0.018569  -0.104756  0  3.832411  0
C  C75  1  0.38496056  0.87016031  0.35191604  1  0.282568  0  0.018623  -0.104574  0  3.832391  0
C  C76  1  0.38496153  0.37016000  0.14808443  1  0.282588  0  0.01867  -0.104497  0  3.832292  0
C  C77  1  0.11504809  0.87015809  0.85191592  1  0.282548  0  0.018702  -0.104407  0  3.832215  0
C  C78  1  0.88496427  0.62984070  0.35191938  1  0.2834  0  0.018651  -0.104401  0  3.832216  0
C  C79  1  0.61506382  0.12984408  0.64808079  1  0.283416  0  0.018709  -0.104296  0  3.832079  0
C  C80  1  0.47619367  0.66036470  0.89798870  1  0.002173  0  -0.1599  -0.120383  0  3.956991  0
C  C81  1  0.02378028  0.16036497  0.10201381  1  0.002439  0  -0.160072  -0.120689  0  3.957739  0
C  C82  1  0.97619060  0.33963442  0.60201024  1  0.002238  0  -0.159906  -0.120391  0  3.957211  0
C  C83  1  0.52379026  0.83963362  0.39798821  1  0.002415  0  -0.159951  -0.120387  0  3.957147  0
C  C84  1  0.52378926  0.33963379  0.10201028  1  0.00242  0  -0.160021  -0.120426  0  3.957309  0
C  C85  1  0.97622200  0.83963352  0.89798860  1  0.002416  0  -0.159929  -0.120333  0  3.957332  0
C  C86  1  0.02379233  0.66036628  0.39799088  1  0.002062  0  -0.15997  -0.120428  0  3.957117  0
C  C87  1  0.47623135  0.16036855  0.60200862  1  0.002683  0  -0.159991  -0.120474  0  3.957313  0
C  C88  1  0.50113440  0.60335579  0.95370349  1  -0.090584  0  -0.244656  -0.360283  0  3.988374  0
C  C89  1  0.99884122  0.10335708  0.04629878  1  -0.090655  0  -0.24459  -0.360212  0  3.988606  0
C  C90  1  0.00113366  0.39663978  0.54629503  1  -0.090598  0  -0.244754  -0.360504  0  3.988558  0
C  C91  1  0.49885520  0.89664211  0.45370494  1  -0.09056  0  -0.244617  -0.360406  0  3.988143  0
C  C92  1  0.49884715  0.39664122  0.04629592  1  -0.090626  0  -0.244636  -0.360343  0  3.988518  0
C  C93  1  0.00115138  0.89663993  0.95370448  1  -0.090529  0  -0.244609  -0.360308  0  3.988381  0
C  C94  1  0.99885065  0.60335871  0.45370609  1  -0.090661  0  -0.244636  -0.360504  0  3.988509  0
C  C95  1  0.50116919  0.10336522  0.54629275  1  -0.090693  0  -0.244729  -0.360469  0  3.988583  0
N  N96  1  0.60345159  0.52354512  0.84014552  1  -0.076054  0  -0.076174  0.32774  0  3.976995  0
N  N97  1  0.89653518  0.02354635  0.15985573  1  -0.07568  0  -0.076108  0.327814  0  3.977066  0
N  N98  1  0.10345784  0.47645189  0.65985167  1  -0.075772  0  -0.076075  0.327836  0  3.977099  0
N  N99  1  0.39653230  0.97645213  0.34014845  1  -0.075231  0  -0.07615  0.327756  0  3.977119  0
N  N100  1  0.39653134  0.47645042  0.15985260  1  -0.07548  0  -0.076154  0.32783  0  3.977008  0
N  N101  1  0.10347400  0.97645140  0.84014753  1  -0.07534  0  -0.076227  0.327815  0  3.976942  0
N  N102  1  0.89653477  0.52355101  0.34014902  1  -0.075789  0  -0.076112  0.327829  0  3.977076  0
N  N103  1  0.60348241  0.02355151  0.65984881  1  -0.075603  0  -0.076125  0.327929  0  3.977133  0
N  N104  1  0.75547169  0.47277650  0.84804238  1  0.107812  0  -0.189294  -0.102635  0  3.456952  0
N  N105  1  0.74451177  0.97277644  0.15196148  1  0.107566  0  -0.189387  -0.102758  0  3.457199  0
N  N106  1  0.25547962  0.52722047  0.65195541  1  0.107606  0  -0.189345  -0.102696  0  3.456866  0
N  N107  1  0.24450416  0.02722061  0.34804126  1  0.107332  0  -0.18934  -0.102709  0  3.456859  0
N  N108  1  0.24451262  0.52721608  0.15196131  1  0.107194  0  -0.189252  -0.102667  0  3.456734  0
N  N109  1  0.25549603  0.02722057  0.84803536  1  0.106792  0  -0.189355  -0.10276  0  3.457054  0
N  N110  1  0.74451574  0.47278392  0.34803842  1  0.107494  0  -0.189329  -0.102691  0  3.456927  0
N  N111  1  0.75550226  0.97278008  0.65196201  1  0.107081  0  -0.189483  -0.102978  0  3.457335  0
O  O112  1  0.55581078  0.78039882  0.80169419  1  -1.229002  0  -0.4806  -0.660349  0  2.195379  0
O  O113  1  0.94419087  0.28039879  0.19830628  1  -1.228432  0  -0.480631  -0.660401  0  2.195089  0
O  O114  1  0.05581553  0.21960410  0.69830150  1  -1.229099  0  -0.480601  -0.660305  0  2.19546  0
O  O115  1  0.44418184  0.71959821  0.30169640  1  -1.228827  0  -0.48071  -0.660531  0  2.194988  0
O  O116  1  0.44418873  0.21959745  0.19830264  1  -1.228865  0  -0.480707  -0.660537  0  2.194893  0
O  O117  1  0.05582522  0.71959970  0.80169526  1  -1.229034  0  -0.480633  -0.660365  0  2.19526  0
O  O118  1  0.94418675  0.78040618  0.30169962  1  -1.228969  0  -0.480727  -0.660619  0  2.194862  0
O  O119  1  0.55584116  0.28039659  0.69829915  1  -1.228904  0  -0.480539  -0.66028  0  2.19541  0
O  O120  1  0.63647848  0.64800502  0.74889968  1  -1.230088  0  -0.551873  -0.722817  0  2.2525  0
O  O121  1  0.86351781  0.14800531  0.25110054  1  -1.230736  0  -0.551839  -0.722763  0  2.253088  0
O  O122  1  0.13647643  0.35199420  0.75109865  1  -1.230625  0  -0.551907  -0.722887  0  2.252479  0
O  O123  1  0.36352354  0.85199318  0.24890380  1  -1.230722  0  -0.551716  -0.72258  0  2.253302  0
O  O124  1  0.36351274  0.35199494  0.25109758  1  -1.230806  0  -0.551759  -0.722644  0  2.25309  0
O  O125  1  0.13649966  0.85199244  0.74890058  1  -1.230724  0  -0.551785  -0.722822  0  2.252807  0
O  O126  1  0.86350374  0.64800576  0.24890675  1  -1.230655  0  -0.551819  -0.722822  0  2.253259  0
O  O127  1  0.63650361  0.14800604  0.75109860  1  -1.230754  0  -0.55179  -0.722809  0  2.252918  0
O  O128  1  0.44657657  0.48573667  0.82285477  1  -0.69233  0  -0.418894  -0.616063  0  2.033189  0
O  O129  1  0.05340389  0.98573607  0.17714666  1  -0.692442  0  -0.418973  -0.616182  0  2.033434  0
O  O130  1  0.94658493  0.51426098  0.67714387  1  -0.692486  0  -0.418955  -0.616122  0  2.03336  0
O  O131  1  0.55340462  0.01426473  0.32285865  1  -0.692483  0  -0.418946  -0.616096  0  2.033353  0
O  O132  1  0.55341604  0.51426108  0.17714292  1  -0.692404  0  -0.418988  -0.616215  0  2.033167  0
O  O133  1  0.94659147  0.01425947  0.82285703  1  -0.692341  0  -0.418923  -0.61617  0  2.033251  0
O  O134  1  0.05342149  0.48573971  0.32285896  1  -0.692438  0  -0.419  -0.616203  0  2.033195  0
O  O135  1  0.44660042  0.98574556  0.67713990  1  -0.692423  0  -0.418948  -0.616232  0  2.033199  0
O  O136  1  0.74046700  0.37935410  0.83733151  1  -0.694619  0  -0.409042  -0.556259  0  2.259448  0
O  O137  1  0.75951934  0.87935631  0.16267002  1  -0.694579  0  -0.408932  -0.55615  0  2.259673  0
O  O138  1  0.24048261  0.62064287  0.66266806  1  -0.694497  0  -0.409029  -0.556266  0  2.259388  0
O  O139  1  0.25951626  0.12064073  0.33733179  1  -0.69475  0  -0.409032  -0.556258  0  2.259377  0
O  O140  1  0.25951455  0.62064143  0.16267432  1  -0.694466  0  -0.40907  -0.556313  0  2.259099  0
O  O141  1  0.24049261  0.12064365  0.83732296  1  -0.694231  0  -0.408984  -0.556218  0  2.259453  0
O  O142  1  0.75952243  0.37936078  0.33732534  1  -0.694714  0  -0.409063  -0.556318  0  2.259293  0
O  O143  1  0.74049845  0.87935923  0.66267233  1  -0.694501  0  -0.408926  -0.556133  0  2.259474  0
