# generated using pymatgen
data_La2H40C52O19
_symmetry_space_group_name_H-M   'P 1'
_cell_length_a   7.39752120
_cell_length_b   14.46486926
_cell_length_c   16.97540000
_cell_angle_alpha   104.03828451
_cell_angle_beta   102.57070640
_cell_angle_gamma   90.00362608
_symmetry_Int_Tables_number   1
_chemical_formula_structural   La2H40C52O19
_chemical_formula_sum   'La2 H40 C52 O19'
_cell_volume   1717.26387949
_cell_formula_units_Z   1
loop_
 _symmetry_equiv_pos_site_id
 _symmetry_equiv_pos_as_xyz
  1  'x, y, z'
loop_
 _atom_site_type_symbol
 _atom_site_label
 _atom_site_symmetry_multiplicity
 _atom_site_fract_x
 _atom_site_fract_y
 _atom_site_fract_z
 _atom_site_occupancy
 _atom_site_hle17_bader_spin_density
 _atom_site_hle17_ddec_charge
 _atom_site_hle17_ddec_spin_density
 _atom_site_hle17_ddec_sum_bond_order
 _atom_site_hle17_magmom
 _atom_site_hse06_10hf_bader_spin_density
 _atom_site_hse06_10hf_ddec_charge
 _atom_site_hse06_10hf_ddec_spin_density
 _atom_site_hse06_10hf_ddec_sum_bond_order
 _atom_site_hse06_10hf_magmom
 _atom_site_hse06_bader_spin_density
 _atom_site_hse06_ddec_charge
 _atom_site_hse06_ddec_spin_density
 _atom_site_hse06_ddec_sum_bond_order
 _atom_site_hse06_magmom
 _atom_site_pbe_bader_charge
 _atom_site_pbe_bader_spin_density
 _atom_site_pbe_cm5_charge
 _atom_site_pbe_ddec_charge
 _atom_site_pbe_ddec_spin_density
 _atom_site_pbe_ddec_sum_bond_order
 _atom_site_pbe_magmom
La  La0  1  0.00540106  0.03591826  0.49955311  1  0  2.03439  0  1.921641  0  0  1.919461  0  2.438529  0  0  2.02436  0  2.342491  0  2.22674  0  1.451355  1.841789  0  2.50355  0
La  La1  1  0.50584036  0.96421892  0.50048107  1  0  2.034493  0  1.918636  0  0  1.919768  0  2.434928  0  0  2.024607  0  2.339099  0  2.225963  0  1.450359  1.841595  0  2.500814  0
H  H2  1  0.18848466  0.46673116  0.89469566  1  0  0.057225  0  0.917184  0  0  0.069845  0  0.980428  0  0  0.070835  0  0.979266  0  0.046557  0  0.099667  0.069023  0  0.981356  0
H  H3  1  0.29346451  0.53318191  0.10522968  1  0  0.057321  0  0.917835  0  0  0.069507  0  0.98125  0  0  0.070518  0  0.980087  0  0.049515  0  0.099563  0.068715  0  0.982139  0
H  H4  1  0.28760610  0.57302495  0.97216106  1  0  0.048704  0  0.93395  0  0  0.059326  0  1.001924  0  0  0.060354  0  1.000465  0  0.063437  0  0.098161  0.058481  0  1.003111  0
H  H5  1  0.31533049  0.42683958  0.02786930  1  0  0.048255  0  0.934849  0  0  0.059091  0  1.002485  0  0  0.060117  0  1.001022  0  0.044196  0  0.097783  0.058192  0  1.003731  0
H  H6  1  0.78342803  0.50482843  0.89473095  1  0  0.058217  0  0.929628  0  0  0.069336  0  0.995782  0  0  0.070341  0  0.994064  0  0.049132  0  0.102274  0.068578  0  0.997087  0
H  H7  1  0.88850715  0.49497473  0.10538909  1  0  0.056654  0  0.92972  0  0  0.068012  0  0.995591  0  0  0.069052  0  0.993786  0  0.048347  0  0.101998  0.067218  0  0.996936  0
H  H8  1  0.73857389  0.57984532  0.82305304  1  0  0.062137  0  0.912546  0  0  0.07604  0  0.972765  0  0  0.076599  0  0.971778  0  0.066353  0  0.105285  0.075617  0  0.973518  0
H  H9  1  0.91556749  0.42004134  0.17714915  1  0  0.06217  0  0.911667  0  0  0.07505  0  0.972905  0  0  0.075557  0  0.971962  0  0.05453  0  0.104958  0.074638  0  0.973646  0
H  H10  1  0.25224670  0.66402931  0.87292638  1  0  0.058414  0  0.91793  0  0  0.071868  0  0.979908  0  0  0.072524  0  0.978676  0  0.068964  0  0.103554  0.07134  0  0.980901  0
H  H11  1  0.37924746  0.33593872  0.12689790  1  0  0.059128  0  0.917031  0  0  0.071585  0  0.979862  0  0  0.072219  0  0.978665  0  0.050122  0  0.103831  0.071059  0  0.980837  0
H  H12  1  0.15400430  0.56078241  0.79156805  1  0  0.065627  0  0.922138  0  0  0.077749  0  0.985456  0  0  0.078413  0  0.984315  0  0.069364  0  0.107068  0.077228  0  0.986369  0
H  H13  1  0.36230903  0.43904858  0.20837669  1  0  0.065328  0  0.922137  0  0  0.077284  0  0.985397  0  0  0.077974  0  0.98425  0  0.063913  0  0.106789  0.076745  0  0.986292  0
H  H14  1  0.89437128  0.72619913  0.92735259  1  0  0.068268  0  0.913355  0  0  0.080205  0  0.973843  0  0  0.081156  0  0.972492  0  0.072339  0  0.106802  0.079459  0  0.974891  0
H  H15  1  0.96662515  0.27375462  0.07271340  1  0  0.069037  0  0.912639  0  0  0.080306  0  0.973101  0  0  0.081256  0  0.971775  0  0.069299  0  0.106872  0.079563  0  0.974159  0
H  H16  1  0.88335395  0.64943004  0.99522012  1  0  0.056997  0  0.935166  0  0  0.068294  0  1.001752  0  0  0.068962  0  1.000473  0  0.063742  0  0.103049  0.067674  0  1.002881  0
H  H17  1  0.88796410  0.35054298  0.00483248  1  0  0.056921  0  0.934878  0  0  0.06725  0  1.00185  0  0  0.06797  0  1.000531  0  0.05709  0  0.102632  0.066677  0  1.00291  0
H  H18  1  0.33859937  0.64821599  0.75206709  1  0  0.09751  0  0.975688  0  0  0.106603  0  1.039056  0  0  0.110141  0  1.037588  0  0.065508  0  0.098377  0.104124  0  1.040152  0
H  H19  1  0.58665121  0.35168423  0.24772291  1  0  0.096361  0  0.976401  0  0  0.105503  0  1.039924  0  0  0.108941  0  1.038554  0  0.055982  0  0.097851  0.103033  0  1.04101  0
H  H20  1  0.45770226  0.72628478  0.65743619  1  0  0.104481  0  0.933523  0  0  0.114714  0  0.990438  0  0  0.118638  0  0.986855  0  0.074401  0  0.10938  0.111831  0  0.993102  0
H  H21  1  0.80063400  0.27370680  0.34230303  1  0  0.105529  0  0.933177  0  0  0.115797  0  0.990001  0  0  0.119739  0  0.986472  0  0.071885  0  0.109688  0.112895  0  0.992674  0
H  H22  1  0.96508395  0.88307469  0.62535298  1  0  0.106156  0  0.95967  0  0  0.111705  0  1.026886  0  0  0.114643  0  1.024803  0  0.095507  0  0.115056  0.109588  0  1.028367  0
H  H23  1  0.34039860  0.11694901  0.37477265  1  0  0.105368  0  0.959813  0  0  0.110978  0  1.027093  0  0  0.113823  0  1.025164  0  0.089731  0  0.114441  0.108921  0  1.028529  0
H  H24  1  0.84005586  0.80422580  0.71929778  1  0  0.118511  0  0.93088  0  0  0.129602  0  0.986497  0  0  0.133515  0  0.984572  0  0.079747  0  0.111311  0.126796  0  0.988035  0
H  H25  1  0.12128705  0.19558949  0.28078805  1  0  0.118638  0  0.931566  0  0  0.130015  0  0.986823  0  0  0.133922  0  0.984904  0  0.076494  0  0.111501  0.127213  0  0.988361  0
H  H26  1  0.41215239  0.78463830  0.13954743  1  0  0.109538  0  0.939341  0  0  0.12091  0  0.995996  0  0  0.124735  0  0.99433  0  0.063132  0  0.104686  0.118184  0  0.997319  0
H  H27  1  0.27244390  0.21526263  0.86050015  1  0  0.10908  0  0.939169  0  0  0.120028  0  0.996296  0  0  0.123768  0  0.994716  0  0.060228  0  0.104665  0.117362  0  0.997554  0
H  H28  1  0.39320207  0.88301688  0.27972409  1  0  0.108507  0  0.955084  0  0  0.116755  0  1.017009  0  0  0.119762  0  1.014609  0  0.120252  0  0.114312  0.114602  0  1.018693  0
H  H29  1  0.11330765  0.11702609  0.72031724  1  0  0.108698  0  0.955537  0  0  0.116642  0  1.017708  0  0  0.119739  0  1.015245  0  0.128348  0  0.114255  0.114402  0  1.019492  0
H  H30  1  0.80323242  0.89096564  0.19594583  1  0  0.104182  0  0.934119  0  0  0.115857  0  0.989155  0  0  0.119542  0  0.985952  0  0.081911  0  0.108733  0.113159  0  0.99151  0
H  H31  1  0.60697844  0.10926004  0.80409640  1  0  0.104352  0  0.933903  0  0  0.115653  0  0.989299  0  0  0.119309  0  0.986111  0  0.109182  0  0.108748  0.112985  0  0.9916  0
H  H32  1  0.81846950  0.79250999  0.05605259  1  0  0.101977  0  0.963422  0  0  0.11282  0  1.021664  0  0  0.116163  0  1.020579  0  0.067504  0  0.101241  0.110446  0  1.022556  0
H  H33  1  0.76215826  0.20759079  0.94404901  1  0  0.101062  0  0.96211  0  0  0.111992  0  1.020469  0  0  0.115314  0  1.019408  0  0.053713  0  0.100837  0.109617  0  1.021375  0
H  H34  1  0.52364302  0.45117836  0.80984720  1  0  0.091851  0  0.980054  0  0  0.100748  0  1.044894  0  0  0.104265  0  1.043344  0  0.045168  0  0.094371  0.098193  0  1.04616  0
H  H35  1  0.71370702  0.54892242  0.19014030  1  0  0.092045  0  0.980808  0  0  0.100854  0  1.045733  0  0  0.104366  0  1.044201  0  0.047851  0  0.094218  0.098316  0  1.046968  0
H  H36  1  0.27963627  0.32800922  0.72413924  1  0  0.099281  0  0.944663  0  0  0.108653  0  1.005927  0  0  0.112557  0  1.002367  0  0.0937  0  0.104821  0.10576  0  1.008608  0
H  H37  1  0.55567484  0.67223573  0.27590669  1  0  0.098363  0  0.944064  0  0  0.107649  0  1.005651  0  0  0.111447  0  1.002194  0  0.124695  0  0.104706  0.104814  0  1.008272  0
H  H38  1  0.65652936  0.20243269  0.57372348  1  0  0.09703  0  0.967249  0  0  0.104542  0  1.033322  0  0  0.106812  0  1.032296  0  0.093544  0  0.115486  0.102891  0  1.034099  0
H  H39  1  0.08299349  0.79760885  0.42628266  1  0  0.09676  0  0.967313  0  0  0.104185  0  1.033645  0  0  0.106418  0  1.032658  0  0.113468  0  0.115438  0.102557  0  1.034388  0
H  H40  1  0.90612067  0.32200393  0.66058000  1  0  0.12781  0  0.932366  0  0  0.137308  0  0.9907  0  0  0.141797  0  0.987759  0  0.12013  0  0.114037  0.134066  0  0.99299  0
H  H41  1  0.24555497  0.67791128  0.33935689  1  0  0.128353  0  0.932236  0  0  0.138106  0  0.990296  0  0  0.142508  0  0.987451  0  0.085001  0  0.114236  0.134909  0  0.992525  0
C  C42  1  0.02232467  0.59095803  0.89613647  1  0  0.026462  0  3.601715  0  0  0.042589  0  3.847116  0  0  0.039581  0  3.864406  0  0.06663  0  -0.022176  0.044733  0  3.834982  0
C  C43  1  0.12599611  0.40892934  0.10389896  1  0  0.028094  0  3.601966  0  0  0.042358  0  3.848224  0  0  0.039349  0  3.865516  0  0.066405  0  -0.021861  0.044463  0  3.836128  0
C  C44  1  0.15742681  0.52980170  0.94045685  1  0  0.044262  0  3.641637  0  0  -0.021161  0  3.913707  0  0  -0.014554  0  3.920571  0  0.424317  0  -0.069004  -0.025448  0  3.908897  0
C  C45  1  0.21672559  0.47005641  0.05950745  1  0  0.043347  0  3.643722  0  0  -0.021311  0  3.915458  0  0  -0.014715  0  3.922341  0  0.450899  0  -0.069127  -0.025588  0  3.910699  0
C  C46  1  0.83995228  0.53363513  0.85006167  1  0  0.050982  0  3.607282  0  0  -0.01547  0  3.877113  0  0  -0.007631  0  3.882954  0  0.415568  0  -0.060914  -0.020808  0  3.873072  0
C  C47  1  0.98981198  0.46622656  0.15005688  1  0  0.053559  0  3.606606  0  0  -0.011552  0  3.87557  0  0  -0.003612  0  3.881319  0  0.431487  0  -0.060557  -0.016859  0  3.871479  0
C  C48  1  0.12175644  0.62354391  0.83688210  1  0  0.049595  0  3.612791  0  0  -0.01902  0  3.885536  0  0  -0.010945  0  3.891044  0  0.404844  0  -0.06292  -0.024479  0  3.881712  0
C  C49  1  0.28480946  0.37629065  0.16303943  1  0  0.048147  0  3.611874  0  0  -0.018431  0  3.884201  0  0  -0.010435  0  3.889749  0  0.422941  0  -0.063042  -0.023838  0  3.880304  0
C  C50  1  0.97112547  0.67580008  0.95968991  1  0  0.048069  0  3.602528  0  0  -0.01923  0  3.873557  0  0  -0.011043  0  3.878573  0  0.392351  0  -0.062753  -0.024638  0  3.869929  0
C  C51  1  0.01114756  0.32412941  0.04037876  1  0  0.045055  0  3.604996  0  0  -0.019342  0  3.873568  0  0  -0.011256  0  3.878677  0  0.408874  0  -0.062893  -0.024798  0  3.869977  0
C  C52  1  0.08166479  0.72249132  0.74228066  1  0  0.291424  0  3.802749  0  0  0.282336  0  4.05965  0  0  0.296071  0  4.075745  0  0.438452  0  0.089816  0.273077  0  4.048621  0
C  C53  1  0.33968357  0.27732040  0.25761967  1  0  0.291648  0  3.80072  0  0  0.282165  0  4.058632  0  0  0.295795  0  4.074806  0  0.422199  0  0.090047  0.272913  0  4.047579  0
C  C54  1  0.25595783  0.69974130  0.72509772  1  0  -0.226522  0  3.801805  0  0  -0.245232  0  4.05281  0  0  -0.254456  0  4.074409  0  -0.06523  0  -0.117264  -0.239182  0  4.03818  0
C  C55  1  0.53113868  0.30013537  0.27473679  1  0  -0.223223  0  3.79858  0  0  -0.241634  0  4.049562  0  0  -0.250814  0  4.071594  0  -0.055556  0  -0.115596  -0.235615  0  4.034901  0
C  C56  1  0.32335316  0.74334497  0.67201517  1  0  -0.02464  0  3.759936  0  0  -0.047814  0  4.004063  0  0  -0.043606  0  4.022969  0  0.027298  0  -0.075948  -0.05025  0  3.991148  0
C  C57  1  0.65174370  0.25658023  0.32780733  1  0  -0.027657  0  3.760673  0  0  -0.050883  0  4.005013  0  0  -0.047787  0  4.023115  0  0.044515  0  -0.076979  -0.053312  0  3.992078  0
C  C58  1  0.22060253  0.81025108  0.63664134  1  0  -0.101216  0  3.788013  0  0  -0.081653  0  4.022944  0  0  -0.09357  0  4.046341  0  -0.000773  0  -0.026748  -0.074036  0  4.007389  0
C  C59  1  0.58455514  0.18973408  0.36329329  1  0  -0.100611  0  3.789111  0  0  -0.081377  0  4.024409  0  0  -0.089791  0  4.042926  0  -0.032585  0  -0.026838  -0.073689  0  4.008778  0
C  C60  1  0.04589614  0.83198689  0.65384231  1  0  -0.020616  0  3.716689  0  0  -0.045261  0  3.966377  0  0  -0.04113  0  3.985454  0  0.024686  0  -0.06945  -0.047675  0  3.953398  0
C  C61  1  0.39268117  0.16798613  0.34621266  1  0  -0.020181  0  3.716134  0  0  -0.04488  0  3.96625  0  0  -0.041765  0  3.984575  0  -0.06756  0  -0.069002  -0.047355  0  3.953191  0
C  C62  1  0.97580271  0.78815126  0.70588571  1  0  -0.184942  0  3.735621  0  0  -0.206752  0  3.988596  0  0  -0.21464  0  4.007528  0  -0.042109  0  -0.099309  -0.201635  0  3.975885  0
C  C63  1  0.27042027  0.21169971  0.29413473  1  0  -0.185501  0  3.736325  0  0  -0.207242  0  3.98968  0  0  -0.215182  0  4.008915  0  0.077827  0  -0.099599  -0.202144  0  3.976998  0
C  C64  1  0.11695496  0.78069211  0.08980885  1  0  0.292711  0  3.801236  0  0  0.282464  0  4.060259  0  0  0.296663  0  4.075532  0  0.436568  0  0.087803  0.272881  0  4.049808  0
C  C65  1  0.02692458  0.21932730  0.91026091  1  0  0.290237  0  3.803225  0  0  0.280324  0  4.062037  0  0  0.294519  0  4.077293  0  0.45321  0  0.087185  0.270704  0  4.051612  0
C  C66  1  0.27939695  0.80871514  0.15235593  1  0  -0.194295  0  3.751024  0  0  -0.215221  0  4.005889  0  0  -0.223423  0  4.024932  0  0.01363  0  -0.105447  -0.209923  0  3.993116  0
C  C67  1  0.12681557  0.19128358  0.84769856  1  0  -0.191739  0  3.748472  0  0  -0.2125  0  4.002888  0  0  -0.220615  0  4.021954  0  0.019024  0  -0.104442  -0.207261  0  3.990111  0
C  C68  1  0.26850561  0.86414667  0.23016440  1  0  -0.022236  0  3.727245  0  0  -0.048359  0  3.978416  0  0  -0.043838  0  3.997306  0  -0.066885  0  -0.072294  -0.05102  0  3.965548  0
C  C69  1  0.03808255  0.13594554  0.76986477  1  0  -0.023386  0  3.728838  0  0  -0.049103  0  3.979447  0  0  -0.044694  0  3.998288  0  -0.054046  0  -0.072497  -0.051712  0  3.966645  0
C  C70  1  0.09627021  0.89293053  0.24655290  1  0  -0.102069  0  3.788002  0  0  -0.083152  0  4.025785  0  0  -0.095542  0  4.050578  0  0.011516  0  -0.027767  -0.075272  0  4.009341  0
C  C71  1  0.84943670  0.10724876  0.75348301  1  0  -0.102024  0  3.786205  0  0  -0.082905  0  4.02428  0  0  -0.095194  0  4.048926  0  -0.077767  0  -0.028139  -0.075043  0  4.007852  0
C  C72  1  0.93586360  0.86723711  0.18284997  1  0  -0.02531  0  3.753887  0  0  -0.049779  0  4.000816  0  0  -0.045455  0  4.019942  0  -0.029527  0  -0.077254  -0.052244  0  3.987657  0
C  C73  1  0.75266908  0.13299643  0.81720307  1  0  -0.025496  0  3.753249  0  0  -0.049511  0  3.999953  0  0  -0.045194  0  4.019031  0  -0.004332  0  -0.076697  -0.051981  0  3.98681  0
C  C74  1  0.94470242  0.81142302  0.10473300  1  0  -0.223918  0  3.79173  0  0  -0.24216  0  4.043304  0  0  -0.251071  0  4.064446  0  -0.035565  0  -0.115475  -0.236344  0  4.028992  0
C  C75  1  0.83968110  0.18869704  0.89534091  1  0  -0.222114  0  3.792484  0  0  -0.240655  0  4.043887  0  0  -0.249545  0  4.065028  0  -0.02117  0  -0.115103  -0.234856  0  4.029612  0
C  C76  1  0.07752793  0.94618520  0.33029064  1  0  0.668074  0  3.891542  0  0  0.626583  0  4.181791  0  0  0.663025  0  4.176102  0  1.513393  0  0.216367  0.601439  0  4.184954  0
C  C77  1  0.74714689  0.05396269  0.66974615  1  0  0.667105  0  3.89197  0  0  0.624401  0  4.183573  0  0  0.660844  0  4.177837  0  1.518924  0  0.215074  0.599284  0  4.186724  0
C  C78  1  0.73140234  0.39409240  0.74063753  1  0  0.292638  0  3.795938  0  0  0.28192  0  4.053972  0  0  0.29559  0  4.069953  0  0.4396  0  0.090769  0.272642  0  4.042994  0
C  C79  1  0.99068894  0.60591060  0.25936374  1  0  0.293528  0  3.796492  0  0  0.28349  0  4.053776  0  0  0.297238  0  4.069679  0  0.424555  0  0.090913  0.274178  0  4.042852  0
C  C80  1  0.55449265  0.39660543  0.75860813  1  0  -0.23069  0  3.804878  0  0  -0.248402  0  4.05747  0  0  -0.25724  0  4.078923  0  -0.016297  0  -0.119649  -0.242568  0  4.042994  0
C  C81  1  0.79582955  0.60345752  0.24136557  1  0  -0.232493  0  3.80781  0  0  -0.250439  0  4.06028  0  0  -0.259271  0  4.081666  0  -0.025767  0  -0.119716  -0.244617  0  4.045818  0
C  C82  1  0.41693103  0.32772088  0.71040977  1  0  -0.03654  0  3.76506  0  0  -0.059281  0  4.010049  0  0  -0.0555  0  4.029143  0  -0.04689  0  -0.08122  -0.061434  0  3.996995  0
C  C83  1  0.70667509  0.67242772  0.28959581  1  0  -0.032996  0  3.76305  0  0  -0.055775  0  4.007746  0  0  -0.051873  0  4.026875  0  -0.056352  0  -0.080323  -0.058001  0  3.994657  0
C  C84  1  0.45235591  0.25696636  0.64381607  1  0  -0.0954  0  3.779809  0  0  -0.076111  0  4.015459  0  0  -0.087473  0  4.038766  0  -0.034275  0  -0.025616  -0.068863  0  3.999935  0
C  C85  1  0.80876613  0.74313228  0.35620477  1  0  -0.097672  0  3.78037  0  0  -0.077569  0  4.015098  0  0  -0.089012  0  4.038482  0  -0.029986  0  -0.026506  -0.070264  0  3.999522  0
C  C86  1  0.62902075  0.25667730  0.62588902  1  0  -0.023799  0  3.727238  0  0  -0.049929  0  3.978996  0  0  -0.046348  0  3.999101  0  -0.017034  0  -0.070301  -0.052005  0  3.965306  0
C  C87  1  0.00329992  0.74336424  0.37413253  1  0  -0.02274  0  3.725391  0  0  -0.049165  0  3.977375  0  0  -0.045505  0  3.997428  0  -0.033211  0  -0.069915  -0.051282  0  3.963724  0
C  C88  1  0.76832762  0.32376327  0.67388292  1  0  -0.174645  0  3.713074  0  0  -0.195433  0  3.967537  0  0  -0.202917  0  3.985924  0  -0.018188  0  -0.093435  -0.19054  0  3.95521  0
C  C89  1  0.09448482  0.67621975  0.32610404  1  0  -0.175149  0  3.711302  0  0  -0.196609  0  3.96609  0  0  -0.20403  0  3.984435  0  0.023139  0  -0.093551  -0.191751  0  3.953779  0
C  C90  1  0.30572345  0.18307359  0.59484678  1  0  0.671938  0  3.874532  0  0  0.630259  0  4.161807  0  0  0.667203  0  4.155447  0  1.522751  0  0.216598  0.604819  0  4.16536  0
C  C91  1  0.71114657  0.81709428  0.40516996  1  0  0.673235  0  3.871009  0  0  0.631396  0  4.158006  0  0  0.668366  0  4.15163  0  1.48565  0  0.217605  0.605944  0  4.161555  0
C  C92  1  0.30003506  0.85681742  0.58271496  1  0  0.682193  0  3.869563  0  0  0.639472  0  4.160245  0  0  0.676837  0  4.152609  0  1.486985  0  0.215921  0.613654  0  4.164813  0
C  C93  1  0.71802799  0.14325338  0.41720283  1  0  0.682458  0  3.868674  0  0  0.640135  0  4.158821  0  0  0.676515  0  4.151134  0  1.509539  0  0.215772  0.614288  0  4.163389  0
O  O94  1  0.22041592  0.96062102  0.39298991  1  0  -0.774741  0  2.061709  0  0  -0.72303  0  2.329804  0  0  -0.762524  0  2.321757  0  -1.235601  0  -0.431682  -0.694232  0  2.333924  0
O  O95  1  0.82743001  0.03961322  0.60708132  1  0  -0.772991  0  2.063504  0  0  -0.720787  0  2.331715  0  0  -0.760357  0  2.323866  0  -1.232319  0  -0.430242  -0.691971  0  2.335702  0
O  O96  1  0.92170313  0.97574345  0.34146729  1  0  -0.635075  0  1.956405  0  0  -0.594869  0  2.185674  0  0  -0.624588  0  2.178631  0  -1.168455  0  -0.35682  -0.573893  0  2.189878  0
O  O97  1  0.58022786  0.02424813  0.65855495  1  0  -0.635637  0  1.955738  0  0  -0.594871  0  2.18538  0  0  -0.62461  0  2.178324  0  -1.176653  0  -0.356959  -0.573862  0  2.18958  0
O  O98  1  0.44667439  0.82779304  0.55969837  1  0  -0.634315  0  1.904055  0  0  -0.595601  0  2.127269  0  0  -0.625745  0  2.118086  0  -1.167361  0  -0.369242  -0.574127  0  2.1329  0
O  O99  1  0.88770972  0.17217285  0.43997186  1  0  -0.634044  0  1.904404  0  0  -0.595479  0  2.127436  0  0  -0.625707  0  2.118718  0  -1.172607  0  -0.368505  -0.574053  0  2.133067  0
O  O100  1  0.21937554  0.92893444  0.55950291  1  0  -0.775587  0  2.071125  0  0  -0.725312  0  2.340624  0  0  -0.765248  0  2.331378  0  -1.228776  0  -0.442329  -0.696171  0  2.345468  0
O  O101  1  0.66054274  0.07131337  0.44067078  1  0  -0.776185  0  2.070824  0  0  -0.725699  0  2.339568  0  0  -0.765745  0  2.330834  0  -1.226965  0  -0.443038  -0.696584  0  2.34453  0
O  O102  1  0.34085697  0.11616962  0.53441739  1  0  -0.762421  0  2.060051  0  0  -0.712024  0  2.320629  0  0  -0.751535  0  2.314395  0  -1.220382  0  -0.426372  -0.683273  0  2.323462  0
O  O103  1  0.80665280  0.88395186  0.46563770  1  0  -0.762148  0  2.059843  0  0  -0.711584  0  2.320333  0  0  -0.751121  0  2.314196  0  -1.228154  0  -0.426232  -0.682826  0  2.323095  0
O  O104  1  0.14639833  0.18446821  0.61162079  1  0  -0.639101  0  1.941885  0  0  -0.597908  0  2.176893  0  0  -0.628097  0  2.168312  0  -1.177418  0  -0.355867  -0.576485  0  2.182075  0
O  O105  1  0.53506370  0.81576461  0.38833479  1  0  -0.640424  0  1.93936  0  0  -0.599527  0  2.174722  0  0  -0.629695  0  2.166069  0  -1.145065  0  -0.356923  -0.578067  0  2.179936  0
O  O106  1  0.00567358  0.68337628  0.79426337  1  0  -0.278629  0  2.30655  0  0  -0.20894  0  2.538162  0  0  -0.227182  0  2.539249  0  -1.08571  0  -0.177729  -0.196082  0  2.536898  0
O  O107  1  0.21161817  0.31632410  0.20561766  1  0  -0.278662  0  2.307481  0  0  -0.209846  0  2.539628  0  0  -0.227939  0  2.540618  0  -1.08473  0  -0.178582  -0.196988  0  2.538363  0
O  O108  1  0.87626398  0.45744630  0.78521640  1  0  -0.275939  0  2.318252  0  0  -0.20503  0  2.550626  0  0  -0.2235  0  2.552526  0  -1.081248  0  -0.175667  -0.191887  0  2.548731  0
O  O109  1  0.09095952  0.54249532  0.21480823  1  0  -0.277626  0  2.318752  0  0  -0.20684  0  2.55046  0  0  -0.225458  0  2.552388  0  -1.085475  0  -0.175778  -0.19368  0  2.548583  0
O  O110  1  0.13730618  0.72232717  0.01594951  1  0  -0.283226  0  2.306655  0  0  -0.212749  0  2.538802  0  0  -0.231103  0  2.539707  0  -1.077603  0  -0.180653  -0.199827  0  2.537655  0
O  O111  1  0.12114784  0.27757663  0.98415161  1  0  -0.281165  0  2.310092  0  0  -0.211113  0  2.541127  0  0  -0.229433  0  2.542072  0  -1.085812  0  -0.180245  -0.198117  0  2.539915  0
O  O112  1  0.07784261  0.49987517  0.99993248  1  0  -0.297754  0  2.271509  0  0  -0.225976  0  2.520605  0  0  -0.242018  0  2.523104  0  -1.073028  0  -0.228072  -0.214814  0  2.518505  0
