# generated using pymatgen
data_CuH16C20(NO)6
_symmetry_space_group_name_H-M   'P 1'
_cell_length_a   9.16856854
_cell_length_b   9.27897487
_cell_length_c   14.03535350
_cell_angle_alpha   83.28768289
_cell_angle_beta   78.62108458
_cell_angle_gamma   91.83675011
_symmetry_Int_Tables_number   1
_chemical_formula_structural   CuH16C20(NO)6
_chemical_formula_sum   'Cu2 H32 C40 N12 O12'
_cell_volume   1160.69820672
_cell_formula_units_Z   2
loop_
 _symmetry_equiv_pos_site_id
 _symmetry_equiv_pos_as_xyz
  1  'x, y, z'
loop_
 _atom_site_type_symbol
 _atom_site_label
 _atom_site_symmetry_multiplicity
 _atom_site_fract_x
 _atom_site_fract_y
 _atom_site_fract_z
 _atom_site_occupancy
 _atom_site_hle17_ddec_charge
 _atom_site_hle17_ddec_spin_density
 _atom_site_hle17_ddec_sum_bond_order
 _atom_site_hle17_magmom
 _atom_site_hse06_10hf_ddec_charge
 _atom_site_hse06_10hf_ddec_spin_density
 _atom_site_hse06_10hf_ddec_sum_bond_order
 _atom_site_hse06_10hf_magmom
 _atom_site_hse06_ddec_charge
 _atom_site_hse06_ddec_spin_density
 _atom_site_hse06_ddec_sum_bond_order
 _atom_site_hse06_magmom
 _atom_site_pbe_cm5_charge
 _atom_site_pbe_ddec_charge
 _atom_site_pbe_ddec_spin_density
 _atom_site_pbe_ddec_sum_bond_order
 _atom_site_pbe_magmom
Cu  Cu0  1  0.09242187  0.22106422  0.28581170  1  0.737894  0.756948  1.926929  0.511  0.679256  0.806454  2.31947  0.605  0.755931  0.882467  2.266063  0.683  0.783246  0.634978  0.752773  2.355146  0.555
Cu  Cu1  1  0.90758666  0.77892958  0.71418601  1  0.737816  -0.756948  1.927127  -0.511  0.67937  -0.806454  2.319568  -0.605  0.755894  -0.882455  2.266233  -0.683  0.783353  0.635078  -0.752779  2.355217  -0.555
H  H2  1  0.07312603  0.23234408  0.50929716  1  0.091576  0.001475  0.965092  0.002  0.091679  0.001178  1.039673  0.002  0.094326  0.000841  1.037022  0.001  0.118011  0.08947  0.001438  1.041965  0.002
H  H3  1  0.92687505  0.76765623  0.49070454  1  0.091543  -0.001484  0.96513  -0.002  0.091657  -0.001178  1.039688  -0.002  0.094296  -0.000841  1.037065  -0.001  0.118001  0.089443  -0.001437  1.041976  -0.002
H  H4  1  0.90018615  0.33961017  0.63810822  1  0.128907  0.000565  0.946542  0.001  0.131591  0.000495  1.013468  0.001  0.135621  0.000359  1.011127  0.0  0.113478  0.128419  0.000594  1.015526  0.001
H  H5  1  0.09982709  0.66038714  0.36189422  1  0.128783  -0.000553  0.946751  -0.001  0.131494  -0.000496  1.013628  -0.001  0.135526  -0.000358  1.011287  0.0  0.113438  0.128323  -0.000594  1.015683  -0.001
H  H6  1  0.70025194  0.49199722  0.58953550  1  0.102754  0.000255  0.950567  0.0  0.114724  -4.1e-05  1.007344  0.0  0.116921  -5.3e-05  1.005791  0.0  0.109738  0.113041  -1.6e-05  1.008645  0.0
H  H7  1  0.29975803  0.50800015  0.41047094  1  0.102654  -0.000255  0.950554  0.0  0.114685  4.1e-05  1.007281  0.0  0.116883  5.3e-05  1.005729  0.0  0.109734  0.113001  1.6e-05  1.008586  0.0
H  H8  1  0.68114144  0.53292187  0.41285810  1  0.121017  0.000825  0.935569  0.001  0.133372  0.000695  0.988295  0.001  0.136221  0.000487  0.987385  0.001  0.115688  0.130875  0.000832  0.989845  0.001
H  H9  1  0.31886410  0.46707444  0.58715190  1  0.121037  -0.000827  0.93562  -0.001  0.133395  -0.000695  0.988334  -0.001  0.136245  -0.000487  0.987422  -0.001  0.115662  0.1309  -0.000832  0.989883  -0.001
H  H10  1  0.66353459  0.53452671  0.26570222  1  0.116518  0.000799  0.931032  0.001  0.129075  0.00067  0.982813  0.001  0.132134  0.000477  0.981734  0.001  0.117746  0.126745  0.000836  0.98389  0.001
H  H11  1  0.33646867  0.46547458  0.73429481  1  0.116542  -0.000798  0.930912  -0.001  0.129086  -0.000671  0.982708  -0.001  0.132146  -0.000477  0.981629  -0.001  0.117743  0.126755  -0.000836  0.983777  -0.001
H  H12  1  0.65299255  0.51356119  0.09176551  1  0.109296  0.000255  0.925891  0.0  0.119795  -2.3e-05  0.982604  0.0  0.12245  -3.7e-05  0.980574  0.0  0.115827  0.117545  3e-06  0.984614  0.0
H  H13  1  0.34701538  0.48644355  0.90823413  1  0.109294  -0.00026  0.925829  0.0  0.119779  2.4e-05  0.982567  0.0  0.122449  3.7e-05  0.980518  0.0  0.115824  0.117532  -3e-06  0.98458  0.0
H  H14  1  0.84247403  0.36792614  0.99465508  1  0.114784  0.000583  0.976717  0.001  0.114704  0.000506  1.04957  0.001  0.11855  0.000368  1.047617  0.0  0.10735  0.111702  0.0006  1.051405  0.001
H  H15  1  0.15752725  0.63207854  0.00534690  1  0.114715  -0.000586  0.97674  -0.001  0.114636  -0.000507  1.049596  -0.001  0.118487  -0.00037  1.047636  0.0  0.107337  0.111636  -0.0006  1.05143  -0.001
H  H16  1  0.03255663  0.24736778  0.07838322  1  0.085771  0.001654  0.92868  0.002  0.095097  0.001369  0.984941  0.002  0.096664  0.000998  0.984271  0.001  0.123422  0.093756  0.001667  0.985761  0.002
H  H17  1  0.96744330  0.75263450  0.92161276  1  0.085753  -0.001657  0.928661  -0.002  0.095116  -0.001369  0.984886  -0.002  0.096684  -0.000998  0.984214  -0.001  0.123417  0.093774  -0.001667  0.985712  -0.002
H  H18  1  0.39175688  0.32205384  0.31176826  1  0.087944  0.001155  0.970755  0.002  0.094171  0.000895  1.0395  0.001  0.096265  0.000641  1.036866  0.001  0.117745  0.092591  0.001049  1.041291  0.002
H  H19  1  0.60824654  0.67794770  0.68823656  1  0.087947  -0.001149  0.970727  -0.002  0.094134  -0.000896  1.039514  -0.001  0.096219  -0.000641  1.036882  -0.001  0.117762  0.092553  -0.001049  1.041302  -0.002
H  H20  1  0.58036827  0.22844508  0.40408292  1  0.095846  0.000542  0.981991  0.0  0.103889  0.000503  1.047696  0.001  0.105599  0.000379  1.049105  0.0  0.104103  0.102478  0.00057  1.047176  0.001
H  H21  1  0.41963777  0.77156524  0.59592217  1  0.095856  -0.000541  0.982003  0.0  0.103916  -0.000502  1.04769  -0.001  0.105628  -0.000379  1.049093  0.0  0.104107  0.102499  -0.00057  1.047181  -0.001
H  H22  1  0.28102923  0.85045446  0.51597058  1  0.097101  0.000448  0.993538  0.0  0.104829  0.000424  1.059055  0.0  0.106349  0.000313  1.061259  0.0  0.105101  0.103999  0.000516  1.057389  0.001
H  H23  1  0.71896809  0.14955802  0.48403979  1  0.096992  -0.000452  0.993594  0.0  0.104841  -0.000424  1.059042  0.0  0.106364  -0.000314  1.061249  0.0  0.105094  0.10401  -0.000516  1.057375  -0.001
H  H24  1  0.10490598  0.96141924  0.41940065  1  0.09197  0.001348  1.000997  0.002  0.09661  0.000973  1.072516  0.002  0.098737  0.000697  1.070005  0.001  0.117409  0.094834  0.001182  1.074326  0.002
H  H25  1  0.89509867  0.03858657  0.58060077  1  0.092065  -0.001344  1.001051  -0.002  0.096702  -0.000973  1.072573  -0.002  0.098832  -0.000697  1.070054  -0.001  0.117459  0.094927  -0.001181  1.074387  -0.002
H  H26  1  0.11963861  0.94090792  0.20421391  1  0.103427  0.001226  0.94818  0.002  0.107953  0.000928  1.013297  0.002  0.11012  0.00065  1.011001  0.001  0.120832  0.10608  0.001143  1.015066  0.002
H  H27  1  0.88036536  0.05908462  0.79578168  1  0.103255  -0.001225  0.948038  -0.002  0.107833  -0.000928  1.013122  -0.002  0.110004  -0.00065  1.010822  -0.001  0.120788  0.105962  -0.001143  1.014896  -0.002
H  H28  1  0.30324680  0.82972593  0.08607480  1  0.113305  0.000474  0.998961  0.0  0.114363  0.000424  1.071984  0.001  0.11784  0.000301  1.070236  0.0  0.108309  0.112631  0.000507  1.072048  0.001
H  H29  1  0.69673644  0.17025405  0.91391551  1  0.113334  -0.000476  0.998869  0.0  0.11433  -0.000423  1.07192  -0.001  0.117809  -0.000302  1.070167  0.0  0.108212  0.112601  -0.000506  1.071985  -0.001
H  H30  1  0.53932224  0.25386189  0.00597802  1  0.122456  0.000456  0.984801  0.0  0.130445  0.000404  1.046917  0.001  0.133432  0.000292  1.045826  0.0  0.110538  0.127986  0.000493  1.048143  0.001
H  H31  1  0.46067103  0.74611929  0.99400937  1  0.122488  -0.000454  0.98465  0.0  0.130379  -0.000405  1.046915  -0.001  0.133371  -0.000292  1.045823  0.0  0.110482  0.127916  -0.000493  1.048145  -0.001
H  H32  1  0.34594640  0.34672394  0.12714831  1  0.08548  0.001116  1.004299  0.002  0.083337  0.000857  1.084359  0.002  0.085901  0.000585  1.081237  0.001  0.11348  0.08202  0.00106  1.085806  0.002
H  H33  1  0.65405381  0.65326181  0.87284128  1  0.085526  -0.001118  1.004712  -0.002  0.083389  -0.000857  1.084692  -0.002  0.085893  -0.000586  1.081635  -0.001  0.113529  0.082073  -0.00106  1.08614  -0.002
C  C34  1  0.98237547  0.29542300  0.49017806  1  0.128582  -0.007369  3.674659  -0.008  0.102543  -0.000891  3.932677  -0.002  0.111442  -0.001924  3.950783  -0.003  0.053355  0.096731  -0.000148  3.921179  -0.001
C  C35  1  0.01763014  0.70457749  0.50982656  1  0.128621  0.007396  3.674548  0.008  0.102596  0.000895  3.932564  0.002  0.111492  0.001917  3.950656  0.003  0.053447  0.096795  0.000148  3.92105  0.001
C  C36  1  0.88567159  0.35613215  0.56237908  1  -0.097463  0.010099  3.670504  0.01  -0.110928  0.004167  3.919465  0.005  -0.118441  0.003716  3.940387  0.004  -0.073883  -0.106089  0.004618  3.905338  0.005
C  C37  1  0.11432827  0.64386492  0.43762451  1  -0.097364  -0.010127  3.670677  -0.01  -0.110853  -0.004167  3.919667  -0.005  -0.118365  -0.003712  3.940589  -0.004  -0.073859  -0.10602  -0.004617  3.905542  -0.005
C  C38  1  0.77476433  0.44097520  0.53458548  1  0.004724  -0.008203  3.698933  -0.007  -0.013993  -0.002465  3.945475  -0.002  -0.00948  -0.002702  3.963124  -0.003  -0.061427  -0.016741  -0.00237  3.933136  -0.002
C  C39  1  0.22524145  0.55902860  0.46542025  1  0.004846  0.008201  3.698648  0.007  -0.013926  0.002467  3.945221  0.002  -0.009414  0.002698  3.96287  0.003  -0.061426  -0.01668  0.00237  3.932896  0.002
C  C40  1  0.76295462  0.46194711  0.43650247  1  -0.135161  0.006895  3.685022  0.007  -0.152643  0.002709  3.932278  0.003  -0.15911  0.002501  3.951514  0.003  -0.070674  -0.148544  0.00305  3.919861  0.003
C  C41  1  0.23704412  0.53804789  0.56350502  1  -0.13529  -0.006883  3.684746  -0.007  -0.152801  -0.00271  3.931995  -0.003  -0.159272  -0.002499  3.951233  -0.003  -0.07065  -0.148696  -0.003051  3.919583  -0.003
C  C42  1  0.85990645  0.39316498  0.36839247  1  0.175358  -0.003368  3.743406  -0.004  0.168863  0.000769  3.995088  0.0  0.177117  -0.000426  4.014027  -0.001  0.12337  0.163183  0.001676  3.983105  0.001
C  C43  1  0.14009271  0.60684084  0.63161255  1  0.175389  0.00336  3.743551  0.004  0.168993  -0.000767  3.9951  0.0  0.177251  0.000425  4.01403  0.001  0.123328  0.163299  -0.001675  3.983128  -0.001
C  C44  1  0.85043120  0.39768440  0.26464676  1  0.185702  -0.003479  3.738481  -0.004  0.178788  0.000789  3.989098  0.0  0.187458  -0.00037  4.008449  -0.001  0.125053  0.173383  0.001576  3.976195  0.001
C  C45  1  0.14956761  0.60231580  0.73535312  1  0.185624  0.003486  3.738565  0.004  0.178701  -0.000795  3.98915  0.0  0.187366  0.000369  4.008499  0.001  0.125002  0.173298  -0.001576  3.97624  -0.001
C  C46  1  0.74271369  0.47024288  0.22267280  1  -0.1181  0.007172  3.662905  0.007  -0.13519  0.002692  3.90333  0.003  -0.14238  0.002506  3.923805  0.003  -0.064259  -0.130283  0.00287  3.889048  0.003
C  C47  1  0.25728185  0.52975942  0.77732663  1  -0.118036  -0.007196  3.662695  -0.007  -0.135085  -0.002684  3.903079  -0.003  -0.142277  -0.002507  3.923569  -0.003  -0.064202  -0.130177  -0.002868  3.888796  -0.003
C  C48  1  0.73819994  0.45990792  0.12502421  1  0.010636  -0.008557  3.684321  -0.008  -0.006796  -0.002585  3.928006  -0.002  -0.002523  -0.002805  3.946586  -0.003  -0.054671  -0.009845  -0.002395  3.915937  -0.002
C  C49  1  0.26180151  0.54010008  0.87497959  1  0.010539  0.008587  3.684253  0.008  -0.006904  0.002585  3.927951  0.002  -0.002646  0.002805  3.946538  0.003  -0.054709  -0.009958  0.002395  3.915887  0.002
C  C50  1  0.84287168  0.37921212  0.07102933  1  -0.10582  0.009745  3.698365  0.01  -0.115993  0.003742  3.947135  0.004  -0.124147  0.003414  3.968857  0.004  -0.074062  -0.110688  0.004052  3.933167  0.005
C  C51  1  0.15712711  0.62078602  0.92897430  1  -0.105625  -0.009752  3.698219  -0.01  -0.115789  -0.003746  3.946988  -0.004  -0.123948  -0.003413  3.968716  -0.004  -0.073996  -0.110485  -0.004053  3.93302  -0.005
C  C52  1  0.94826653  0.31144823  0.11714861  1  0.147184  -0.008054  3.675778  -0.009  0.116789  -0.001236  3.932256  -0.003  0.126218  -0.002192  3.950665  -0.003  0.059651  0.110553  -0.000442  3.920382  -0.002
C  C53  1  0.05173569  0.68855519  0.88284766  1  0.147185  0.008065  3.675699  0.009  0.116777  0.001242  3.932198  0.003  0.126211  0.002191  3.950597  0.003  0.059641  0.110533  0.000443  3.920327  0.002
C  C54  1  0.37229013  0.21886594  0.35946856  1  0.115802  -0.0085  3.67796  -0.009  0.087217  -0.00016  3.930047  -0.001  0.094761  -0.001569  3.949947  -0.002  0.045587  0.082832  0.000931  3.91592  0.0
C  C55  1  0.62771450  0.78114085  0.64052921  1  0.115712  0.008492  3.677698  0.009  0.087145  0.000163  3.929809  0.001  0.094694  0.001569  3.949688  0.002  0.045545  0.082766  -0.000931  3.915667  0.0
C  C56  1  0.47627072  0.16491760  0.41159744  1  -0.114778  0.014818  3.675961  0.015  -0.133209  0.004796  3.919093  0.005  -0.139595  0.004681  3.939276  0.005  -0.070018  -0.128773  0.004928  3.905311  0.006
C  C57  1  0.52372619  0.83508816  0.58840719  1  -0.114651  -0.014819  3.676221  -0.015  -0.133117  -0.0048  3.919311  -0.005  -0.139497  -0.004678  3.939501  -0.005  -0.070044  -0.128693  -0.004926  3.905555  -0.006
C  C58  1  0.44691093  0.03041855  0.47097481  1  0.116875  -0.012481  3.711684  -0.012  0.126147  -0.003216  3.940457  -0.003  0.131218  -0.003678  3.958538  -0.004  0.02588  0.122526  -0.002837  3.928943  -0.003
C  C59  1  0.55308616  0.96958749  0.52903832  1  0.116607  0.012482  3.712028  0.012  0.12598  0.003222  3.940741  0.003  0.131024  0.003674  3.958866  0.004  0.026002  0.122363  0.002837  3.929219  0.003
C  C60  1  0.31159494  0.95556922  0.47262204  1  -0.124802  0.014953  3.681773  0.015  -0.145158  0.004682  3.926379  0.005  -0.152741  0.004552  3.948311  0.005  -0.074898  -0.140913  0.0048  3.912033  0.005
C  C61  1  0.68840670  0.04443907  0.52739026  1  -0.124587  -0.014942  3.682089  -0.015  -0.145125  -0.004687  3.926726  -0.005  -0.152712  -0.004549  3.948677  -0.005  -0.074979  -0.140877  -0.0048  3.912374  -0.005
C  C62  1  0.21153827  0.01621932  0.41964384  1  0.120878  -0.009845  3.668007  -0.01  0.090435  -0.001014  3.923096  -0.002  0.098831  -0.002417  3.941474  -0.003  0.044482  0.085191  0.00016  3.910736  -0.001
C  C63  1  0.78847217  0.98378996  0.58036003  1  0.120725  0.009836  3.668529  0.01  0.090253  0.001013  3.923685  0.002  0.098645  0.002414  3.942053  0.003  0.044442  0.084999  -0.000161  3.911326  0.001
C  C64  1  0.21408501  0.00603517  0.15800079  1  0.125356  -0.00757  3.667597  -0.008  0.096842  0.000228  3.9236  0.0  0.105453  -0.001271  3.942226  -0.002  0.046987  0.091494  0.001435  3.911108  0.001
C  C65  1  0.78591100  0.99395293  0.84199701  1  0.125695  0.007565  3.667462  0.008  0.097147  -0.00023  3.923469  0.0  0.10575  0.001277  3.942096  0.002  0.047151  0.091795  -0.001435  3.910983  -0.001
C  C66  1  0.31918614  0.94504396  0.09133790  1  -0.140491  0.013629  3.66883  0.014  -0.155919  0.004447  3.910978  0.005  -0.163833  0.004159  3.931535  0.005  -0.076033  -0.150714  0.004699  3.896056  0.005
C  C67  1  0.68080529  0.05494693  0.90864816  1  -0.140566  -0.013612  3.669387  -0.014  -0.15593  -0.004442  3.911391  -0.005  -0.163847  -0.004164  3.931957  -0.005  -0.07599  -0.150729  -0.004697  3.896479  -0.005
C  C68  1  0.44189899  0.03104438  0.03495367  1  0.10723  -0.010289  3.723045  -0.01  0.117854  -0.002303  3.951223  -0.002  0.122318  -0.002799  3.971867  -0.003  0.020019  0.114649  -0.001887  3.937673  -0.002
C  C69  1  0.55809561  0.96894428  0.96502859  1  0.106851  0.010284  3.723226  0.01  0.117663  0.0023  3.951196  0.002  0.122125  0.002806  3.971847  0.003  0.019989  0.114457  0.001887  3.937645  0.002
C  C70  1  0.44968077  0.17866389  0.04799278  1  -0.142718  0.013597  3.668348  0.014  -0.158193  0.004395  3.904252  0.005  -0.166232  0.004128  3.925822  0.005  -0.07537  -0.152893  0.00463  3.890363  0.005
C  C71  1  0.55032156  0.82132175  0.95199226  1  -0.142502  -0.013609  3.668235  -0.014  -0.157993  -0.004393  3.904191  -0.005  -0.166031  -0.004136  3.925746  -0.005  -0.075304  -0.152688  -0.004632  3.890294  -0.005
C  C72  1  0.34043474  0.23254371  0.11570715  1  0.110613  -0.007684  3.693013  -0.008  0.083926  0.000191  3.95154  0.0  0.091485  -0.001263  3.971145  -0.002  0.039386  0.078596  0.001468  3.938782  0.001
C  C73  1  0.65957295  0.76743456  0.88428210  1  0.110506  0.007688  3.694322  0.008  0.08387  -0.000194  3.952821  0.0  0.09146  0.001268  3.972467  0.002  0.03944  0.078539  -0.001469  3.940049  -0.001
N  N74  1  0.96793581  0.31131043  0.39626379  1  -0.310007  0.089895  3.307919  0.107  -0.266071  0.060936  3.598872  0.079  -0.294908  0.051362  3.620686  0.069  -0.336833  -0.249153  0.066459  3.586434  0.083
N  N75  1  0.03206187  0.68868462  0.60374598  1  -0.310007  -0.08989  3.307996  -0.107  -0.266161  -0.060934  3.598991  -0.079  -0.294963  -0.051359  3.620771  -0.069  -0.336952  -0.24923  -0.066453  3.586529  -0.083
N  N76  1  0.95169827  0.32020033  0.21123269  1  -0.304931  0.089327  3.332179  0.107  -0.26374  0.059289  3.631529  0.076  -0.292797  0.049946  3.652658  0.067  -0.338599  -0.246736  0.064765  3.619116  0.081
N  N77  1  0.04829055  0.67980077  0.78876777  1  -0.304915  -0.089332  3.33224  -0.107  -0.263808  -0.059293  3.631653  -0.076  -0.292836  -0.049953  3.652755  -0.067  -0.338585  -0.2468  -0.064766  3.619234  -0.081
N  N78  1  0.24063295  0.14633180  0.36452308  1  -0.275417  0.097377  3.337005  0.117  -0.221808  0.061909  3.623026  0.08  -0.251572  0.05232  3.647113  0.071  -0.348309  -0.203583  0.067274  3.607489  0.084
N  N79  1  0.75938049  0.85367295  0.63547367  1  -0.27535  -0.097378  3.336789  -0.117  -0.221687  -0.061907  3.622733  -0.08  -0.2514  -0.05232  3.646767  -0.071  -0.348312  -0.203453  -0.067273  3.607175  -0.084
N  N80  1  0.22450249  0.14765302  0.17037006  1  -0.290725  0.096119  3.343425  0.115  -0.243469  0.06237  3.640089  0.081  -0.272851  0.052207  3.663576  0.071  -0.346609  -0.225711  0.068306  3.625443  0.085
N  N81  1  0.77549649  0.85232642  0.82962740  1  -0.290728  -0.096128  3.343914  -0.115  -0.243618  -0.062374  3.640721  -0.081  -0.272959  -0.052217  3.664155  -0.071  -0.34673  -0.225851  -0.06831  3.626059  -0.085
N  N82  1  0.23569182  0.57034729  0.18354007  1  0.7177  -0.000393  4.120512  -0.001  0.73938  -0.000364  4.431615  -0.001  0.767563  -0.000277  4.43605  0.0  0.090193  0.720537  -0.000311  4.427578  0.0
N  N83  1  0.76429871  0.42964391  0.81645606  1  0.717584  0.000399  4.121095  0.001  0.739216  0.000363  4.432263  0.001  0.767393  0.000289  4.436711  0.0  0.090049  0.72038  0.000311  4.428211  0.0
N  N84  1  0.81836842  0.94073159  0.32693879  1  0.726937  -0.000113  4.131872  0.0  0.753631  -2e-05  4.434646  0.0  0.782099  -3.2e-05  4.43914  0.0  0.090417  0.734312  -1.2e-05  4.430853  0.0
N  N85  1  0.18162251  0.05929142  0.67306437  1  0.726888  0.000111  4.131716  0.0  0.753587  1.6e-05  4.434486  0.0  0.782049  3.7e-05  4.438987  0.0  0.090418  0.73427  1.2e-05  4.430702  0.0
O  O86  1  0.24814068  0.47803332  0.25588152  1  -0.527681  -0.000348  1.802163  0.001  -0.524271  -0.000505  2.050701  0.0  -0.539814  -0.000569  2.040342  0.0  -0.213205  -0.514127  -0.000634  2.057859  0.0
O  O87  1  0.75186959  0.52195062  0.74411328  1  -0.527697  0.00034  1.802348  -0.001  -0.524245  0.0005  2.0509  0.0  -0.539767  0.000563  2.040523  0.0  -0.213194  -0.514107  0.000634  2.058059  0.0
O  O88  1  0.12492166  0.64831992  0.18896807  1  -0.463954  -0.000157  1.69022  0.0  -0.451246  -0.000198  1.889879  0.0  -0.462934  -0.000165  1.884074  0.0  -0.196596  -0.443312  -0.000228  1.893536  0.0
O  O89  1  0.87506941  0.35168127  0.81103350  1  -0.463892  0.000162  1.690399  0.0  -0.451182  0.000207  1.890098  0.0  -0.462872  0.000174  1.884299  0.0  -0.196532  -0.443246  0.000228  1.893749  0.0
O  O90  1  0.33602114  0.58120528  0.10555344  1  -0.505659  -0.000224  1.733613  0.0  -0.48775  -0.00023  1.945706  0.0  -0.501266  -0.000212  1.937742  0.0  -0.209349  -0.477297  -0.000187  1.949575  0.0
O  O91  1  0.66396958  0.41879334  0.89443629  1  -0.505654  0.000222  1.733902  0.0  -0.487749  0.000228  1.946045  0.0  -0.501232  0.000198  1.938048  0.0  -0.209306  -0.477301  0.000187  1.949913  0.0
O  O92  1  0.94980511  0.98644178  0.33557427  1  -0.56621  -0.000246  1.804884  0.001  -0.556402  -0.000649  2.061265  0.0  -0.576099  -0.000902  2.050877  0.0  -0.238282  -0.541798  -0.000146  2.067645  0.001
O  O93  1  0.05018810  0.01355320  0.66443612  1  -0.566272  0.000243  1.804961  -0.001  -0.556471  0.000647  2.061354  0.0  -0.576151  0.000892  2.050955  0.0  -0.238289  -0.541847  0.000146  2.067676  -0.001
O  O94  1  0.77254205  0.81289217  0.36397373  1  -0.497403  4.6e-05  1.690008  0.0  -0.490356  -1e-05  1.895066  0.0  -0.503024  -1.1e-05  1.888572  0.0  -0.223779  -0.480059  -0.000152  1.898942  0.0
O  O95  1  0.22740633  0.18714777  0.63604086  1  -0.497374  -4.5e-05  1.689631  0.0  -0.490312  1.2e-05  1.894693  0.0  -0.502981  1.6e-05  1.888202  0.0  -0.223788  -0.480016  0.000153  1.898566  0.0
O  O96  1  0.74060165  0.02443759  0.28381198  1  -0.47812  -0.000116  1.690373  0.0  -0.474066  -6.3e-05  1.888161  0.0  -0.48517  -5.5e-05  1.882987  0.0  -0.219562  -0.465772  -4e-06  1.891231  0.0
O  O97  1  0.25942497  0.97559526  0.71616972  1  -0.478043  0.00012  1.690565  0.0  -0.474025  6.6e-05  1.88837  0.0  -0.485131  5.6e-05  1.883196  0.0  -0.219534  -0.465729  4e-06  1.891433  0.0
