# generated using pymatgen
data_MgH10C12SO5
_symmetry_space_group_name_H-M   'P 1'
_cell_length_a   5.96272010
_cell_length_b   11.21706479
_cell_length_c   11.21674558
_cell_angle_alpha   108.99321746
_cell_angle_beta   105.03195260
_cell_angle_gamma   105.03056323
_symmetry_Int_Tables_number   1
_chemical_formula_structural   MgH10C12SO5
_chemical_formula_sum   'Mg2 H20 C24 S2 O10'
_cell_volume   634.71591553
_cell_formula_units_Z   2
loop_
 _symmetry_equiv_pos_site_id
 _symmetry_equiv_pos_as_xyz
  1  'x, y, z'
loop_
 _atom_site_type_symbol
 _atom_site_label
 _atom_site_symmetry_multiplicity
 _atom_site_fract_x
 _atom_site_fract_y
 _atom_site_fract_z
 _atom_site_occupancy
 _atom_site_hle17_bader_spin_density
 _atom_site_hle17_ddec_charge
 _atom_site_hle17_ddec_spin_density
 _atom_site_hle17_ddec_sum_bond_order
 _atom_site_hle17_magmom
 _atom_site_hse06_10hf_bader_spin_density
 _atom_site_hse06_10hf_ddec_charge
 _atom_site_hse06_10hf_ddec_spin_density
 _atom_site_hse06_10hf_ddec_sum_bond_order
 _atom_site_hse06_10hf_magmom
 _atom_site_hse06_bader_spin_density
 _atom_site_hse06_ddec_charge
 _atom_site_hse06_ddec_spin_density
 _atom_site_hse06_ddec_sum_bond_order
 _atom_site_hse06_magmom
 _atom_site_pbe_bader_spin_density
 _atom_site_pbe_cm5_charge
 _atom_site_pbe_ddec_charge
 _atom_site_pbe_ddec_spin_density
 _atom_site_pbe_ddec_sum_bond_order
 _atom_site_pbe_magmom
Mg  Mg0  1  0.24998628  0.52704105  0.97294980  1  0  1.524962  0  1.105352  0  0  1.410279  0  1.363849  0  0  1.433806  0  1.326933  0  0  0.844222  1.393142  0  1.390126  0
Mg  Mg1  1  0.74999414  0.47296079  0.02704510  1  0  1.525009  0  1.105301  0  0  1.410396  0  1.363701  0  0  1.433923  0  1.326783  0  0  0.844238  1.393263  0  1.389971  0
H  H2  1  0.14040700  0.68742065  0.84687843  1  0  0.463263  0  0.82462  0  0  0.434001  0  0.883234  0  0  0.443529  0  0.869287  0  0  0.310585  0.427242  0  0.89315  0
H  H3  1  0.35956296  0.65309887  0.81256179  1  0  0.4635  0  0.824302  0  0  0.434219  0  0.882943  0  0  0.443748  0  0.868994  0  0  0.310655  0.42746  0  0.892859  0
H  H4  1  0.85958515  0.31258347  0.15311342  1  0  0.463549  0  0.824242  0  0  0.434247  0  0.882899  0  0  0.443772  0  0.868955  0  0  0.310686  0.427499  0  0.892799  0
H  H5  1  0.64043931  0.34689921  0.18743462  1  0  0.463488  0  0.824312  0  0  0.434221  0  0.882926  0  0  0.443747  0  0.86898  0  0  0.310672  0.427462  0  0.892842  0
H  H6  1  0.49326408  0.82468955  0.24549171  1  0  0.110911  0  0.967397  0  0  0.120305  0  1.028781  0  0  0.122823  0  1.029739  0  0  0.103663  0.118473  0  1.028302  0
H  H7  1  0.00674694  0.25450323  0.67529382  1  0  0.110907  0  0.967418  0  0  0.120264  0  1.028859  0  0  0.122782  0  1.02982  0  0  0.103594  0.118433  0  1.02838  0
H  H8  1  0.50671704  0.17529697  0.75450778  1  0  0.11099  0  0.967421  0  0  0.120306  0  1.028876  0  0  0.122823  0  1.029836  0  0  0.103657  0.118475  0  1.028399  0
H  H9  1  0.99325766  0.74549598  0.32469882  1  0  0.110946  0  0.967499  0  0  0.120349  0  1.028857  0  0  0.122867  0  1.029815  0  0  0.103656  0.118517  0  1.028379  0
H  H10  1  0.56980410  0.07151277  0.33700725  1  0  0.090305  0  0.967618  0  0  0.102747  0  1.026593  0  0  0.105482  0  1.02419  0  0  0.101887  0.100776  0  1.028292  0
H  H11  1  0.93019509  0.16298179  0.42846316  1  0  0.090232  0  0.96746  0  0  0.102672  0  1.026476  0  0  0.10541  0  1.024067  0  0  0.101855  0.100706  0  1.028168  0
H  H12  1  0.43019594  0.92847593  0.66299900  1  0  0.090302  0  0.967519  0  0  0.102744  0  1.026508  0  0  0.10548  0  1.024101  0  0  0.101867  0.100759  0  1.028226  0
H  H13  1  0.06981941  0.83701649  0.57153311  1  0  0.09021  0  0.967448  0  0  0.102644  0  1.026477  0  0  0.105381  0  1.02407  0  0  0.101867  0.100686  0  1.028161  0
H  H14  1  0.80344310  0.98131290  0.09736511  1  0  0.11038  0  0.934497  0  0  0.122276  0  0.98882  0  0  0.125574  0  0.986862  0  0  0.109452  0.119859  0  0.990351  0
H  H15  1  0.69653863  0.40263382  0.51866761  1  0  0.110372  0  0.934416  0  0  0.122275  0  0.988742  0  0  0.125542  0  0.986825  0  0  0.10944  0.119869  0  0.990257  0
H  H16  1  0.19656021  0.01869726  0.90263741  1  0  0.110433  0  0.934589  0  0  0.122225  0  0.989016  0  0  0.125514  0  0.987069  0  0  0.109435  0.119813  0  0.990548  0
H  H17  1  0.30346960  0.59737020  0.48134145  1  0  0.110423  0  0.934357  0  0  0.122286  0  0.988724  0  0  0.12555  0  0.986806  0  0  0.109441  0.119879  0  0.990241  0
H  H18  1  0.72754777  0.73482376  0.00464957  1  0  0.102811  0  0.976098  0  0  0.108413  0  1.048641  0  0  0.113192  0  1.044776  0  0  0.108318  0.104873  0  1.051721  0
H  H19  1  0.77243573  0.49534645  0.76516348  1  0  0.102884  0  0.976206  0  0  0.10849  0  1.048698  0  0  0.113266  0  1.044832  0  0  0.108378  0.104967  0  1.051783  0
H  H20  1  0.27245196  0.26518643  0.99534894  1  0  0.102808  0  0.976019  0  0  0.108399  0  1.048581  0  0  0.113179  0  1.044714  0  0  0.108321  0.104853  0  1.051674  0
H  H21  1  0.22756087  0.50465846  0.23484260  1  0  0.102877  0  0.97599  0  0  0.108465  0  1.048505  0  0  0.113252  0  1.044626  0  0  0.108365  0.104929  0  1.051608  0
C  C22  1  0.10367713  0.76200576  0.11855676  1  0  0.402673  0  3.861996  0  0  0.389844  0  4.118431  0  0  0.405834  0  4.130778  0  0  0.091899  0.378821  0  4.110157  0
C  C23  1  0.39631791  0.38144165  0.73797820  1  0  0.402543  0  3.862062  0  0  0.389752  0  4.118439  0  0  0.40574  0  4.13079  0  0  0.091856  0.378729  0  4.110172  0
C  C24  1  0.89631294  0.23799211  0.88144068  1  0  0.40247  0  3.862271  0  0  0.389671  0  4.118655  0  0  0.405659  0  4.131008  0  0  0.09184  0.378653  0  4.110374  0
C  C25  1  0.60368130  0.61856250  0.26201725  1  0  0.402587  0  3.862081  0  0  0.389768  0  4.118485  0  0  0.405758  0  4.13084  0  0  0.09188  0.378748  0  4.110213  0
C  C26  1  0.34307629  0.85916800  0.21281418  1  0  -0.203081  0  3.702285  0  0  -0.217632  0  3.948798  0  0  -0.226125  0  3.968936  0  0  -0.104321  -0.212  0  3.935338  0
C  C27  1  0.15692361  0.28717760  0.64082029  1  0  -0.203148  0  3.702529  0  0  -0.217695  0  3.949053  0  0  -0.226184  0  3.969186  0  0  -0.104278  -0.212062  0  3.935598  0
C  C28  1  0.65689939  0.14082351  0.78718545  1  0  -0.203112  0  3.702211  0  0  -0.217603  0  3.948725  0  0  -0.226093  0  3.968863  0  0  -0.104364  -0.211976  0  3.935266  0
C  C29  1  0.84308305  0.71282461  0.35917634  1  0  -0.20341  0  3.702599  0  0  -0.21797  0  3.949114  0  0  -0.226465  0  3.96925  0  0  -0.104432  -0.212336  0  3.935664  0
C  C30  1  0.38553686  0.99691440  0.26441214  1  0  -0.0412  0  3.793685  0  0  -0.063945  0  4.036986  0  0  -0.060213  0  4.056791  0  0  -0.086777  -0.06605  0  4.023258  0
C  C31  1  0.11447581  0.23558509  0.50306988  1  0  -0.040889  0  3.794015  0  0  -0.063704  0  4.037256  0  0  -0.059971  0  4.057067  0  0  -0.086641  -0.065811  0  4.023528  0
C  C32  1  0.61446340  0.00307737  0.73559342  1  0  -0.041278  0  3.793628  0  0  -0.064023  0  4.036923  0  0  -0.060296  0  4.056729  0  0  -0.086742  -0.066119  0  4.023202  0
C  C33  1  0.88552961  0.76441500  0.49693031  1  0  -0.040697  0  3.793877  0  0  -0.063479  0  4.037148  0  0  -0.059745  0  4.056963  0  0  -0.086588  -0.065591  0  4.02342  0
C  C34  1  0.19105883  0.04050798  0.22295821  1  0  -0.169345  0  3.816383  0  0  -0.14606  0  4.072195  0  0  -0.156718  0  4.097717  0  0  -0.043937  -0.138966  0  4.054788  0
C  C35  1  0.30890661  0.27702116  0.45946121  1  0  -0.16932  0  3.816838  0  0  -0.145814  0  4.072362  0  0  -0.156479  0  4.097888  0  0  -0.043934  -0.138725  0  4.054964  0
C  C36  1  0.80894496  0.95949196  0.77704797  1  0  -0.169177  0  3.816477  0  0  -0.145881  0  4.072234  0  0  -0.156533  0  4.097748  0  0  -0.043944  -0.138783  0  4.054823  0
C  C37  1  0.69109874  0.72297898  0.54053631  1  0  -0.169325  0  3.816724  0  0  -0.145904  0  4.072329  0  0  -0.156574  0  4.097868  0  0  -0.043918  -0.138808  0  4.054932  0
C  C38  1  0.95254254  0.94622423  0.13014373  1  0  -0.036527  0  3.773918  0  0  -0.061476  0  4.024637  0  0  -0.057955  0  4.04475  0  0  -0.084664  -0.063534  0  4.01095  0
C  C39  1  0.54744994  0.36985209  0.55376034  1  0  -0.036647  0  3.773434  0  0  -0.061656  0  4.024118  0  0  -0.058111  0  4.044248  0  0  -0.084645  -0.063711  0  4.010432  0
C  C40  1  0.04746988  0.05377595  0.86985740  1  0  -0.036622  0  3.773996  0  0  -0.061496  0  4.02472  0  0  -0.057967  0  4.044829  0  0  -0.084628  -0.063556  0  4.011028  0
C  C41  1  0.45255134  0.63014690  0.44624072  1  0  -0.036731  0  3.773396  0  0  -0.061675  0  4.024096  0  0  -0.058125  0  4.044227  0  0  -0.08468  -0.063731  0  4.010411  0
C  C42  1  0.91091627  0.80865429  0.07865025  1  0  -0.193759  0  3.713833  0  0  -0.217369  0  3.978557  0  0  -0.225067  0  3.996326  0  0  -0.102768  -0.212331  0  3.967088  0
C  C43  1  0.58906754  0.42134595  0.69132947  1  0  -0.193836  0  3.714112  0  0  -0.217466  0  3.978934  0  0  -0.225153  0  3.996694  0  0  -0.102889  -0.212458  0  3.967474  0
C  C44  1  0.08908296  0.19134985  0.92134609  1  0  -0.193638  0  3.713764  0  0  -0.217218  0  3.978437  0  0  -0.224916  0  3.996212  0  0  -0.102709  -0.212179  0  3.966965  0
C  C45  1  0.41093711  0.57865809  0.30867556  1  0  -0.19383  0  3.713929  0  0  -0.217439  0  3.978747  0  0  -0.225141  0  3.996507  0  0  -0.102865  -0.212419  0  3.967296  0
S  S46  1  0.25001980  0.21549686  0.28448962  1  0  1.10871  0  5.236874  0  0  1.029783  0  5.727949  0  0  1.068605  0  5.717595  0  0  0.483447  1.002737  0  5.735167  0
S  S47  1  0.75001954  0.78450470  0.71551456  1  0  1.108601  0  5.236922  0  0  1.029759  0  5.72798  0  0  1.068578  0  5.717637  0  0  0.483468  1.002709  0  5.735209  0
O  O48  1  0.05950034  0.62881093  0.06829876  1  0  -0.868278  0  2.081415  0  0  -0.789139  0  2.330676  0  0  -0.810303  0  2.317334  0  0  -0.442881  -0.77371  0  2.339649  0
O  O49  1  0.44049499  0.43169793  0.87118372  1  0  -0.86818  0  2.081124  0  0  -0.789057  0  2.330375  0  0  -0.810223  0  2.317034  0  0  -0.442842  -0.773627  0  2.339349  0
O  O50  1  0.94048723  0.37118598  0.93169446  1  0  -0.868274  0  2.081661  0  0  -0.789134  0  2.33089  0  0  -0.810301  0  2.317553  0  0  -0.442872  -0.7737  0  2.339853  0
O  O51  1  0.55949319  0.56830493  0.12881699  1  0  -0.868062  0  2.08116  0  0  -0.788945  0  2.330443  0  0  -0.810105  0  2.3171  0  0  -0.442832  -0.773515  0  2.339418  0
O  O52  1  0.24996328  0.63688136  0.86307815  1  0  -0.934884  0  1.794676  0  0  -0.876606  0  1.975113  0  0  -0.89412  0  1.943961  0  0  -0.622423  -0.864269  0  1.997068  0
O  O53  1  0.75003158  0.36311049  0.13691960  1  0  -0.935102  0  1.79439  0  0  -0.876839  0  1.974922  0  0  -0.894345  0  1.943761  0  0  -0.622515  -0.864517  0  1.996866  0
O  O54  1  0.48119455  0.28547979  0.27306323  1  0  -0.617545  0  2.00732  0  0  -0.563778  0  2.250812  0  0  -0.584278  0  2.239716  0  0  -0.313104  -0.549347  0  2.258526  0
O  O55  1  0.01871934  0.22689207  0.21447885  1  0  -0.617889  0  2.005894  0  0  -0.564011  0  2.249238  0  0  -0.58452  0  2.23815  0  0  -0.313164  -0.549578  0  2.25695  0
O  O56  1  0.51880320  0.71451103  0.72693722  1  0  -0.617782  0  2.006705  0  0  -0.563985  0  2.250133  0  0  -0.584485  0  2.239032  0  0  -0.313235  -0.549555  0  2.257858  0
O  O57  1  0.98127950  0.77311405  0.78551902  1  0  -0.617577  0  2.006657  0  0  -0.563801  0  2.250053  0  0  -0.584306  0  2.238964  0  0  -0.313052  -0.549369  0  2.257774  0
