# generated using pymatgen
data_CuH8C6SNO3
_symmetry_space_group_name_H-M   'P 1'
_cell_length_a   11.48756781
_cell_length_b   12.90968576
_cell_length_c   12.91088036
_cell_angle_alpha   90.00537835
_cell_angle_beta   90.01516124
_cell_angle_gamma   89.99812482
_symmetry_Int_Tables_number   1
_chemical_formula_structural   CuH8C6SNO3
_chemical_formula_sum   'Cu8 H64 C48 S8 N8 O24'
_cell_volume   1914.69497836
_cell_formula_units_Z   8
loop_
 _symmetry_equiv_pos_site_id
 _symmetry_equiv_pos_as_xyz
  1  'x, y, z'
loop_
 _atom_site_type_symbol
 _atom_site_label
 _atom_site_symmetry_multiplicity
 _atom_site_fract_x
 _atom_site_fract_y
 _atom_site_fract_z
 _atom_site_occupancy
 _atom_site_pbe_bader_charge
 _atom_site_pbe_bader_spin_density
 _atom_site_pbe_cm5_charge
 _atom_site_pbe_ddec_charge
 _atom_site_pbe_ddec_spin_density
 _atom_site_pbe_ddec_sum_bond_order
 _atom_site_pbe_magmom
Cu  Cu0  1  0.13457218  0.20056809  0.32664129  1  1.015992  -0.462733  0.68276  0.713916  -0.585995  2.365493  -0.461
Cu  Cu1  1  0.13452453  0.79967951  0.67330958  1  0.994219  0.010789  0.66978  0.68986  0.013808  2.373197  0.01
Cu  Cu2  1  0.63451544  0.67342107  0.20060248  1  1.018107  -0.469638  0.684718  0.71667  -0.595142  2.364538  -0.468
Cu  Cu3  1  0.63459544  0.32677615  0.79957560  1  0.992052  0.018037  0.667882  0.687545  0.023194  2.3743  0.017
Cu  Cu4  1  0.54672993  0.29912751  0.16785023  1  1.011249  0.463979  0.676707  0.701816  0.586971  2.383785  0.462
Cu  Cu5  1  0.54684510  0.70045197  0.83224515  1  0.988877  -0.011647  0.663271  0.677835  -0.014849  2.388137  -0.011
Cu  Cu6  1  0.04677539  0.83216757  0.29902882  1  1.0137  0.470369  0.678816  0.704863  0.595463  2.381793  0.469
Cu  Cu7  1  0.04682981  0.16775120  0.70051792  1  0.986934  -0.018007  0.661322  0.67555  -0.023124  2.38951  -0.017
H  H8  1  0.36058112  0.32572070  0.68320258  1  0.099624  -3.5e-05  0.102509  0.121175  -4.8e-05  1.011098  0.0
H  H9  1  0.36028661  0.67452841  0.31678378  1  0.080363  0.000122  0.102476  0.121298  0.000107  1.010669  0.0
H  H10  1  0.86040167  0.31683923  0.32564029  1  0.081414  9.3e-05  0.10251  0.121251  6.1e-05  1.010661  0.0
H  H11  1  0.86052024  0.68328126  0.67440521  1  0.097801  -2e-06  0.102493  0.121225  -0.0  1.010983  0.0
H  H12  1  0.44282640  0.43463106  0.64199015  1  0.042509  -0.000323  0.097073  0.109096  -0.000155  0.988023  0.0
H  H13  1  0.44246863  0.56553183  0.35791182  1  0.046496  4.8e-05  0.09765  0.11036  2.7e-05  0.986943  0.0
H  H14  1  0.94259901  0.35802998  0.43460112  1  0.045573  -0.000285  0.097354  0.109575  -0.000131  0.987415  0.0
H  H15  1  0.94273630  0.64207634  0.56549554  1  0.044135  1.3e-05  0.097304  0.109725  6e-06  0.987533  0.0
H  H16  1  0.40145148  0.38902079  0.45639237  1  0.05127  0.000123  0.097858  0.107968  0.00012  0.995587  0.0
H  H17  1  0.40112545  0.61089783  0.54350447  1  0.051802  -2.2e-05  0.098219  0.108311  -2.2e-05  0.99643  0.0
H  H18  1  0.90134709  0.54366041  0.38899537  1  0.050861  0.000121  0.09809  0.108182  0.000114  0.995184  0.0
H  H19  1  0.90124047  0.45649907  0.61083981  1  0.051182  -5e-06  0.098082  0.107983  -9e-06  0.995965  0.0
H  H20  1  0.27176232  0.40886008  0.52736387  1  0.001396  -1.3e-05  0.091341  0.085702  7e-06  1.024674  0.0
H  H21  1  0.27146030  0.59121284  0.47249077  1  0.001962  7.5e-05  0.091875  0.086858  2.9e-05  1.023873  0.0
H  H22  1  0.77164581  0.47271818  0.40884912  1  0.002414  6.3e-05  0.091733  0.086313  4e-05  1.024168  0.0
H  H23  1  0.77159358  0.52756619  0.59120951  1  0.002005  1e-06  0.091686  0.08636  -3e-06  1.024178  0.0
H  H24  1  0.63934608  0.41662287  0.54196277  1  0.054972  -5e-06  0.087604  0.123033  -8e-06  1.037939  0.0
H  H25  1  0.63896252  0.58324808  0.45785622  1  0.05534  1.2e-05  0.088038  0.123824  1.5e-05  1.037129  0.0
H  H26  1  0.13908166  0.45806884  0.41682823  1  0.054893  9e-06  0.087968  0.123516  1e-05  1.037372  0.0
H  H27  1  0.13927207  0.54212053  0.58345136  1  0.055687  7e-06  0.088065  0.123485  1e-06  1.037637  0.0
H  H28  1  0.59536504  0.32278252  0.44591945  1  0.096693  0.000161  0.093905  0.153039  0.000145  1.036782  0.0
H  H29  1  0.59538285  0.67692558  0.55414248  1  0.094658  -2.1e-05  0.094192  0.153154  -1.9e-05  1.036088  0.0
H  H30  1  0.09530661  0.55419991  0.32300361  1  0.094626  0.000146  0.09407  0.15308  0.000128  1.036478  0.0
H  H31  1  0.09548983  0.44592807  0.67711925  1  0.12336  5e-06  0.094171  0.153061  6e-06  1.036578  0.0
H  H32  1  0.71730090  0.29781413  0.52898123  1  0.070184  1e-06  0.10042  0.15555  -4e-06  0.97308  0.0
H  H33  1  0.71714348  0.70193589  0.47103123  1  0.072815  1.4e-05  0.100602  0.155849  -0.0  0.972345  0.0
H  H34  1  0.21718742  0.47106624  0.29813740  1  0.071612  1.6e-05  0.100506  0.155692  -5e-06  0.972372  0.0
H  H35  1  0.21728902  0.52899600  0.70223186  1  0.071175  -2e-06  0.100497  0.155699  -1e-06  0.973077  0.0
H  H36  1  0.06377489  0.19964068  0.05147117  1  0.108784  -8.5e-05  0.09505  0.154555  -5.6e-05  1.024882  0.0
H  H37  1  0.06380447  0.80039996  0.94828407  1  0.107773  1.2e-05  0.09537  0.154662  1.2e-05  1.024586  0.0
H  H38  1  0.56384984  0.94829249  0.19964893  1  0.108466  -9.8e-05  0.095021  0.154344  -6.2e-05  1.025101  0.0
H  H39  1  0.56367405  0.05150801  0.80045511  1  0.108016  1.6e-05  0.095397  0.154795  1.2e-05  1.024252  0.0
H  H40  1  0.97583556  0.12078695  0.96877592  1  0.046896  2.1e-05  0.099505  0.15192  1.5e-05  0.978497  0.0
H  H41  1  0.97608996  0.87932529  0.03101336  1  0.048942  -6e-06  0.099525  0.152179  3e-06  0.977838  0.0
H  H42  1  0.47593710  0.03098819  0.12076821  1  0.04702  -2e-06  0.09935  0.151704  7e-06  0.97822  0.0
H  H43  1  0.47597260  0.96873912  0.87933137  1  0.047686  1e-05  0.099512  0.15234  8e-06  0.978158  0.0
H  H44  1  0.97785341  0.25759338  0.94954299  1  0.059346  -0.0  0.094766  0.142408  1e-06  0.992942  0.0
H  H45  1  0.97800679  0.74250021  0.05025760  1  0.063242  3.6e-05  0.095206  0.143151  2.2e-05  0.992476  0.0
H  H46  1  0.47787740  0.05021736  0.25756714  1  0.060602  3.6e-05  0.094864  0.142758  2.6e-05  0.992586  0.0
H  H47  1  0.47792781  0.94948355  0.74251973  1  0.061049  -3e-06  0.094847  0.142326  -3e-06  0.992926  0.0
H  H48  1  0.20756673  0.33296118  0.04252754  1  0.061399  3.3e-05  0.097865  0.105838  -5e-06  0.999276  0.0
H  H49  1  0.20766013  0.66678839  0.95728487  1  0.059737  -4.6e-05  0.097957  0.105989  -1.7e-05  0.999743  0.0
H  H50  1  0.70767539  0.95730913  0.33311501  1  0.060953  -2.6e-05  0.098017  0.10613  -2.9e-05  0.998757  0.0
H  H51  1  0.70748642  0.04255583  0.66695713  1  0.060373  -0.0  0.098095  0.106004  1e-06  0.99953  0.0
H  H52  1  0.30670150  0.41014920  0.97128743  1  0.050855  4.9e-05  0.097288  0.099086  6e-06  0.977294  0.0
H  H53  1  0.30683889  0.58972278  0.02860182  1  0.051271  -6.5e-05  0.097676  0.100019  -2.4e-05  0.97673  0.0
H  H54  1  0.80687345  0.02863562  0.41021422  1  0.050409  -1.2e-05  0.097664  0.099765  -1.6e-05  0.976768  0.0
H  H55  1  0.80662276  0.97131534  0.58982944  1  0.051397  2e-06  0.097458  0.099608  1e-06  0.976768  0.0
H  H56  1  0.27689081  0.29450902  0.81570893  1  0.066613  2.5e-05  0.099995  0.116931  3.7e-05  1.014056  0.0
H  H57  1  0.27694241  0.70524769  0.18413145  1  0.066295  -0.000141  0.100089  0.117591  -0.000119  1.013891  0.0
H  H58  1  0.77681248  0.18420533  0.29475024  1  0.067989  -0.000121  0.100031  0.117336  -8.3e-05  1.01371  0.0
H  H59  1  0.77699314  0.81576361  0.70546917  1  0.065934  4e-06  0.100075  0.117336  2e-06  1.013883  0.0
H  H60  1  0.14548156  0.35480568  0.85631780  1  0.057667  0.000349  0.09798  0.110115  0.000169  0.988569  0.0
H  H61  1  0.14548312  0.64511003  0.14340559  1  0.058134  -7e-06  0.098469  0.111136  1e-06  0.987969  0.0
H  H62  1  0.64540961  0.14344158  0.35492857  1  0.057058  0.000342  0.098345  0.111009  0.000168  0.987932  0.0
H  H63  1  0.64552661  0.85631919  0.64523968  1  0.057948  4e-06  0.098045  0.110238  3e-06  0.988677  0.0
H  H64  1  0.34583386  0.17787652  0.98881365  1  0.093547  0.000939  0.109587  0.078782  0.000441  0.985595  0.001
H  H65  1  0.34591458  0.82210115  0.01132339  1  0.09513  8.7e-05  0.110071  0.079325  6.4e-05  0.98579  0.0
H  H66  1  0.84581708  0.01125963  0.17792942  1  0.094142  0.001064  0.109951  0.079447  0.000523  0.984674  0.001
H  H67  1  0.84586105  0.98877146  0.82216297  1  0.094045  -2.5e-05  0.109736  0.078738  -1.3e-05  0.986507  0.0
H  H68  1  0.37279780  0.19239229  0.50932116  1  0.107365  -0.001267  0.111348  0.082617  -0.000646  0.977538  -0.001
H  H69  1  0.37262429  0.80770151  0.49063169  1  0.105744  -6.9e-05  0.11171  0.083055  -6e-05  0.977938  0.0
H  H70  1  0.87263478  0.49063717  0.19236386  1  0.107267  -0.001372  0.111597  0.0829  -0.000725  0.977144  -0.001
H  H71  1  0.87283802  0.50940935  0.80763342  1  0.107499  3e-05  0.111614  0.082816  1.7e-05  0.978245  0.0
C  C72  1  0.19094482  0.21849851  0.53674600  1  1.510396  -0.000573  0.216222  0.576744  -0.001509  4.083238  -0.001
C  C73  1  0.19086678  0.78171635  0.46310664  1  1.516679  -0.000268  0.217051  0.577678  0.000355  4.082935  -0.001
C  C74  1  0.69084952  0.46336867  0.21833161  1  1.51358  -0.000832  0.217358  0.57869  -0.001176  4.082038  -0.002
C  C75  1  0.69099884  0.53699179  0.78157243  1  1.515127  -4e-05  0.216965  0.576997  -1.5e-05  4.083121  0.0
C  C76  1  0.48530011  0.28580045  0.95901614  1  1.518251  0.000319  0.214581  0.574409  0.001341  4.085981  0.0
C  C77  1  0.48517925  0.71400016  0.04120027  1  1.52309  0.000534  0.214965  0.574646  -0.000156  4.086034  0.001
C  C78  1  0.98520849  0.04094258  0.28595307  1  1.516849  0.000833  0.215307  0.575326  0.001203  4.085615  0.002
C  C79  1  0.98522579  0.95879758  0.71419544  1  1.524041  2.2e-05  0.214591  0.573404  -4e-06  4.086553  0.0
C  C80  1  0.41472457  0.35610648  0.62018526  1  -0.096529  -0.00047  -0.150589  -0.183255  -0.000351  3.912186  0.0
C  C81  1  0.41438974  0.64403714  0.37981078  1  -0.080832  0.000362  -0.150515  -0.183584  0.00027  3.911658  0.0
C  C82  1  0.91453580  0.37987156  0.35607204  1  -0.082066  -0.0001  -0.150433  -0.183166  -7.9e-05  3.91247  0.0
C  C83  1  0.91462052  0.62023330  0.64398314  1  -0.094923  7e-06  -0.150604  -0.183452  7e-06  3.911543  0.0
C  C84  1  0.34708159  0.35707722  0.51856767  1  0.010647  -0.000491  -0.161721  -0.173112  -0.000261  3.890688  0.0
C  C85  1  0.34678564  0.64296238  0.48138529  1  0.012406  -0.000248  -0.162026  -0.174682  -0.000174  3.891583  0.0
C  C86  1  0.84694026  0.48147467  0.35707186  1  0.011052  -0.000735  -0.161839  -0.173696  -0.000426  3.890301  -0.001
C  C87  1  0.84695939  0.51864933  0.64292553  1  0.010611  -2e-06  -0.161897  -0.174042  -5e-06  3.891486  0.0
C  C88  1  0.63094096  0.33383083  0.52394673  1  -0.197272  9.3e-05  -0.236051  -0.404982  8.1e-05  3.907137  0.0
C  C89  1  0.63074796  0.66601173  0.47605464  1  -0.196186  0.000183  -0.235988  -0.405246  9.4e-05  3.906737  0.0
C  C90  1  0.13078359  0.47613524  0.33404366  1  -0.195836  0.00028  -0.236422  -0.405227  0.000175  3.906985  0.0
C  C91  1  0.13093389  0.52399320  0.66620530  1  -0.224609  4e-06  -0.235917  -0.404826  5e-06  3.906965  0.0
C  C92  1  0.03053906  0.19036353  0.97243733  1  -0.168781  8.6e-05  -0.230314  -0.395833  4.5e-05  3.887944  0.0
C  C93  1  0.03069814  0.80969131  0.02731783  1  -0.172295  -0.000229  -0.229784  -0.395317  -0.000119  3.886695  0.0
C  C94  1  0.53059091  0.02731508  0.19038012  1  -0.16901  -0.000172  -0.229508  -0.394261  -0.000101  3.886616  0.0
C  C95  1  0.53061434  0.97243300  0.80973778  1  -0.169688  1.9e-05  -0.229836  -0.395761  2.1e-05  3.887967  0.0
C  C96  1  0.27191519  0.33106300  0.97968493  1  -0.034052  0.000862  -0.15869  -0.168821  0.000542  3.888166  0.001
C  C97  1  0.27201863  0.66876823  0.02010936  1  -0.032931  0.000229  -0.158358  -0.169584  0.000171  3.887887  0.0
C  C98  1  0.77197546  0.02019693  0.33118179  1  -0.033749  0.001073  -0.158571  -0.169138  0.0007  3.888162  0.001
C  C99  1  0.77189331  0.97976442  0.66890865  1  -0.033317  1e-06  -0.158663  -0.169677  3e-06  3.888352  0.0
C  C100  1  0.21314770  0.29890425  0.87881737  1  -0.094911  0.00053  -0.150735  -0.18122  0.000383  3.912649  0.0
C  C101  1  0.21325558  0.70089782  0.12095918  1  -0.091575  -0.000375  -0.150677  -0.182075  -0.000271  3.91282  0.0
C  C102  1  0.71312884  0.12103380  0.29907564  1  -0.093535  0.000149  -0.150709  -0.181912  0.000108  3.913066  0.0
C  C103  1  0.71323465  0.87887825  0.70107141  1  -0.093186  -4e-06  -0.150512  -0.181234  -1e-06  3.912648  0.0
C  C104  1  0.31831585  0.23673885  0.19456988  1  1.391606  0.000886  0.208216  0.351519  0.000607  4.221741  0.002
C  C105  1  0.31869687  0.76332100  0.80536940  1  1.391558  -0.000264  0.208443  0.347411  -0.000231  4.232102  0.0
C  C106  1  0.81832941  0.80540608  0.23666432  1  1.391165  0.000733  0.208511  0.351421  0.000432  4.223011  0.002
C  C107  1  0.81864956  0.19464754  0.76324658  1  1.392245  -3.7e-05  0.2081  0.347479  -1e-05  4.232018  0.0
C  C108  1  0.37122575  0.25706616  0.01269405  1  0.339747  0.001881  0.008532  0.030591  0.001717  3.881099  0.0
C  C109  1  0.37127929  0.74295178  0.98733436  1  0.338518  -0.003845  0.009473  0.030821  -0.002766  3.876237  -0.003
C  C110  1  0.87116731  0.98727664  0.25709597  1  0.33965  -0.002044  0.008664  0.03068  -0.001097  3.881799  -0.003
C  C111  1  0.87121955  0.01267077  0.74300473  1  0.340334  6.3e-05  0.009083  0.030135  4.8e-05  3.878559  0.0
C  C112  1  0.30552039  0.24850739  0.48425327  1  0.325281  -0.001855  0.007898  0.03201  -0.001688  3.873752  0.0
C  C113  1  0.30539804  0.75159702  0.51571856  1  0.327478  0.003645  0.008356  0.031123  0.002616  3.870689  0.003
C  C114  1  0.80544481  0.51579328  0.24849503  1  0.326957  0.001855  0.008019  0.032865  0.000959  3.873468  0.003
C  C115  1  0.80555914  0.48433588  0.75154370  1  0.325336  -4e-05  0.008321  0.03072  -2.9e-05  3.871553  0.0
C  C116  1  0.36538935  0.25497213  0.30233966  1  1.351818  -0.000683  0.208583  0.350809  -0.000391  4.222389  -0.002
C  C117  1  0.36525852  0.74516683  0.69767341  1  1.351882  0.000298  0.209537  0.34773  0.00025  4.230795  0.0
C  C118  1  0.86543270  0.69771342  0.25488047  1  1.350845  -0.000503  0.209474  0.351651  -0.000198  4.22218  -0.001
C  C119  1  0.86525627  0.30236276  0.74507402  1  1.351382  2.7e-05  0.208941  0.34741  5e-06  4.23059  0.0
S  S120  1  0.54100952  0.27200411  0.62038210  1  0.010223  0.001002  -0.012088  0.029986  0.000666  2.873555  0.001
S  S121  1  0.54069094  0.72817356  0.37987145  1  0.009564  -0.001107  -0.011183  0.02898  -0.000784  2.870278  -0.002
S  S122  1  0.04082576  0.37981999  0.27201261  1  0.010283  0.00016  -0.011846  0.028478  3.7e-05  2.872497  -0.001
S  S123  1  0.04090931  0.62032286  0.72814540  1  0.010229  -3.6e-05  -0.011564  0.030408  -1.9e-05  2.871226  0.0
S  S124  1  0.14861365  0.17067533  0.88204364  1  0.014509  -0.002093  -0.014115  0.029595  -0.001361  2.849512  -0.002
S  S125  1  0.14891812  0.82924261  0.11767201  1  0.013573  0.001527  -0.013011  0.028744  0.001059  2.847427  0.002
S  S126  1  0.64867934  0.11775140  0.17081559  1  0.01266  -0.000842  -0.014218  0.027205  -0.000456  2.849861  0.001
S  S127  1  0.64883007  0.88212237  0.82936583  1  0.015015  8.5e-05  -0.013  0.03083  4.1e-05  2.847011  0.0
N  N128  1  0.28665338  0.23936363  0.37400639  1  -1.183053  -0.077728  -0.412766  -0.413749  -0.050231  3.651794  -0.064
N  N129  1  0.28662523  0.76106206  0.62599664  1  -1.174632  0.002352  -0.407431  -0.401041  0.001473  3.642831  0.002
N  N130  1  0.78668041  0.62601581  0.23934524  1  -1.181654  -0.077246  -0.412356  -0.413895  -0.049985  3.651271  -0.064
N  N131  1  0.78668812  0.37407445  0.76099576  1  -1.174371  0.001289  -0.407828  -0.401189  0.000866  3.644078  0.001
N  N132  1  0.39384990  0.26119655  0.12259337  1  -1.206525  0.080868  -0.414605  -0.416206  0.052107  3.664051  0.066
N  N133  1  0.39424789  0.73939312  0.87739630  1  -1.198499  -0.002599  -0.4092  -0.403747  -0.001622  3.656812  -0.002
N  N134  1  0.89382993  0.87741245  0.26104984  1  -1.205808  0.080101  -0.414135  -0.415613  0.051697  3.664786  0.066
N  N135  1  0.89416366  0.12259469  0.73927388  1  -1.198781  -0.001121  -0.409384  -0.403993  -0.000761  3.658074  -0.001
O  O136  1  0.57180945  0.31594210  0.01296988  1  -1.1053  0.076845  -0.312303  -0.519283  0.049353  2.301177  0.071
O  O137  1  0.57169785  0.68378534  0.98742107  1  -1.103772  -0.002951  -0.310674  -0.516034  -0.001711  2.299588  -0.003
O  O138  1  0.07183101  0.98697267  0.31583573  1  -1.104359  0.076821  -0.311968  -0.519305  0.049515  2.300316  0.07
O  O139  1  0.07162548  0.01257196  0.68369984  1  -1.104283  -0.00228  -0.310839  -0.515677  -0.001472  2.301269  -0.002
O  O140  1  0.10209395  0.19733332  0.48121468  1  -1.114826  -0.073946  -0.315131  -0.524258  -0.047622  2.294331  -0.068
O  O141  1  0.10190194  0.80240558  0.51852245  1  -1.111386  0.00268  -0.31331  -0.520575  0.001553  2.293063  0.003
O  O142  1  0.60192240  0.51894595  0.19755209  1  -1.113944  -0.073726  -0.314958  -0.524704  -0.047653  2.29341  -0.068
O  O143  1  0.60214252  0.48159312  0.80273374  1  -1.11341  0.002019  -0.314  -0.520977  0.001315  2.29492  0.002
O  O144  1  0.19009069  0.21762241  0.63526354  1  -1.086391  -0.01364  -0.317672  -0.488616  -0.008707  2.353396  -0.011
O  O145  1  0.19028369  0.78315716  0.36455177  1  -1.093835  0.042232  -0.318638  -0.49236  0.027337  2.351113  0.038
O  O146  1  0.69003446  0.36485885  0.21686843  1  -1.089005  0.028555  -0.318343  -0.491582  0.01863  2.352801  0.026
O  O147  1  0.69023471  0.63555117  0.78241424  1  -1.088425  -0.000707  -0.317236  -0.487957  -0.00047  2.352425  -0.001
O  O148  1  0.48787188  0.27970579  0.86054262  1  -1.086217  0.014393  -0.31865  -0.489705  0.0092  2.340829  0.012
O  O149  1  0.48749277  0.71975237  0.13972779  1  -1.090771  -0.047372  -0.31993  -0.493651  -0.030598  2.34053  -0.042
O  O150  1  0.98773045  0.13943732  0.28042932  1  -1.085351  -0.032819  -0.31931  -0.49245  -0.021332  2.342752  -0.03
O  O151  1  0.98776594  0.86030512  0.72049356  1  -1.090359  0.000706  -0.31821  -0.488889  0.000468  2.34083  0.001
O  O152  1  0.21453818  0.20264381  0.18300841  1  -1.097242  -0.06625  -0.29883  -0.461183  -0.042597  2.306763  -0.06
O  O153  1  0.21479789  0.79661755  0.81706279  1  -1.082675  0.001734  -0.289716  -0.446747  0.001134  2.309633  0.002
O  O154  1  0.71447364  0.81687578  0.20267273  1  -1.095757  -0.067397  -0.298029  -0.460233  -0.043306  2.307712  -0.061
O  O155  1  0.71480070  0.18294942  0.79662422  1  -1.084125  0.002331  -0.290075  -0.447235  0.001493  2.309929  0.002
O  O156  1  0.47158884  0.28348604  0.31375864  1  -1.106686  0.064466  -0.301995  -0.471655  0.041657  2.320721  0.059
O  O157  1  0.47117007  0.71654505  0.68620123  1  -1.092285  -0.00173  -0.293339  -0.457821  -0.001136  2.321335  -0.002
O  O158  1  0.97166674  0.68637278  0.28331114  1  -1.106214  0.065505  -0.301721  -0.471062  0.042297  2.320218  0.06
O  O159  1  0.97116285  0.31383255  0.71644300  1  -1.093909  -0.002425  -0.293851  -0.458371  -0.001568  2.32153  -0.002
