# generated using pymatgen
data_CdH21C33N5O4
_symmetry_space_group_name_H-M   'P 1'
_cell_length_a   11.28696890
_cell_length_b   11.28697095
_cell_length_c   25.29974552
_cell_angle_alpha   84.19810642
_cell_angle_beta   84.19815783
_cell_angle_gamma   73.56846136
_symmetry_Int_Tables_number   1
_chemical_formula_structural   CdH21C33N5O4
_chemical_formula_sum   'Cd4 H84 C132 N20 O16'
_cell_volume   3066.71857498
_cell_formula_units_Z   4
loop_
 _symmetry_equiv_pos_site_id
 _symmetry_equiv_pos_as_xyz
  1  'x, y, z'
loop_
 _atom_site_type_symbol
 _atom_site_label
 _atom_site_symmetry_multiplicity
 _atom_site_fract_x
 _atom_site_fract_y
 _atom_site_fract_z
 _atom_site_occupancy
 _atom_site_pbe_bader_charge
 _atom_site_pbe_bader_spin_density
 _atom_site_pbe_cm5_charge
 _atom_site_pbe_ddec_charge
 _atom_site_pbe_ddec_spin_density
 _atom_site_pbe_ddec_sum_bond_order
 _atom_site_pbe_magmom
Cd  Cd0  1  0.27591679  0.42576566  0.99596717  1  1.236893  0  0.768885  0.857971  0  2.143604  0
Cd  Cd1  1  0.57423554  0.72408263  0.50403352  1  1.236901  0  0.768903  0.858009  0  2.143571  0
Cd  Cd2  1  0.72408237  0.57423334  0.00403307  1  1.236887  0  0.768861  0.857949  0  2.143618  0
Cd  Cd3  1  0.42576733  0.27591714  0.49596691  1  1.236885  0  0.768885  0.858004  0  2.143619  0
H  H4  1  0.14996150  0.78974981  0.88305132  1  0.106813  0  0.103092  0.108443  0  1.027123  0
H  H5  1  0.21024920  0.85003727  0.61694941  1  0.106793  0  0.103096  0.108466  0  1.027131  0
H  H6  1  0.85004045  0.21025022  0.11694992  1  0.106786  0  0.103086  0.108477  0  1.027121  0
H  H7  1  0.78974996  0.14996083  0.38305049  1  0.10678  0  0.103086  0.108439  0  1.027146  0
H  H8  1  0.17291075  0.94009097  0.80532195  1  0.017975  0  0.093781  0.087289  0  1.031139  0
H  H9  1  0.05990831  0.82708891  0.69467751  1  0.01798  0  0.093777  0.087284  0  1.031118  0
H  H10  1  0.82709026  0.05990930  0.19467814  1  0.017867  0  0.093777  0.087307  0  1.031163  0
H  H11  1  0.94008898  0.17291147  0.30532118  1  0.017892  0  0.093786  0.087311  0  1.031168  0
H  H12  1  0.56880242  0.79104677  0.80119549  1  0.033181  0  0.09842  0.096467  0  1.032545  0
H  H13  1  0.20895075  0.43119867  0.69880331  1  0.033181  0  0.098415  0.096463  0  1.032576  0
H  H14  1  0.43119950  0.20894788  0.19880286  1  0.033211  0  0.098419  0.096481  0  1.032513  0
H  H15  1  0.79104932  0.56880006  0.30119572  1  0.033208  0  0.098413  0.096459  0  1.032547  0
H  H16  1  0.54433404  0.63416462  0.87535635  1  0.113851  0  0.102986  0.112893  0  1.009534  0
H  H17  1  0.36583495  0.45566491  0.62464367  1  0.113858  0  0.102996  0.112922  0  1.009514  0
H  H18  1  0.45566789  0.36583361  0.12464301  1  0.113739  0  0.103  0.112929  0  1.009489  0
H  H19  1  0.63416699  0.54433421  0.37535644  1  0.113875  0  0.102988  0.11291  0  1.009508  0
H  H20  1  0.23461385  0.91541758  0.71399068  1  0.050101  0  0.093881  0.092128  0  1.044467  0
H  H21  1  0.08458027  0.76538511  0.78600851  1  0.05024  0  0.093902  0.092165  0  1.044454  0
H  H22  1  0.76538437  0.08458166  0.28600802  1  0.050225  0  0.093882  0.09215  0  1.044444  0
H  H23  1  0.91541610  0.23461642  0.21399096  1  0.050129  0  0.093885  0.092163  0  1.044461  0
H  H24  1  0.25932267  0.03837805  0.62805019  1  0.102776  0  0.099817  0.103453  0  1.036517  0
H  H25  1  0.96162412  0.74067366  0.87194949  1  0.102844  0  0.09979  0.103413  0  1.036619  0
H  H26  1  0.74067463  0.96162501  0.37194916  1  0.102928  0  0.099789  0.103414  0  1.036613  0
H  H27  1  0.03837596  0.25932596  0.12804989  1  0.102931  0  0.099776  0.103397  0  1.036618  0
H  H28  1  0.56314223  0.13422199  0.68474984  1  0.076495  0  0.100509  0.103094  0  1.000321  0
H  H29  1  0.86577676  0.43685634  0.81525034  1  0.076455  0  0.100511  0.103082  0  1.000335  0
H  H30  1  0.43685508  0.86577840  0.31525004  1  0.076452  0  0.100515  0.103081  0  1.000337  0
H  H31  1  0.13422240  0.56314444  0.18474982  1  0.076451  0  0.100518  0.103079  0  1.000334  0
H  H32  1  0.54050881  0.00939279  0.77086127  1  0.046419  0  0.097393  0.095319  0  1.021474  0
H  H33  1  0.99060398  0.45948995  0.72913823  1  0.046376  0  0.097432  0.095356  0  1.021421  0
H  H34  1  0.45949127  0.99060415  0.22913745  1  0.046364  0  0.097426  0.095356  0  1.021427  0
H  H35  1  0.00939147  0.54051006  0.27086175  1  0.046381  0  0.097426  0.095369  0  1.021499  0
H  H36  1  0.58046264  0.33156063  0.95159564  1  0.191138  0  0.149737  0.134081  0  0.973182  0
H  H37  1  0.66843879  0.41953833  0.54840515  1  0.191111  0  0.149744  0.134073  0  0.973166  0
H  H38  1  0.41953745  0.66844079  0.04840484  1  0.191137  0  0.149732  0.134092  0  0.973148  0
H  H39  1  0.33156037  0.58046067  0.45159510  1  0.191126  0  0.149744  0.13407  0  0.973166  0
H  H40  1  0.29074883  0.18305938  0.08608536  1  0.143284  0  0.107238  0.126422  0  1.032525  0
H  H41  1  0.81694044  0.70925000  0.41391547  1  0.14329  0  0.10724  0.126402  0  1.03255  0
H  H42  1  0.70924941  0.81694077  0.91391488  1  0.143296  0  0.107235  0.126415  0  1.032554  0
H  H43  1  0.18305873  0.29074990  0.58608512  1  0.143287  0  0.107239  0.126421  0  1.032532  0
H  H44  1  0.36389244  0.97855821  0.13873294  1  0.071805  0  0.099568  0.098115  0  0.991894  0
H  H45  1  0.02144066  0.63610806  0.36126731  1  0.071801  0  0.099545  0.098078  0  0.991959  0
H  H46  1  0.63610858  0.02144117  0.86126720  1  0.071803  0  0.099545  0.098055  0  0.991941  0
H  H47  1  0.97855851  0.36389272  0.63873364  1  0.071797  0  0.099565  0.098113  0  0.991901  0
H  H48  1  0.58108938  0.85074635  0.12581595  1  0.070377  0  0.095229  0.093011  0  1.045887  0
H  H49  1  0.14925359  0.41891010  0.37418476  1  0.070446  0  0.095245  0.093006  0  1.04595  0
H  H50  1  0.41890977  0.14925443  0.87418381  1  0.070356  0  0.095248  0.093021  0  1.045929  0
H  H51  1  0.85074557  0.58109157  0.62581575  1  0.070423  0  0.095259  0.093033  0  1.045948  0
H  H52  1  0.73020632  0.91651816  0.05907406  1  0.056903  0  0.098787  0.095737  0  1.069761  0
H  H53  1  0.08348329  0.26979428  0.44092615  1  0.056937  0  0.098782  0.095753  0  1.069749  0
H  H54  1  0.26979282  0.08348439  0.94092523  1  0.056884  0  0.098782  0.095752  0  1.069756  0
H  H55  1  0.91651772  0.73020510  0.55907359  1  0.056949  0  0.098762  0.095716  0  1.069769  0
H  H56  1  0.80356872  0.29862758  0.96621948  1  0.17412  0  0.11978  0.150743  0  1.032922  0
H  H57  1  0.70137479  0.19642899  0.53378138  1  0.174186  0  0.119736  0.150671  0  1.033021  0
H  H58  1  0.19642766  0.70137396  0.03378078  1  0.174137  0  0.119758  0.150692  0  1.032992  0
H  H59  1  0.29862900  0.80357141  0.46621858  1  0.174101  0  0.119781  0.15075  0  1.032914  0
H  H60  1  0.10213210  0.99742850  0.90765991  1  0.097  0  0.113146  0.08945  0  1.030382  0
H  H61  1  0.00257509  0.89786477  0.59233985  1  0.097453  0  0.113143  0.089464  0  1.030387  0
H  H62  1  0.89786613  0.00257432  0.09233980  1  0.097472  0  0.113146  0.089454  0  1.030399  0
H  H63  1  0.99742685  0.10213346  0.40765990  1  0.097483  0  0.113149  0.089461  0  1.030368  0
H  H64  1  0.77481089  0.92336817  0.97015626  1  0.080254  0  0.114508  0.090292  0  1.041138  0
H  H65  1  0.07663363  0.22518836  0.52984402  1  0.080307  0  0.114513  0.090298  0  1.041084  0
H  H66  1  0.22518919  0.07663325  0.02984383  1  0.080241  0  0.114512  0.090292  0  1.041055  0
H  H67  1  0.92336924  0.77481050  0.47015566  1  0.080287  0  0.1145  0.090294  0  1.041137  0
H  H68  1  0.03208296  0.30195940  0.00224188  1  0.213202  0  0.147404  0.131844  0  0.982877  0
H  H69  1  0.69804124  0.96791476  0.49775850  1  0.213227  0  0.147374  0.131766  0  0.982992  0
H  H70  1  0.96791527  0.69804164  0.99775871  1  0.213227  0  0.147372  0.131765  0  0.983004  0
H  H71  1  0.30196070  0.03208258  0.50224169  1  0.213219  0  0.147397  0.131771  0  0.983004  0
H  H72  1  0.06038432  0.15047500  0.81792990  1  0.05838  0  0.103402  0.109924  0  1.005471  0
H  H73  1  0.84952513  0.93961641  0.68207080  1  0.05835  0  0.103409  0.109897  0  1.005467  0
H  H74  1  0.93961392  0.84952604  0.18207029  1  0.058365  0  0.103402  0.1099  0  1.005472  0
H  H75  1  0.15047404  0.06038884  0.31793033  1  0.058384  0  0.103395  0.109896  0  1.005553  0
H  H76  1  0.21368331  0.20607237  0.74874359  1  0.087859  0  0.097493  0.094485  0  1.026458  0
H  H77  1  0.79392692  0.78631775  0.75125794  1  0.087814  0  0.097547  0.094578  0  1.026421  0
H  H78  1  0.78631586  0.79392753  0.25125780  1  0.087817  0  0.097513  0.094521  0  1.026436  0
H  H79  1  0.20607131  0.21368685  0.24874287  1  0.087831  0  0.097504  0.094487  0  1.026444  0
H  H80  1  0.34311976  0.33752079  0.76810935  1  0.060783  0  0.103475  0.103643  0  0.997282  0
H  H81  1  0.66247987  0.65688025  0.73189137  1  0.060757  0  0.103483  0.103669  0  0.997243  0
H  H82  1  0.65688127  0.66247770  0.23189162  1  0.060793  0  0.103484  0.103652  0  0.997225  0
H  H83  1  0.33752300  0.34312041  0.26810901  1  0.060791  0  0.103487  0.103648  0  0.997216  0
H  H84  1  0.32690271  0.41753052  0.85802834  1  0.110822  0  0.109732  0.127656  0  1.002755  0
H  H85  1  0.58247187  0.67309873  0.64197182  1  0.110859  0  0.10972  0.127649  0  1.002835  0
H  H86  1  0.67309924  0.58246861  0.14197255  1  0.11081  0  0.109743  0.127679  0  1.002744  0
H  H87  1  0.41753377  0.32690027  0.35802772  1  0.110784  0  0.109722  0.127665  0  1.002761  0
C  C88  1  0.32961495  0.60442932  0.92500948  1  1.537678  0  0.184625  0.548503  0  4.243123  0
C  C89  1  0.39557164  0.67038402  0.57499162  1  1.537666  0  0.184601  0.548434  0  4.243208  0
C  C90  1  0.67038607  0.39557006  0.07499066  1  1.537669  0  0.184626  0.548532  0  4.243209  0
C  C91  1  0.60443031  0.32961511  0.42500928  1  1.537691  0  0.184601  0.548517  0  4.243114  0
C  C92  1  0.34539662  0.70218444  0.88292764  1  -0.075924  0  -0.022755  -0.033035  0  3.982965  0
C  C93  1  0.29781430  0.65460429  0.61707306  1  -0.07593  0  -0.022735  -0.033  0  3.983027  0
C  C94  1  0.65460625  0.29781355  0.11707287  1  -0.07582  0  -0.022657  -0.032899  0  3.983026  0
C  C95  1  0.70218579  0.34539534  0.38292711  1  -0.075923  0  -0.022719  -0.033019  0  3.983034  0
C  C96  1  0.24090985  0.79043096  0.86406541  1  -0.056898  0  -0.08931  -0.097491  0  3.983829  0
C  C97  1  0.20956918  0.75909018  0.63593482  1  -0.056908  0  -0.089349  -0.097588  0  3.983911  0
C  C98  1  0.75909302  0.20956792  0.13593545  1  -0.05714  0  -0.089364  -0.097621  0  3.983958  0
C  C99  1  0.79043182  0.24090918  0.36406413  1  -0.05731  0  -0.089329  -0.097523  0  3.98389  0
C  C100  1  0.25441286  0.87360475  0.82100053  1  -0.032455  0  -0.09718  -0.145258  0  4.005021  0
C  C101  1  0.12639510  0.74558728  0.67899891  1  -0.032424  0  -0.097165  -0.14519  0  4.00495  0
C  C102  1  0.74559000  0.12639411  0.17899875  1  -0.032199  0  -0.097203  -0.145302  0  4.005079  0
C  C103  1  0.87360404  0.25441081  0.32099979  1  -0.031971  0  -0.097191  -0.145291  0  4.005067  0
C  C104  1  0.37240957  0.87402404  0.79715601  1  -0.013599  0  -0.002488  0.079232  0  3.987014  0
C  C105  1  0.12597433  0.62758829  0.70284325  1  -0.013589  0  -0.002494  0.07916  0  3.987002  0
C  C106  1  0.62759143  0.12597176  0.20284272  1  -0.013638  0  -0.002478  0.079213  0  3.98705  0
C  C107  1  0.87402481  0.37240891  0.29715550  1  -0.013638  0  -0.002482  0.079265  0  3.987063  0
C  C108  1  0.47680592  0.79035088  0.81873671  1  6.9e-05  0  -0.089663  -0.128682  0  3.972889  0
C  C109  1  0.20964721  0.52319370  0.68126290  1  2.5e-05  0  -0.089678  -0.128677  0  3.972984  0
C  C110  1  0.52319601  0.20964467  0.18126238  1  6.8e-05  0  -0.089681  -0.128691  0  3.972957  0
C  C111  1  0.79035194  0.47680439  0.31873620  1  5.9e-05  0  -0.089658  -0.128686  0  3.972981  0
C  C112  1  0.46369196  0.70314580  0.86023648  1  -0.017387  0  -0.083104  -0.083273  0  3.963165  0
C  C113  1  0.29685295  0.53630867  0.63976346  1  -0.017367  0  -0.0831  -0.083283  0  3.963212  0
C  C114  1  0.53631090  0.29685128  0.13976289  1  -0.017289  0  -0.083114  -0.083308  0  3.963297  0
C  C115  1  0.70314713  0.46369007  0.36023635  1  -0.017358  0  -0.083099  -0.083272  0  3.963238  0
C  C116  1  0.38525614  0.95448404  0.74847838  1  -0.047441  0  -0.003119  0.073124  0  3.996256  0
C  C117  1  0.04551179  0.61474220  0.75152057  1  -0.047486  0  -0.003118  0.073229  0  3.996132  0
C  C118  1  0.61474392  0.04551201  0.25151960  1  -0.047437  0  -0.003181  0.073145  0  3.996184  0
C  C119  1  0.95448459  0.38525756  0.24847938  1  -0.047469  0  -0.003128  0.073202  0  3.996198  0
C  C120  1  0.30471434  0.96590655  0.70818013  1  -0.050968  0  -0.094939  -0.136376  0  3.986469  0
C  C121  1  0.03409076  0.69528443  0.79181949  1  -0.051262  0  -0.094943  -0.136454  0  3.986508  0
C  C122  1  0.69528480  0.03409065  0.29181862  1  -0.050903  0  -0.09491  -0.136405  0  3.986433  0
C  C123  1  0.96590748  0.30471661  0.20818070  1  -0.051317  0  -0.094942  -0.13651  0  3.986527  0
C  C124  1  0.31857481  0.03359089  0.66011410  1  -0.068958  0  -0.08767  -0.092074  0  3.979749  0
C  C125  1  0.96640891  0.68142315  0.83988523  1  -0.068728  0  -0.087646  -0.091993  0  3.979987  0
C  C126  1  0.68142248  0.96641039  0.33988493  1  -0.069077  0  -0.087639  -0.091982  0  3.979966  0
C  C127  1  0.03359024  0.31857762  0.16011414  1  -0.068618  0  -0.087636  -0.091922  0  3.979895  0
C  C128  1  0.41259124  0.09391554  0.65138414  1  0.013222  0  -0.023392  -0.035556  0  3.97542  0
C  C129  1  0.90608321  0.58740702  0.84861564  1  0.012968  0  -0.023459  -0.035746  0  3.975773  0
C  C130  1  0.58740606  0.90608574  0.34861530  1  0.012747  0  -0.023466  -0.035749  0  3.975804  0
C  C131  1  0.09391502  0.41259401  0.15138455  1  0.012657  0  -0.023475  -0.035791  0  3.975827  0
C  C132  1  0.49113831  0.08607389  0.69189833  1  -0.082043  0  -0.08516  -0.089387  0  3.98777  0
C  C133  1  0.91392325  0.50886105  0.80810109  1  -0.081648  0  -0.085084  -0.089202  0  3.987785  0
C  C134  1  0.50885992  0.91392536  0.30810116  1  -0.081614  0  -0.085092  -0.089192  0  3.987822  0
C  C135  1  0.08607313  0.49114138  0.19189872  1  -0.081911  0  -0.085084  -0.089156  0  3.987755  0
C  C136  1  0.47838069  0.01620690  0.73968598  1  0.000334  0  -0.090619  -0.131531  0  3.985548  0
C  C137  1  0.98378870  0.52161879  0.76031313  1  0.000295  0  -0.090668  -0.131643  0  3.9855  0
C  C138  1  0.52161938  0.98379005  0.26031274  1  0.000434  0  -0.090643  -0.131631  0  3.985547  0
C  C139  1  0.01620675  0.47838211  0.23968681  1  0.00073  0  -0.090651  -0.131665  0  3.985582  0
C  C140  1  0.42934478  0.16123707  0.59835389  1  1.534449  0  0.185934  0.551116  0  4.235312  0
C  C141  1  0.83876439  0.57065390  0.90164612  1  1.534437  0  0.185947  0.551098  0  4.235321  0
C  C142  1  0.57065252  0.83876510  0.40164550  1  1.534369  0  0.185924  0.551022  0  4.235374  0
C  C143  1  0.16123570  0.42934753  0.09835475  1  1.534435  0  0.185954  0.551089  0  4.235476  0
C  C144  1  0.56223036  0.26142583  0.98151434  1  1.014753  0  0.172325  0.149209  0  3.867131  0
C  C145  1  0.73857490  0.43776906  0.51848608  1  1.014751  0  0.172302  0.14926  0  3.867128  0
C  C146  1  0.43776880  0.73857762  0.01848609  1  1.014769  0  0.172314  0.14922  0  3.867114  0
C  C147  1  0.26142519  0.56223057  0.48151370  1  1.014734  0  0.172316  0.14929  0  3.867063  0
C  C148  1  0.46902151  0.16053093  0.04192957  1  0.372353  0  0.087566  0.140923  0  4.063655  0
C  C149  1  0.83946985  0.53097868  0.45807159  1  0.372249  0  0.087595  0.140975  0  4.06352  0
C  C150  1  0.53097766  0.83946985  0.95807099  1  0.372377  0  0.087579  0.140972  0  4.063642  0
C  C151  1  0.16053024  0.46901917  0.54192827  1  0.372361  0  0.087573  0.140933  0  4.063573  0
C  C152  1  0.38486710  0.12351662  0.07977170  1  -0.102672  0  -0.093677  -0.160169  0  3.980585  0
C  C153  1  0.87648319  0.61513363  0.42022868  1  -0.102677  0  -0.093643  -0.160108  0  3.980498  0
C  C154  1  0.61513298  0.87648390  0.92022764  1  -0.102647  0  -0.09369  -0.160157  0  3.980519  0
C  C155  1  0.12351597  0.38486626  0.57977152  1  -0.102678  0  -0.093688  -0.16018  0  3.980583  0
C  C156  1  0.42716151  0.01052820  0.10894383  1  -0.047021  0  -0.099595  -0.096161  0  4.040738  0
C  C157  1  0.98947200  0.57283830  0.39105660  1  -0.046995  0  -0.099628  -0.09617  0  4.040798  0
C  C158  1  0.57283579  0.98947308  0.89105560  1  -0.04702  0  -0.099533  -0.096066  0  4.040674  0
C  C159  1  0.01052809  0.42716223  0.60894432  1  -0.046985  0  -0.099558  -0.096108  0  4.040703  0
C  C160  1  0.55031083  0.93734030  0.10148526  1  -0.01622  0  -0.094712  -0.071567  0  4.003029  0
C  C161  1  0.06266013  0.44968935  0.39851537  1  -0.016266  0  -0.094711  -0.07157  0  4.003103  0
C  C162  1  0.44968832  0.06266048  0.89851411  1  -0.016247  0  -0.094762  -0.071601  0  4.003099  0
C  C163  1  0.93733903  0.55031321  0.60148470  1  -0.016269  0  -0.094763  -0.071628  0  4.00307  0
C  C164  1  0.63509807  0.97366797  0.06401530  1  0.019699  0  -0.096414  -0.160323  0  3.998328  0
C  C165  1  0.02633304  0.36490231  0.43598610  1  0.019914  0  -0.096428  -0.160356  0  3.998284  0
C  C166  1  0.36490109  0.02633281  0.93598447  1  0.019971  0  -0.096406  -0.160349  0  3.998268  0
C  C167  1  0.97366705  0.63509733  0.56401446  1  0.019913  0  -0.096393  -0.160325  0  3.998266  0
C  C168  1  0.59225704  0.08576096  0.03396318  1  0.348666  0  0.09518  0.094547  0  3.979541  0
C  C169  1  0.91424066  0.40774271  0.46603800  1  0.348396  0  0.095215  0.094604  0  3.979483  0
C  C170  1  0.40774212  0.91423981  0.96603698  1  0.348401  0  0.095176  0.09454  0  3.979547  0
C  C171  1  0.08576128  0.59225641  0.53396171  1  0.34843  0  0.095206  0.094651  0  3.979322  0
C  C172  1  0.77273938  0.11553905  0.97148165  1  0.336696  0  0.104037  0.149666  0  3.998818  0
C  C173  1  0.88446266  0.22726060  0.52851956  1  0.336866  0  0.104022  0.149651  0  3.998851  0
C  C174  1  0.22725977  0.88446173  0.02851812  1  0.33724  0  0.104015  0.149625  0  3.99895  0
C  C175  1  0.11554208  0.77273867  0.47148160  1  0.336676  0  0.104032  0.149673  0  3.998815  0
C  C176  1  0.84066032  0.20173322  0.95800975  1  0.053866  0  -0.060653  -0.185059  0  3.871591  0
C  C177  1  0.79827021  0.15933779  0.54199186  1  0.053194  0  -0.060569  -0.184903  0  3.8716  0
C  C178  1  0.15933698  0.79826896  0.04199004  1  0.053308  0  -0.060606  -0.184959  0  3.871668  0
C  C179  1  0.20173359  0.84066084  0.45800898  1  0.053454  0  -0.060618  -0.185  0  3.871664  0
C  C180  1  0.96060039  0.15798535  0.93489053  1  0.293577  0  0.10085  0.147353  0  4.014959  0
C  C181  1  0.84201727  0.03939889  0.56511030  1  0.294108  0  0.100831  0.147342  0  4.015041  0
C  C182  1  0.03939784  0.84201747  0.06510918  1  0.293624  0  0.100838  0.147311  0  4.015008  0
C  C183  1  0.15798467  0.96060113  0.43488977  1  0.29402  0  0.100806  0.147295  0  4.015067  0
C  C184  1  0.00763325  0.03265195  0.92526809  1  0.536569  0  0.039482  -0.016761  0  3.982671  0
C  C185  1  0.96735041  0.99236439  0.57473266  1  0.535929  0  0.039402  -0.016872  0  3.982706  0
C  C186  1  0.99236406  0.96734934  0.07473213  1  0.535916  0  0.03945  -0.01677  0  3.982645  0
C  C187  1  0.03265245  0.00763448  0.42526702  1  0.535926  0  0.039457  -0.016769  0  3.982634  0
C  C188  1  0.82684740  0.99158302  0.96065703  1  0.576331  0  0.040442  -0.015696  0  3.982595  0
C  C189  1  0.00841964  0.17315136  0.53934322  1  0.576251  0  0.040415  -0.015693  0  3.982483  0
C  C190  1  0.17315082  0.00841801  0.03934276  1  0.576361  0  0.040445  -0.015634  0  3.982443  0
C  C191  1  0.99158416  0.82684815  0.46065678  1  0.576376  0  0.040419  -0.015713  0  3.98236  0
C  C192  1  0.07185847  0.30089805  0.96124103  1  0.990803  0  0.168384  0.147527  0  3.869588  0
C  C193  1  0.69910374  0.92814083  0.53875962  1  0.9908  0  0.168434  0.147593  0  3.869799  0
C  C194  1  0.92814069  0.69910273  0.03875952  1  0.990693  0  0.16843  0.147595  0  3.869746  0
C  C195  1  0.30089912  0.07185804  0.46124005  1  0.990708  0  0.168443  0.147596  0  3.869875  0
C  C196  1  0.11107936  0.25174882  0.87672666  1  0.329977  0  0.092893  0.087565  0  4.004497  0
C  C197  1  0.74825275  0.88892053  0.62327400  1  0.329846  0  0.092914  0.0876  0  4.0045  0
C  C198  1  0.88891888  0.74825311  0.12327388  1  0.329851  0  0.092904  0.087563  0  4.004425  0
C  C199  1  0.25174826  0.11108152  0.37672601  1  0.329915  0  0.092942  0.087647  0  4.004425  0
C  C200  1  0.11831911  0.20754998  0.82661831  1  -0.042275  0  -0.095534  -0.167824  0  4.021037  0
C  C201  1  0.79245150  0.88168243  0.67338307  1  -0.04222  0  -0.095566  -0.16779  0  4.020933  0
C  C202  1  0.88168006  0.79245170  0.17338259  1  -0.042188  0  -0.09557  -0.167806  0  4.020972  0
C  C203  1  0.20754766  0.11832103  0.32661775  1  -0.042279  0  -0.095568  -0.167827  0  4.021067  0
C  C204  1  0.20340071  0.24015348  0.78821575  1  0.003049  0  -0.093229  -0.07943  0  4.026108  0
C  C205  1  0.75984659  0.79659896  0.71178462  1  0.002876  0  -0.09329  -0.079569  0  4.026166  0
C  C206  1  0.79659846  0.75984641  0.21178485  1  0.002871  0  -0.093229  -0.07948  0  4.026099  0
C  C207  1  0.24015350  0.20340335  0.28821582  1  0.003118  0  -0.093238  -0.079485  0  4.026034  0
C  C208  1  0.27745798  0.31499818  0.79937664  1  -0.037957  0  -0.093065  -0.091197  0  4.023575  0
C  C209  1  0.68500324  0.72254100  0.70062408  1  -0.037751  0  -0.093053  -0.091212  0  4.023513  0
C  C210  1  0.72254118  0.68500171  0.20062395  1  -0.037784  0  -0.093037  -0.091136  0  4.023433  0
C  C211  1  0.31499870  0.27745902  0.29937677  1  -0.037999  0  -0.093058  -0.091154  0  4.023458  0
C  C212  1  0.26906909  0.36035521  0.84919166  1  -0.023137  0  -0.083827  -0.141293  0  3.944656  0
C  C213  1  0.63964642  0.73092973  0.65080945  1  -0.02314  0  -0.083836  -0.141298  0  3.944619  0
C  C214  1  0.73093008  0.63964469  0.15080934  1  -0.023125  0  -0.083879  -0.141401  0  3.944633  0
C  C215  1  0.36035738  0.26906890  0.34919138  1  -0.023056  0  -0.083843  -0.141347  0  3.944642  0
C  C216  1  0.18487107  0.32715060  0.88833524  1  0.366648  0  0.089417  0.145305  0  4.049427  0
C  C217  1  0.67284998  0.81513052  0.61166578  1  0.367214  0  0.089434  0.145336  0  4.049395  0
C  C218  1  0.81512903  0.67284904  0.11166532  1  0.366664  0  0.089426  0.145345  0  4.049404  0
C  C219  1  0.32715197  0.18486951  0.38833508  1  0.366574  0  0.089467  0.145364  0  4.049364  0
N  N220  1  0.03935807  0.23733224  0.92400983  1  -1.268112  0  -0.22487  -0.059521  0  3.7431  0
N  N221  1  0.76266969  0.96064104  0.57599083  1  -1.267988  0  -0.224847  -0.059509  0  3.743182  0
N  N222  1  0.96064017  0.76266969  0.07599071  1  -1.267972  0  -0.224851  -0.059474  0  3.743043  0
N  N223  1  0.23733225  0.03935987  0.42400919  1  -1.267977  0  -0.22487  -0.05953  0  3.743166  0
N  N224  1  0.15877355  0.35436503  0.94143493  1  -1.222698  0  -0.344954  -0.338323  0  3.430591  0
N  N225  1  0.64563559  0.84122744  0.55856610  1  -1.223302  0  -0.344962  -0.338327  0  3.430601  0
N  N226  1  0.84122747  0.64563347  0.05856565  1  -1.222679  0  -0.344959  -0.338337  0  3.43065  0
N  N227  1  0.35436820  0.15877118  0.44143433  1  -1.222713  0  -0.345032  -0.338361  0  3.430767  0
N  N228  1  0.64975794  0.15274197  0.99496193  1  -1.267371  0  -0.216229  -0.049088  0  3.727129  0
N  N229  1  0.84725998  0.35024161  0.50503925  1  -1.267377  0  -0.216243  -0.049257  0  3.727273  0
N  N230  1  0.35024029  0.84725995  0.00503822  1  -1.267411  0  -0.216231  -0.049119  0  3.727235  0
N  N231  1  0.15274196  0.64975841  0.49496121  1  -1.267412  0  -0.216267  -0.049244  0  3.727273  0
N  N232  1  0.45415842  0.26854407  0.00842217  1  -1.210471  0  -0.344334  -0.332104  0  3.471517  0
N  N233  1  0.73145657  0.54584013  0.49157826  1  -1.210339  0  -0.344342  -0.332109  0  3.471446  0
N  N234  1  0.54583982  0.73145875  0.99157873  1  -1.210432  0  -0.344308  -0.332127  0  3.471472  0
N  N235  1  0.26854259  0.45415798  0.50842163  1  -1.210467  0  -0.344324  -0.332136  0  3.471447  0
N  N236  1  0.94165399  0.95098752  0.93772662  1  -1.187172  0  -0.316414  -0.223905  0  3.363166  0
N  N237  1  0.04901677  0.05834364  0.56227325  1  -1.187138  0  -0.316358  -0.223867  0  3.362976  0
N  N238  1  0.05834424  0.04901530  0.06227349  1  -1.187089  0  -0.316414  -0.223965  0  3.363029  0
N  N239  1  0.95098701  0.94165497  0.43772600  1  -1.187043  0  -0.31637  -0.223877  0  3.362986  0
O  O240  1  0.22647765  0.62285307  0.95390685  1  -1.157023  0  -0.33765  -0.558011  0  2.209399  0
O  O241  1  0.37714794  0.77352160  0.54609341  1  -1.156976  0  -0.337628  -0.557965  0  2.209388  0
O  O242  1  0.77352429  0.37714606  0.04609365  1  -1.157059  0  -0.337632  -0.558006  0  2.209493  0
O  O243  1  0.62285401  0.22647664  0.45390713  1  -1.157043  0  -0.337611  -0.557993  0  2.209415  0
O  O244  1  0.41647916  0.50449847  0.93002877  1  -1.171749  0  -0.336891  -0.568888  0  2.168315  0
O  O245  1  0.49550299  0.58352132  0.56997227  1  -1.171747  0  -0.336872  -0.568875  0  2.16838  0
O  O246  1  0.58352184  0.49550001  0.06997062  1  -1.171681  0  -0.336891  -0.568918  0  2.168392  0
O  O247  1  0.50449896  0.41647960  0.43002933  1  -1.171722  0  -0.336897  -0.568924  0  2.168349  0
O  O248  1  0.35849047  0.15354249  0.56270305  1  -1.172345  0  -0.337965  -0.55986  0  2.251356  0
O  O249  1  0.84646052  0.64150805  0.93729648  1  -1.172353  0  -0.337981  -0.559847  0  2.251353  0
O  O250  1  0.64150775  0.84645943  0.43729670  1  -1.172314  0  -0.337967  -0.559793  0  2.251351  0
O  O251  1  0.15354143  0.35849198  0.06270397  1  -1.172298  0  -0.337989  -0.559846  0  2.251323  0
O  O252  1  0.50895212  0.22228011  0.58952313  1  -1.157307  0  -0.340004  -0.56871  0  2.120344  0
O  O253  1  0.77772242  0.49104508  0.91047809  1  -1.157308  0  -0.339992  -0.568662  0  2.120276  0
O  O254  1  0.49104426  0.77772232  0.41047669  1  -1.157329  0  -0.339986  -0.568666  0  2.120369  0
O  O255  1  0.22228046  0.50895470  0.08952352  1  -1.157356  0  -0.339983  -0.568659  0  2.120462  0
