# generated using pymatgen
data_ZnH8C21N2(O2F3)2
_symmetry_space_group_name_H-M   'P 1'
_cell_length_a   16.35713758
_cell_length_b   17.53270622
_cell_length_c   17.74870076
_cell_angle_alpha   89.80593741
_cell_angle_beta   84.71134427
_cell_angle_gamma   88.97502188
_symmetry_Int_Tables_number   1
_chemical_formula_structural   ZnH8C21N2(O2F3)2
_chemical_formula_sum   'Zn2 H16 C42 N4 O8 F12'
_cell_volume   5067.57190378
_cell_formula_units_Z   2
loop_
 _symmetry_equiv_pos_site_id
 _symmetry_equiv_pos_as_xyz
  1  'x, y, z'
loop_
 _atom_site_type_symbol
 _atom_site_label
 _atom_site_symmetry_multiplicity
 _atom_site_fract_x
 _atom_site_fract_y
 _atom_site_fract_z
 _atom_site_occupancy
 _atom_site_pbe_bader_charge
 _atom_site_pbe_bader_spin_density
 _atom_site_pbe_cm5_charge
 _atom_site_pbe_ddec_charge
 _atom_site_pbe_ddec_spin_density
 _atom_site_pbe_ddec_sum_bond_order
 _atom_site_pbe_magmom
Zn  Zn0  1  0.41390420  0.49788479  0.50352613  1  1.289891  0  0.668944  0.81538  0  2.43864  0
Zn  Zn1  1  0.58609106  0.50211759  0.49647164  1  1.288617  0  0.668937  0.81511  0  2.438662  0
H  H2  1  0.71604946  0.42310879  0.57344037  1  0.139372  0  0.13319  0.109984  0  0.961133  0
H  H3  1  0.86794553  0.42426722  0.57301077  1  0.120702  0  0.112082  0.125478  0  1.01747  0
H  H4  1  0.86909035  0.60143889  0.40185432  1  0.113416  0  0.115866  0.126625  0  0.991337  0
H  H5  1  0.71595281  0.59275788  0.41119197  1  0.137626  0  0.13356  0.109432  0  0.961051  0
H  H6  1  0.13091545  0.39852813  0.59813370  1  0.112989  0  0.115838  0.126577  0  0.991302  0
H  H7  1  0.13205181  0.57569293  0.42697010  1  0.120925  0  0.112077  0.12552  0  1.017419  0
H  H8  1  0.28394850  0.57685136  0.42653255  1  0.138903  0  0.133184  0.110268  0  0.960785  0
H  H9  1  0.28405162  0.40721597  0.58879387  1  0.13726  0  0.133651  0.110123  0  0.961187  0
H  H10  1  0.61815408  0.50412704  0.73536078  1  0.087486  0  0.104373  0.108397  0  0.999381  0
H  H11  1  0.61295189  0.50420106  0.87475076  1  0.106673  0  0.097865  0.105039  0  1.034809  0
H  H12  1  0.34800965  0.49442657  0.88693112  1  0.107248  0  0.099806  0.103811  0  1.011581  0
H  H13  1  0.35573526  0.49456333  0.74670154  1  0.090524  0  0.104481  0.108399  0  0.999603  0
H  H14  1  0.65200754  0.50564658  0.11308197  1  0.107416  0  0.099834  0.104004  0  1.011265  0
H  H15  1  0.38707187  0.49585209  0.12522073  1  0.106149  0  0.097998  0.105163  0  1.034758  0
H  H16  1  0.38183245  0.49591468  0.26461051  1  0.087852  0  0.10445  0.108468  0  0.999255  0
H  H17  1  0.64425530  0.50545960  0.25331175  1  0.090262  0  0.104464  0.108244  0  0.999743  0
C  C18  1  0.49171809  0.49877557  0.64769604  1  1.536121  0  0.212919  0.58933  0  4.175337  0
C  C19  1  0.50954428  0.35017054  0.50026392  1  1.667193  0  0.216386  0.622238  0  4.169563  0
C  C20  1  0.50826259  0.50125019  0.35229947  1  1.535623  0  0.213353  0.589573  0  4.175901  0
C  C21  1  0.49046689  0.64983137  0.49982886  1  1.668148  0  0.216389  0.622742  0  4.168832  0
C  C22  1  0.75293093  0.46177907  0.53665894  1  0.514315  0  0.065834  0.112238  0  3.909317  0
C  C23  1  0.83774908  0.46270059  0.53597005  1  -0.005647  0  -0.076151  -0.161917  0  3.926195  0
C  C24  1  0.88252515  0.51343098  0.48687225  1  0.020673  0  0.005652  0.073401  0  4.046657  0
C  C25  1  0.83781647  0.56118699  0.44080864  1  -0.019076  0  -0.075723  -0.162074  0  3.925097  0
C  C26  1  0.75292432  0.55663047  0.44546799  1  0.498864  0  0.066614  0.114009  0  3.909227  0
C  C27  1  0.97153409  0.51910380  0.48109488  1  0.452741  0  0.09975  0.114673  0  4.006531  0
C  C28  1  0.02846673  0.48086606  0.51889805  1  0.534606  0  0.099696  0.114909  0  4.0067  0
C  C29  1  0.16218815  0.43877716  0.55917780  1  -0.018651  0  -0.075393  -0.161353  0  3.924995  0
C  C30  1  0.11747199  0.48653889  0.51312211  1  0.021264  0  0.005332  0.072954  0  4.047079  0
C  C31  1  0.16224937  0.53726471  0.46401803  1  -0.006292  0  -0.075935  -0.161741  0  3.926589  0
C  C32  1  0.24706750  0.53818793  0.46332237  1  0.515091  0  0.065492  0.111659  0  3.90931  0
C  C33  1  0.24707960  0.44333825  0.55451511  1  0.500948  0  0.066432  0.11249  0  3.910741  0
C  C34  1  0.48742139  0.49891372  0.73226565  1  -0.014554  0  -0.017532  -0.029664  0  3.965267  0
C  C35  1  0.55931237  0.50175108  0.76938085  1  -0.016326  0  -0.085346  -0.086776  0  3.98881  0
C  C36  1  0.55613187  0.50186920  0.84781429  1  -0.027509  0  -0.092136  -0.125141  0  3.970453  0
C  C37  1  0.47977633  0.49911693  0.89209184  1  0.035439  0  -0.015786  0.03994  0  4.053191  0
C  C38  1  0.40752778  0.49644864  0.85416489  1  -0.01307  0  -0.093471  -0.127062  0  3.976117  0
C  C39  1  0.41155138  0.49638577  0.77568042  1  -0.0963  0  -0.084429  -0.085658  0  3.991964  0
C  C40  1  0.47139780  0.49895676  0.97439483  1  0.412317  0  0.085476  0.102378  0  4.024863  0
C  C41  1  0.52863802  0.50110611  0.02560152  1  0.507267  0  0.085593  0.102329  0  4.025206  0
C  C42  1  0.59248588  0.50361708  0.14584233  1  -0.013019  0  -0.093474  -0.127396  0  3.976065  0
C  C43  1  0.52024470  0.50094936  0.10790687  1  0.035238  0  -0.015902  0.039893  0  4.052875  0
C  C44  1  0.44388406  0.49817540  0.15217311  1  -0.027172  0  -0.092292  -0.125258  0  3.970208  0
C  C45  1  0.44068038  0.49828609  0.23060685  1  -0.015369  0  -0.085409  -0.086819  0  3.988276  0
C  C46  1  0.51256474  0.50111604  0.26773278  1  -0.079814  0  -0.017554  -0.029619  0  3.965285  0
C  C47  1  0.58844383  0.50365028  0.22432679  1  -0.031892  0  -0.084368  -0.085462  0  3.991991  0
C  C48  1  0.48709939  0.73623520  0.50010418  1  0.055281  0  -0.017637  -0.193887  0  3.925258  0
C  C49  1  0.55867537  0.78024529  0.49760494  1  0.557643  0  0.096489  0.170563  0  4.066226  0
C  C50  1  0.55659859  0.85972463  0.49802237  1  0.490863  0  0.098173  0.121041  0  4.049123  0
C  C51  1  0.48137165  0.90110629  0.50089549  1  0.576581  0  0.081863  -0.002573  0  4.085202  0
C  C52  1  0.40963418  0.85715777  0.50346387  1  0.485224  0  0.100156  0.119589  0  4.060158  0
C  C53  1  0.41234988  0.77775124  0.50300691  1  0.610281  0  0.096697  0.170387  0  4.069256  0
C  C54  1  0.59037330  0.14284134  0.49670135  1  0.486313  0  0.09998  0.119361  0  4.059912  0
C  C55  1  0.51862586  0.09889801  0.49933083  1  0.576614  0  0.081696  -0.002461  0  4.085224  0
C  C56  1  0.44339750  0.14028712  0.50225981  1  0.491467  0  0.098237  0.121091  0  4.050265  0
C  C57  1  0.44133852  0.21976762  0.50266673  1  0.535091  0  0.096467  0.169974  0  4.067442  0
C  C58  1  0.51292206  0.26377079  0.50008349  1  0.076098  0  -0.017849  -0.193764  0  3.925791  0
C  C59  1  0.58767166  0.22225130  0.49715542  1  0.610815  0  0.096761  0.170514  0  4.068833  0
N  N60  1  0.71117877  0.50772444  0.49240390  1  -1.246343  0  -0.316213  -0.189811  0  3.51044  0
N  N61  1  0.28882512  0.49224598  0.50757975  1  -1.248244  0  -0.315972  -0.189177  0  3.510489  0
N  N62  1  0.46771432  0.97998469  0.50152616  1  -0.443337  0  -0.146506  -0.086119  0  3.264642  0
N  N63  1  0.53227884  0.02002301  0.49868868  1  -0.485782  0  -0.146861  -0.086555  0  3.265119  0
O  O64  1  0.42383039  0.49717343  0.61772095  1  -1.164015  0  -0.319461  -0.550674  0  2.330989  0
O  O65  1  0.56296211  0.50032607  0.61193171  1  -1.158178  0  -0.318171  -0.550166  0  2.334426  0
O  O66  1  0.57763063  0.38397042  0.49760185  1  -1.143505  0  -0.31304  -0.536936  0  2.331662  0
O  O67  1  0.43882059  0.38130644  0.50289372  1  -1.149975  0  -0.313045  -0.539501  0  2.344399  0
O  O68  1  0.57615172  0.50262358  0.38227653  1  -1.164632  0  -0.319406  -0.550255  0  2.331422  0
O  O69  1  0.43700002  0.49992559  0.38807063  1  -1.156983  0  -0.318653  -0.550837  0  2.334428  0
O  O70  1  0.42235377  0.61604248  0.50269654  1  -1.14144  0  -0.313107  -0.537374  0  2.330881  0
O  O71  1  0.56119512  0.61869463  0.49689218  1  -1.151471  0  -0.313089  -0.539595  0  2.344264  0
F  F72  1  0.00119017  0.57159754  0.42900436  1  -0.62459  0  -0.072988  -0.106206  0  1.394728  0
F  F73  1  0.99880932  0.42837746  0.57099373  1  -0.624392  0  -0.072946  -0.106219  0  1.394693  0
F  F74  1  0.39125592  0.49606047  0.00495570  1  -0.631898  0  -0.087945  -0.121197  0  1.396497  0
F  F75  1  0.60877901  0.50401667  0.99504179  1  -0.632294  0  -0.087876  -0.120982  0  1.396571  0
F  F76  1  0.33920382  0.74316973  0.50528584  1  -0.606389  0  -0.090167  -0.102278  0  1.393387  0
F  F77  1  0.33571703  0.89249614  0.50627267  1  -0.60287  0  -0.085682  -0.099393  0  1.378622  0
F  F78  1  0.63416540  0.74754431  0.49448459  1  -0.610349  0  -0.090306  -0.102978  0  1.399923  0
F  F79  1  0.62894161  0.89531630  0.49551057  1  -0.60006  0  -0.084229  -0.102125  0  1.412329  0
F  F80  1  0.66428515  0.10749436  0.49383330  1  -0.603782  0  -0.085637  -0.099378  0  1.378932  0
F  F81  1  0.66081954  0.25683563  0.49483463  1  -0.606223  0  -0.090114  -0.102286  0  1.393057  0
F  F82  1  0.37104694  0.10470179  0.50484097  1  -0.600355  0  -0.084055  -0.101983  0  1.412626  0
F  F83  1  0.36584145  0.25247951  0.50588397  1  -0.60963  0  -0.090181  -0.102647  0  1.400258  0
