# generated using pymatgen
data_ZnH20C29N5O4
_symmetry_space_group_name_H-M   'P 1'
_cell_length_a   11.37475483
_cell_length_b   13.35847515
_cell_length_c   18.47537111
_cell_angle_alpha   100.79506834
_cell_angle_beta   89.98102901
_cell_angle_gamma   115.20991029
_symmetry_Int_Tables_number   1
_chemical_formula_structural   ZnH20C29N5O4
_chemical_formula_sum   'Zn4 H80 C116 N20 O16'
_cell_volume   2484.99678921
_cell_formula_units_Z   4
loop_
 _symmetry_equiv_pos_site_id
 _symmetry_equiv_pos_as_xyz
  1  'x, y, z'
loop_
 _atom_site_type_symbol
 _atom_site_label
 _atom_site_symmetry_multiplicity
 _atom_site_fract_x
 _atom_site_fract_y
 _atom_site_fract_z
 _atom_site_occupancy
 _atom_site_pbe_bader_charge
 _atom_site_pbe_bader_spin_density
 _atom_site_pbe_cm5_charge
 _atom_site_pbe_ddec_charge
 _atom_site_pbe_ddec_spin_density
 _atom_site_pbe_ddec_sum_bond_order
 _atom_site_pbe_magmom
Zn  Zn0  1  0.41833681  0.39483275  0.40624846  1  1.316936  0  0.689667  0.824833  0  2.378288  0
Zn  Zn1  1  0.02345908  0.60525855  0.09378854  1  1.317778  0  0.689758  0.82493  0  2.377255  0
Zn  Zn2  1  0.58166181  0.60516604  0.59375025  1  1.316899  0  0.68965  0.824818  0  2.378329  0
Zn  Zn3  1  0.97654043  0.39474026  0.90621288  1  1.317811  0  0.689764  0.824928  0  2.37728  0
H  H4  1  0.48722402  0.63867822  0.30056414  1  0.117647  0  0.105284  0.113756  0  1.009866  0
H  H5  1  0.84850112  0.36139836  0.19960317  1  0.114464  0  0.105423  0.114482  0  1.009589  0
H  H6  1  0.51277323  0.36132310  0.69943328  1  0.117397  0  0.105283  0.113763  0  1.009933  0
H  H7  1  0.15149617  0.63860129  0.80039673  1  0.114459  0  0.105423  0.114508  0  1.009564  0
H  H8  1  0.55342687  0.79447642  0.22879794  1  0.100808  0  0.097791  0.094881  0  1.062349  0
H  H9  1  0.75866394  0.20557822  0.27134125  1  0.096462  0  0.097595  0.094869  0  1.062304  0
H  H10  1  0.44657479  0.20552492  0.77120219  1  0.100831  0  0.097776  0.094852  0  1.062316  0
H  H11  1  0.24133595  0.79442312  0.72865887  1  0.096491  0  0.097601  0.094857  0  1.062286  0
H  H12  1  0.78029576  0.03608605  0.42243732  1  0.051973  0  0.10526  0.107786  0  1.001897  0
H  H13  1  0.74360518  0.96392606  0.07763777  1  0.050165  0  0.105465  0.107991  0  1.001794  0
H  H14  1  0.21970241  0.96391361  0.57756474  1  0.051958  0  0.105245  0.107777  0  1.001874  0
H  H15  1  0.25639475  0.03607359  0.92236376  1  0.050156  0  0.105479  0.108015  0  1.001779  0
H  H16  1  0.71303229  0.87990111  0.49413145  1  0.08613  0  0.104764  0.106226  0  1.017692  0
H  H17  1  0.83280200  0.12009985  0.00596698  1  0.087709  0  0.105016  0.106463  0  1.017727  0
H  H18  1  0.28695849  0.12009431  0.50586898  1  0.085937  0  0.104767  0.106225  0  1.017673  0
H  H19  1  0.16719751  0.87989896  0.99403443  1  0.087688  0  0.104976  0.106415  0  1.017764  0
H  H20  1  0.52101345  0.34397832  0.12918626  1  0.070407  0  0.09694  0.094012  0  1.043523  0
H  H21  1  0.17723542  0.65584918  0.37074825  1  0.071389  0  0.097068  0.093979  0  1.04371  0
H  H22  1  0.47898602  0.65602218  0.87081375  1  0.070399  0  0.096933  0.094022  0  1.043518  0
H  H23  1  0.82276314  0.34415300  0.62925199  1  0.071356  0  0.097075  0.093985  0  1.04369  0
H  H24  1  0.55568127  0.20693768  0.02922038  1  0.079432  0  0.097906  0.089545  0  1.077599  0
H  H25  1  0.34865217  0.79297097  0.47078185  1  0.086947  0  0.097762  0.089119  0  1.077994  0
H  H26  1  0.44431947  0.79306534  0.97077943  1  0.079438  0  0.097878  0.089489  0  1.07762  0
H  H27  1  0.65134821  0.20702783  0.52921848  1  0.086967  0  0.097776  0.089145  0  1.077971  0
H  H28  1  0.36852533  0.94187787  0.14870902  1  0.089095  0  0.105688  0.109511  0  1.016055  0
H  H29  1  0.42633918  0.05808844  0.35138190  1  0.083857  0  0.105772  0.10959  0  1.016194  0
H  H30  1  0.63147678  0.05812261  0.85128937  1  0.089079  0  0.105686  0.109502  0  1.016078  0
H  H31  1  0.57366557  0.94191206  0.64861920  1  0.08378  0  0.105779  0.10961  0  1.016189  0
H  H32  1  0.33829541  0.08248889  0.25041374  1  0.100753  0  0.10255  0.103636  0  1.048543  0
H  H33  1  0.25568942  0.91739003  0.24964816  1  0.096618  0  0.102834  0.10431  0  1.048274  0
H  H34  1  0.66170410  0.91750990  0.74958551  1  0.100735  0  0.102573  0.103659  0  1.0485  0
H  H35  1  0.74431571  0.08261300  0.75035166  1  0.096416  0  0.102811  0.104276  0  1.048324  0
H  H36  1  0.16279737  0.29007755  0.48239877  1  0.138831  0  0.11727  0.091736  0  1.025315  0
H  H37  1  0.87280425  0.70990729  0.01763702  1  0.169886  0  0.117054  0.091066  0  1.025372  0
H  H38  1  0.83720083  0.70992040  0.51760037  1  0.138817  0  0.117265  0.091722  0  1.025312  0
H  H39  1  0.12719617  0.29008983  0.98236362  1  0.169901  0  0.11703  0.09104  0  1.025422  0
H  H40  1  0.94406257  0.28897293  0.48117097  1  0.073816  0  0.110337  0.1196  0  1.005996  0
H  H41  1  0.65510903  0.71092047  0.01870687  1  0.082084  0  0.110151  0.11953  0  1.006102  0
H  H42  1  0.05593648  0.71102672  0.51882948  1  0.073831  0  0.110339  0.1196  0  1.006001  0
H  H43  1  0.34489181  0.28907749  0.98129335  1  0.082029  0  0.110192  0.119602  0  1.00606  0
H  H44  1  0.05296356  0.47613105  0.30429801  1  0.162726  0  0.110257  0.133507  0  1.048417  0
H  H45  1  0.57639268  0.52382885  0.19562060  1  0.159653  0  0.110499  0.133847  0  1.04868  0
H  H46  1  0.94703458  0.52387029  0.69570266  1  0.162743  0  0.110248  0.1335  0  1.048416  0
H  H47  1  0.42360507  0.47616995  0.80438028  1  0.159692  0  0.110519  0.133861  0  1.048634  0
H  H48  1  0.26890896  0.46915699  0.31448341  1  0.119611  0  0.120729  0.096083  0  0.997662  0
H  H49  1  0.79930618  0.53081216  0.18554696  1  0.120944  0  0.120478  0.09552  0  0.997125  0
H  H50  1  0.73108794  0.53084011  0.68551616  1  0.119597  0  0.120714  0.096068  0  0.997667  0
H  H51  1  0.20069330  0.46918834  0.81445468  1  0.120958  0  0.120434  0.095453  0  0.997206  0
H  H52  1  0.74355804  0.22474482  0.42153058  1  0.088292  0  0.110391  0.112521  0  1.027948  0
H  H53  1  0.51878054  0.77536436  0.07849376  1  0.107835  0  0.1105  0.112531  0  1.027883  0
H  H54  1  0.25644312  0.77525906  0.57847043  1  0.088246  0  0.110354  0.112464  0  1.02798  0
H  H55  1  0.48122072  0.22463443  0.92150440  1  0.107969  0  0.110526  0.112598  0  1.027883  0
H  H56  1  0.53862748  0.24757412  0.43233025  1  0.119836  0  0.119928  0.089811  0  1.012145  0
H  H57  1  0.29093987  0.75243546  0.06768928  1  0.105019  0  0.119892  0.090229  0  1.011923  0
H  H58  1  0.46137372  0.75242806  0.56766999  1  0.119805  0  0.119922  0.089819  0  1.012125  0
H  H59  1  0.70906136  0.24756503  0.93231128  1  0.105007  0  0.119881  0.090183  0  1.011956  0
H  H60  1  0.70535076  0.55791457  0.37115508  1  0.082497  0  0.119323  0.089768  0  1.000249  0
H  H61  1  0.14725531  0.44213895  0.12890476  1  0.100488  0  0.119498  0.090183  0  0.999971  0
H  H62  1  0.29464871  0.44208592  0.62884331  1  0.082514  0  0.11931  0.089757  0  1.000326  0
H  H63  1  0.85274680  0.55786154  0.87109525  1  0.100476  0  0.119497  0.090173  0  0.99996  0
H  H64  1  0.91992423  0.55009030  0.35801573  1  0.12643  0  0.112433  0.128984  0  1.019965  0
H  H65  1  0.36969233  0.44999430  0.14198253  1  0.143178  0  0.112311  0.128559  0  1.020065  0
H  H66  1  0.08007697  0.44991188  0.64198343  1  0.126469  0  0.112423  0.128957  0  1.019945  0
H  H67  1  0.63030718  0.55000450  0.85801726  1  0.143199  0  0.112318  0.128549  0  1.020082  0
H  H68  1  0.09679630  0.00680240  0.03683514  1  0.043359  0  0.106263  0.070736  0  1.019519  0
H  H69  1  0.09016329  0.99319037  0.46315683  1  0.078739  0  0.106332  0.070569  0  1.018994  0
H  H70  1  0.90320275  0.99319724  0.96316422  1  0.043388  0  0.106265  0.070757  0  1.019523  0
H  H71  1  0.90983748  0.00681097  0.53684330  1  0.078735  0  0.106333  0.070564  0  1.019001  0
H  H72  1  0.04017131  0.89261326  0.13460035  1  0.100869  0  0.107379  0.123566  0  1.008678  0
H  H73  1  0.14768430  0.10751173  0.36545732  1  0.109572  0  0.107304  0.124181  0  1.008321  0
H  H74  1  0.95982774  0.10738639  0.86539956  1  0.100871  0  0.107389  0.123589  0  1.008658  0
H  H75  1  0.85231735  0.89248960  0.63454172  1  0.109599  0  0.107312  0.124216  0  1.008287  0
H  H76  1  0.06698770  0.19052916  0.28728550  1  0.089036  0  0.101689  0.106436  0  1.029933  0
H  H77  1  0.87650181  0.80964508  0.21276871  1  0.124127  0  0.101895  0.106596  0  1.02974  0
H  H78  1  0.93301307  0.80947217  0.71271355  1  0.088937  0  0.101699  0.106457  0  1.029883  0
H  H79  1  0.12349942  0.19035541  0.78723131  1  0.124118  0  0.101876  0.106587  0  1.029709  0
H  H80  1  0.12876205  0.29315529  0.18452786  1  0.054357  0  0.103858  0.065074  0  1.009142  0
H  H81  1  0.83581043  0.70687540  0.31544768  1  0.057255  0  0.103622  0.064945  0  1.008971  0
H  H82  1  0.87123918  0.70684519  0.81547107  1  0.054362  0  0.103851  0.065034  0  1.009157  0
H  H83  1  0.16419038  0.29312425  0.68455222  1  0.057239  0  0.10361  0.064886  0  1.009017  0
C  C84  1  0.56222662  0.65851436  0.44316326  1  1.554801  0  0.21848  0.584712  0  4.206133  0
C  C85  1  0.90364507  0.34159823  0.05696146  1  1.552513  0  0.218591  0.584309  0  4.206187  0
C  C86  1  0.43776852  0.34148274  0.55683522  1  1.554436  0  0.218526  0.584721  0  4.205981  0
C  C87  1  0.09635402  0.65839973  0.94303876  1  1.552393  0  0.218574  0.58432  0  4.206188  0
C  C88  1  0.59835787  0.75115413  0.40105239  1  -0.065979  0  -0.017138  -0.040361  0  3.959772  0
C  C89  1  0.84700352  0.24892162  0.09906681  1  -0.087131  0  -0.017115  -0.039698  0  3.958582  0
C  C90  1  0.40163727  0.24884297  0.59894609  1  -0.065546  0  -0.017151  -0.04039  0  3.959811  0
C  C91  1  0.15299377  0.75107803  0.90093472  1  -0.087046  0  -0.017077  -0.03971  0  3.95859  0
C  C92  1  0.55145573  0.72608698  0.32626579  1  -0.014423  0  -0.080749  -0.079389  0  3.961682  0
C  C93  1  0.82515693  0.27396419  0.17387230  1  -0.009682  0  -0.080644  -0.080233  0  3.961632  0
C  C94  1  0.44854113  0.27391182  0.67373291  1  -0.014416  0  -0.080704  -0.07937  0  3.961836  0
C  C95  1  0.17483906  0.72603462  0.82612911  1  -0.009791  0  -0.08068  -0.080274  0  3.961648  0
C  C96  1  0.58824474  0.81128724  0.28659916  1  -0.016942  0  -0.085027  -0.140477  0  3.951922  0
C  C97  1  0.77662768  0.18873185  0.21352828  1  -0.015959  0  -0.085227  -0.140882  0  3.95198  0
C  C98  1  0.41175522  0.18871071  0.71339944  1  -0.016896  0  -0.085075  -0.140469  0  3.951879  0
C  C99  1  0.22337007  0.81126696  0.78647313  1  -0.015909  0  -0.085181  -0.140817  0  3.951962  0
C  C100  1  0.67281585  0.92291329  0.32149093  1  0.273451  0  0.091616  0.171326  0  4.045787  0
C  C101  1  0.74945618  0.07710343  0.17861031  1  0.310545  0  0.092177  0.172272  0  4.047554  0
C  C102  1  0.32718277  0.07708551  0.67850831  1  0.273611  0  0.091587  0.17128  0  4.045866  0
C  C103  1  0.25054463  0.92289622  0.82139014  1  0.31058  0  0.092212  0.172304  0  4.047335  0
C  C104  1  0.71646211  0.94860379  0.39658883  1  0.042394  0  -0.079619  -0.137  0  3.949775  0
C  C105  1  0.76732672  0.05141088  0.10349828  1  0.019184  0  -0.079874  -0.13731  0  3.951355  0
C  C106  1  0.28353698  0.05139417  0.60341139  1  0.042313  0  -0.079596  -0.136998  0  3.949798  0
C  C107  1  0.23267233  0.94858877  0.89650325  1  0.019226  0  -0.079897  -0.137361  0  3.951359  0
C  C108  1  0.67993319  0.86265071  0.43594833  1  0.004403  0  -0.080893  -0.079296  0  3.976132  0
C  C109  1  0.81691910  0.13739275  0.06415103  1  0.013184  0  -0.081454  -0.08029  0  3.976076  0
C  C110  1  0.32006150  0.13734725  0.56405189  1  0.004592  0  -0.080877  -0.079234  0  3.976054  0
C  C111  1  0.18308259  0.86260691  0.93585050  1  0.013123  0  -0.081475  -0.080264  0  3.976086  0
C  C112  1  0.41318844  0.30280356  0.25841276  1  1.554343  0  0.193283  0.555458  0  4.249135  0
C  C113  1  0.11043916  0.69713047  0.24157327  1  1.564472  0  0.193546  0.555273  0  4.249315  0
C  C114  1  0.58681237  0.69719608  0.74158660  1  1.554364  0  0.193327  0.555557  0  4.249071  0
C  C115  1  0.88956289  0.30287341  0.75842774  1  1.564256  0  0.193578  0.555274  0  4.249234  0
C  C116  1  0.42687331  0.22015147  0.19567009  1  -0.017546  0  -0.012703  -0.014174  0  3.937739  0
C  C117  1  0.20680986  0.77970260  0.30432219  1  -0.018712  0  -0.012758  -0.01388  0  3.937606  0
C  C118  1  0.57312834  0.77984986  0.80432950  1  -0.017527  0  -0.012683  -0.014265  0  3.937703  0
C  C119  1  0.79319268  0.22029874  0.69567848  1  -0.018701  0  -0.012725  -0.013756  0  3.937484  0
C  C120  1  0.48688006  0.25566605  0.13274471  1  0.011238  0  -0.08502  -0.082244  0  3.97628  0
C  C121  1  0.23131389  0.74419671  0.36722766  1  -0.046013  0  -0.085817  -0.082775  0  3.977043  0
C  C122  1  0.51312071  0.74433529  0.86725596  1  0.01123  0  -0.084995  -0.082264  0  3.976207  0
C  C123  1  0.76868516  0.25580293  0.63277279  1  -0.046026  0  -0.085795  -0.082755  0  3.97709  0
C  C124  1  0.50552375  0.18008538  0.07705768  1  -0.002408  0  -0.089708  -0.148048  0  3.965876  0
C  C125  1  0.32538348  0.81983470  0.42295953  1  -0.008665  0  -0.089091  -0.146921  0  3.964582  0
C  C126  1  0.49447702  0.81991596  0.92294191  1  -0.002321  0  -0.089731  -0.147983  0  3.965846  0
C  C127  1  0.67461775  0.18016579  0.57704049  1  -0.00869  0  -0.089143  -0.147006  0  3.964655  0
C  C128  1  0.46195738  0.06634677  0.08267194  1  0.295555  0  0.086334  0.167298  0  4.049683  0
C  C129  1  0.39544799  0.93362250  0.41737834  1  0.312463  0  0.087049  0.168681  0  4.046677  0
C  C130  1  0.53804470  0.93365541  0.91732721  1  0.295472  0  0.086363  0.167309  0  4.049785  0
C  C131  1  0.60455412  0.06637800  0.58262221  1  0.312549  0  0.087062  0.16868  0  4.046734  0
C  C132  1  0.40125875  0.03023431  0.14519348  1  -0.007967  0  -0.080411  -0.138596  0  3.937739  0
C  C133  1  0.37084210  0.96969488  0.35486504  1  -0.002616  0  -0.080388  -0.138399  0  3.938346  0
C  C134  1  0.59874336  0.96976618  0.85480545  1  -0.007968  0  -0.080503  -0.138734  0  3.937941  0
C  C135  1  0.62916307  0.03030645  0.64513509  1  -0.002563  0  -0.080402  -0.138385  0  3.938366  0
C  C136  1  0.38449182  0.10719288  0.20110350  1  -0.098686  0  -0.085398  -0.089522  0  3.973873  0
C  C137  1  0.27725133  0.89268853  0.29892529  1  -0.056912  0  -0.085648  -0.090836  0  3.975682  0
C  C138  1  0.61550899  0.89280676  0.79889532  1  -0.09872  0  -0.085337  -0.089312  0  3.9738  0
C  C139  1  0.72275296  0.10731281  0.70107484  1  -0.056721  0  -0.085653  -0.090941  0  3.975746  0
C  C140  1  0.13398089  0.32974450  0.44368376  1  0.449994  0  0.046653  0.087505  0  3.953121  0
C  C141  1  0.80420963  0.67019334  0.05631349  1  0.433858  0  0.046706  0.088215  0  3.952634  0
C  C142  1  0.86601728  0.67025515  0.55631560  1  0.449889  0  0.046656  0.087497  0  3.953152  0
C  C143  1  0.19578991  0.32980378  0.94368824  1  0.433482  0  0.046738  0.088252  0  3.95277  0
C  C144  1  0.01123496  0.32860710  0.44192036  1  -0.016668  0  -0.080405  -0.172218  0  3.935917  0
C  C145  1  0.68258144  0.67131033  0.05797572  1  -0.003227  0  -0.080213  -0.172219  0  3.93679  0
C  C146  1  0.98876493  0.67139423  0.55807977  1  -0.016688  0  -0.080407  -0.172236  0  3.935913  0
C  C147  1  0.31741765  0.32868763  0.94202558  1  -0.002991  0  -0.080274  -0.172364  0  3.936985  0
C  C148  1  0.97901520  0.38270977  0.39227886  1  0.008974  0  0.012932  0.105288  0  3.971178  0
C  C149  1  0.59611045  0.61721583  0.10758786  1  -0.010722  0  0.01375  0.106027  0  3.972879  0
C  C150  1  0.02098512  0.61729241  0.60772138  1  0.010745  0  0.012951  0.105361  0  3.971154  0
C  C151  1  0.40388821  0.38278128  0.89241278  1  -0.010602  0  0.013725  0.106024  0  3.972989  0
C  C152  1  0.07239101  0.43332923  0.34454033  1  -0.067299  0  -0.081258  -0.181811  0  3.911216  0
C  C153  1  0.63871356  0.56662667  0.15538942  1  -0.047852  0  -0.081168  -0.18152  0  3.911117  0
C  C154  1  0.92760892  0.56667041  0.65545903  1  -0.069147  0  -0.081252  -0.181802  0  3.91112  0
C  C155  1  0.36128729  0.43337129  0.84461188  1  -0.048021  0  -0.081141  -0.181521  0  3.91097  0
C  C156  1  0.19282583  0.43052067  0.34994898  1  0.469772  0  0.052666  0.106523  0  3.917173  0
C  C157  1  0.76195279  0.56944276  0.15005215  1  0.440922  0  0.052435  0.106587  0  3.916382  0
C  C158  1  0.80717321  0.56947897  0.65005038  1  0.469854  0  0.052699  0.106512  0  3.917113  0
C  C159  1  0.23804672  0.43055605  0.84994980  1  0.441007  0  0.052519  0.106701  0  3.916401  0
C  C160  1  0.85240209  0.38870030  0.39265890  1  -0.038365  0  0.015857  0.108768  0  3.963758  0
C  C161  1  0.46355414  0.61134513  0.10728165  1  -0.025049  0  0.014832  0.106861  0  3.965352  0
C  C162  1  0.14759778  0.61130274  0.60734199  1  -0.038392  0  0.01581  0.108708  0  3.963827  0
C  C163  1  0.53644406  0.38865282  0.89271803  1  -0.024917  0  0.01481  0.10681  0  3.965399  0
C  C164  1  0.74149015  0.30207579  0.41204396  1  -0.009401  0  -0.078893  -0.171112  0  3.936003  0
C  C165  1  0.43933375  0.69802644  0.08797370  1  -0.077317  0  -0.078425  -0.169279  0  3.933416  0
C  C166  1  0.25851105  0.69792640  0.58795736  1  -0.009256  0  -0.078849  -0.171076  0  3.936004  0
C  C167  1  0.56066751  0.30197236  0.91202500  1  -0.077551  0  -0.078455  -0.169366  0  3.933553  0
C  C168  1  0.62611257  0.31369272  0.41741633  1  0.460379  0  0.05001  0.10522  0  3.92615  0
C  C169  1  0.31232428  0.68634918  0.08260072  1  0.505822  0  0.049429  0.103435  0  3.925735  0
C  C170  1  0.37388821  0.68630862  0.58258434  1  0.460293  0  0.049998  0.105211  0  3.926137  0
C  C171  1  0.68767610  0.31364962  0.91739907  1  0.505798  0  0.049463  0.103566  0  3.925678  0
C  C172  1  0.71917111  0.48646164  0.38292330  1  0.518636  0  0.053239  0.104787  0  3.932583  0
C  C173  1  0.23257224  0.51359402  0.11713807  1  0.454432  0  0.052371  0.103708  0  3.934509  0
C  C174  1  0.28082879  0.51353969  0.61707520  1  0.518181  0  0.053254  0.104764  0  3.932744  0
C  C175  1  0.76742857  0.48640563  0.88286183  1  0.454452  0  0.052353  0.103704  0  3.934581  0
C  C176  1  0.83869377  0.48167658  0.37587554  1  -0.013964  0  -0.076157  -0.165268  0  3.897204  0
C  C177  1  0.35686059  0.51837911  0.12411223  1  -0.012651  0  -0.075419  -0.163961  0  3.897675  0
C  C178  1  0.16130655  0.51832560  0.62412361  1  -0.013996  0  -0.076126  -0.165188  0  3.897185  0
C  C179  1  0.64313891  0.48161968  0.87588702  1  -0.012624  0  -0.075431  -0.163925  0  3.897591  0
C  C180  1  0.08983978  0.04546415  0.09325287  1  0.531493  0  0.033932  0.085684  0  4.020557  0
C  C181  1  0.04459932  0.95456243  0.40673705  1  0.478628  0  0.033648  0.086065  0  4.019231  0
C  C182  1  0.91016103  0.95453550  0.90674703  1  0.531504  0  0.0339  0.08558  0  4.020644  0
C  C183  1  0.95540233  0.04543891  0.59326253  1  0.478648  0  0.033598  0.086041  0  4.019329  0
C  C184  1  0.05553679  0.98065657  0.14756848  1  -0.006402  0  -0.085949  -0.178042  0  3.928007  0
C  C185  1  0.07505147  0.01944518  0.35246271  1  -0.015807  0  -0.085712  -0.178922  0  3.92763  0
C  C186  1  0.94446314  0.01934308  0.85243142  1  -0.006363  0  -0.085945  -0.178029  0  3.928063  0
C  C187  1  0.92495018  0.98055616  0.64753688  1  -0.015834  0  -0.085664  -0.178868  0  3.927691  0
C  C188  1  0.04738262  0.03182584  0.21986826  1  -0.067917  0  0.008508  0.102026  0  3.970193  0
C  C189  1  0.01567963  0.96830550  0.28018514  1  -0.110547  0  0.009186  0.102998  0  3.968798  0
C  C190  1  0.95261857  0.96817635  0.78013198  1  -0.067889  0  0.008573  0.102129  0  3.970188  0
C  C191  1  0.98432115  0.03169583  0.71981391  1  -0.110519  0  0.0091  0.102857  0  3.968907  0
C  C192  1  0.07380729  0.14650202  0.23270900  1  0.012954  0  -0.084012  -0.162294  0  3.931373  0
C  C193  1  0.92739725  0.85361674  0.26733842  1  -0.022688  0  -0.084757  -0.163896  0  3.932014  0
C  C194  1  0.92619264  0.85349763  0.76729091  1  0.013054  0  -0.084046  -0.162401  0  3.931386  0
C  C195  1  0.07260482  0.14638544  0.73266128  1  -0.022706  0  -0.084718  -0.163851  0  3.931969  0
C  C196  1  0.10771100  0.20369641  0.17462083  1  0.500031  0  0.037196  0.094206  0  4.019843  0
C  C197  1  0.90421955  0.79634420  0.32537935  1  0.496513  0  0.037476  0.094969  0  4.018874  0
C  C198  1  0.89229153  0.79630492  0.82537876  1  0.500033  0  0.037178  0.094252  0  4.019831  0
C  C199  1  0.09578299  0.20365714  0.67462132  1  0.496494  0  0.037525  0.095129  0  4.018789  0
N  N200  1  0.22394576  0.38096440  0.39910128  1  -1.241431  0  -0.320084  -0.224301  0  3.518044  0
N  N201  1  0.84283870  0.61901996  0.10094534  1  -1.235405  0  -0.319728  -0.224226  0  3.517024  0
N  N202  1  0.77605198  0.61903439  0.60089743  1  -1.241322  0  -0.320089  -0.224264  0  3.518045  0
N  N203  1  0.15716039  0.38097801  0.89905651  1  -1.235364  0  -0.319768  -0.224239  0  3.517173  0
N  N204  1  0.61513646  0.40550015  0.40474205  1  -1.238957  0  -0.31553  -0.229873  0  3.509421  0
N  N205  1  0.20953885  0.59452777  0.09528746  1  -1.218784  0  -0.314912  -0.228941  0  3.509428  0
N  N206  1  0.38486389  0.59450034  0.59525688  1  -1.238458  0  -0.315519  -0.229844  0  3.509464  0
N  N207  1  0.79046238  0.40547272  0.90471256  1  -1.218796  0  -0.314905  -0.228971  0  3.509497  0
N  N208  1  0.71905788  0.01441401  0.28508862  1  -0.43822  0  -0.147065  -0.13111  0  3.275147  0
N  N209  1  0.70431567  0.98563073  0.21502545  1  -0.5287  0  -0.147302  -0.131719  0  3.276614  0
N  N210  1  0.28094596  0.98558818  0.71491216  1  -0.438235  0  -0.147032  -0.131081  0  3.275167  0
N  N211  1  0.29568641  0.01437145  0.78497534  1  -0.528626  0  -0.147317  -0.131729  0  3.276563  0
N  N212  1  0.47630842  0.98337648  0.02901784  1  -0.522666  0  -0.150859  -0.137925  0  3.304701  0
N  N213  1  0.49275518  0.01664642  0.47102982  1  -0.529293  0  -0.151217  -0.138917  0  3.305152  0
N  N214  1  0.52369495  0.01662655  0.97098143  1  -0.488147  0  -0.150856  -0.137982  0  3.304725  0
N  N215  1  0.50724781  0.98335408  0.52897128  1  -0.487366  0  -0.151198  -0.138872  0  3.305181  0
N  N216  1  0.11652081  0.15566896  0.10541856  1  -1.235631  0  -0.334503  -0.291132  0  3.320089  0
N  N217  1  0.96111716  0.84434278  0.39455753  1  -1.211389  0  -0.334422  -0.291265  0  3.319303  0
N  N218  1  0.88347996  0.84433237  0.89458049  1  -1.235678  0  -0.334486  -0.291087  0  3.320072  0
N  N219  1  0.03888449  0.15565856  0.60544259  1  -1.211436  0  -0.334415  -0.291338  0  3.319281  0
O  O220  1  0.47686659  0.56157470  0.41138585  1  -1.196367  0  -0.315312  -0.564458  0  2.455266  0
O  O221  1  0.91543406  0.43856737  0.08881634  1  -1.192517  0  -0.315392  -0.564414  0  2.456254  0
O  O222  1  0.52312940  0.43842410  0.58861448  1  -1.196258  0  -0.315314  -0.56445  0  2.45512  0
O  O223  1  0.08456679  0.56143059  0.91118387  1  -1.192438  0  -0.315415  -0.564432  0  2.456214  0
O  O224  1  0.44045234  0.40210983  0.25150429  1  -1.185755  0  -0.330638  -0.572734  0  2.155736  0
O  O225  1  0.03837867  0.59778722  0.24842239  1  -1.193289  0  -0.330463  -0.572609  0  2.156207  0
O  O226  1  0.55954717  0.59788897  0.74849550  1  -1.185767  0  -0.330676  -0.572782  0  2.15569  0
O  O227  1  0.96162207  0.40221581  0.75157850  1  -1.193378  0  -0.330499  -0.572611  0  2.156247  0
O  O228  1  0.37633554  0.26511966  0.31804693  1  -1.165714  0  -0.33453  -0.56947  0  2.327899  0
O  O229  1  0.11123556  0.73493152  0.18199899  1  -1.163881  0  -0.334909  -0.569181  0  2.326749  0
O  O230  1  0.62366308  0.73487914  0.68195231  1  -1.165712  0  -0.334552  -0.569512  0  2.327915  0
O  O231  1  0.88876564  0.26507066  0.81800180  1  -1.163634  0  -0.33493  -0.56922  0  2.32677  0
O  O232  1  0.62077926  0.68447275  0.50757290  1  -1.185698  0  -0.31486  -0.550255  0  2.397861  0
O  O233  1  0.93604588  0.31559283  0.99248629  1  -1.186951  0  -0.315026  -0.550232  0  2.397482  0
O  O234  1  0.37921849  0.31552604  0.49242580  1  -1.185795  0  -0.314924  -0.550309  0  2.397864  0
O  O235  1  0.06395278  0.68440428  0.00751328  1  -1.186932  0  -0.315016  -0.550253  0  2.397497  0
