# generated using pymatgen
data_AgH10C12N5O3F4
_symmetry_space_group_name_H-M   'P 1'
_cell_length_a   6.34869071
_cell_length_b   9.16264386
_cell_length_c   25.19460000
_cell_angle_alpha   90.00000000
_cell_angle_beta   90.00000000
_cell_angle_gamma   100.56661527
_symmetry_Int_Tables_number   1
_chemical_formula_structural   AgH10C12N5O3F4
_chemical_formula_sum   'Ag4 H40 C48 N20 O12 F16'
_cell_volume   1440.73689896
_cell_formula_units_Z   4
loop_
 _symmetry_equiv_pos_site_id
 _symmetry_equiv_pos_as_xyz
  1  'x, y, z'
loop_
 _atom_site_type_symbol
 _atom_site_label
 _atom_site_symmetry_multiplicity
 _atom_site_fract_x
 _atom_site_fract_y
 _atom_site_fract_z
 _atom_site_occupancy
 _atom_site_hle17_bader_spin_density
 _atom_site_hle17_ddec_charge
 _atom_site_hle17_ddec_spin_density
 _atom_site_hle17_ddec_sum_bond_order
 _atom_site_hle17_magmom
 _atom_site_hse06_10hf_bader_spin_density
 _atom_site_hse06_10hf_ddec_charge
 _atom_site_hse06_10hf_ddec_spin_density
 _atom_site_hse06_10hf_ddec_sum_bond_order
 _atom_site_hse06_10hf_magmom
 _atom_site_hse06_bader_spin_density
 _atom_site_hse06_ddec_charge
 _atom_site_hse06_ddec_spin_density
 _atom_site_hse06_ddec_sum_bond_order
 _atom_site_hse06_magmom
 _atom_site_pbe_bader_charge
 _atom_site_pbe_bader_spin_density
 _atom_site_pbe_cm5_charge
 _atom_site_pbe_ddec_charge
 _atom_site_pbe_ddec_spin_density
 _atom_site_pbe_ddec_sum_bond_order
 _atom_site_pbe_magmom
Ag  Ag0  1  0.86467197  0.49878503  0.66264795  1  0  0.566047  0  1.348041  0  0  0.418813  0  1.787712  0  0  0.450978  0  1.738383  0  0.629256  0  0.464172  0.395594  0  1.822197  0
Ag  Ag1  1  0.13532665  0.00121235  0.16265033  1  0  0.56612  0  1.348001  0  0  0.418877  0  1.787714  0  0  0.451067  0  1.738331  0  0.629207  0  0.464166  0.395655  0  1.822202  0
Ag  Ag2  1  0.13532784  0.50121307  0.33735205  1  0  0.566043  0  1.348101  0  0  0.418805  0  1.787764  0  0  0.450974  0  1.738424  0  0.629208  0  0.464166  0.395584  0  1.822249  0
Ag  Ag3  1  0.86466518  0.99879130  0.83735086  1  0  0.566135  0  1.347962  0  0  0.418892  0  1.787683  0  0  0.451075  0  1.738305  0  0.629174  0  0.464194  0.395672  0  1.822167  0
H  H4  1  0.43094603  0.31620801  0.69179110  1  0  0.352211  0  0.900962  0  0  0.332612  0  0.962956  0  0  0.341088  0  0.95578  0  0.527588  0  0.308526  0.326641  0  0.967899  0
H  H5  1  0.56905860  0.18378827  0.19179070  1  0  0.352264  0  0.900849  0  0  0.332667  0  0.962846  0  0  0.341145  0  0.955663  0  0.527134  0  0.308558  0.326696  0  0.96779  0
H  H6  1  0.56905389  0.68378454  0.30820890  1  0  0.352244  0  0.900872  0  0  0.332642  0  0.962892  0  0  0.341122  0  0.955704  0  0.526818  0  0.308534  0.32667  0  0.967836  0
H  H7  1  0.43094377  0.81620762  0.80820652  1  0  0.352243  0  0.900923  0  0  0.332638  0  0.96292  0  0  0.341114  0  0.955743  0  0.527328  0  0.308528  0.326667  0  0.967864  0
H  H8  1  0.16936243  0.34875506  0.70109111  1  0  0.334696  0  0.924513  0  0  0.310944  0  1.001267  0  0  0.320256  0  0.991772  0  0.509692  0  0.296264  0.304199  0  1.008175  0
H  H9  1  0.83063964  0.15124343  0.20109150  1  0  0.334675  0  0.924491  0  0  0.310931  0  1.001218  0  0  0.320239  0  0.991732  0  0.510157  0  0.296275  0.304186  0  1.008125  0
H  H10  1  0.83063749  0.65123749  0.29890929  1  0  0.334614  0  0.924549  0  0  0.310808  0  1.001363  0  0  0.320117  0  0.99188  0  0.5097  0  0.296206  0.304064  0  1.00827  0
H  H11  1  0.16935889  0.84875578  0.79890691  1  0  0.334655  0  0.924499  0  0  0.310908  0  1.001239  0  0  0.320218  0  0.991751  0  0.509629  0  0.296237  0.304163  0  1.008147  0
H  H12  1  0.71034880  0.57845848  0.54994959  1  0  0.083481  0  0.935295  0  0  0.089898  0  1.004552  0  0  0.092952  0  0.999849  0  0.122402  0  0.112034  0.087323  0  1.008797  0
H  H13  1  0.28965938  0.92154367  0.04995039  1  0  0.083526  0  0.935269  0  0  0.089923  0  1.00453  0  0  0.092974  0  0.99983  0  0.122452  0  0.112056  0.087349  0  1.008774  0
H  H14  1  0.28965533  0.42154407  0.45005358  1  0  0.083606  0  0.935164  0  0  0.089928  0  1.004507  0  0  0.09298  0  0.999806  0  0.1224  0  0.112054  0.087353  0  1.008751  0
H  H15  1  0.71034219  0.07846109  0.95004961  1  0  0.083547  0  0.935199  0  0  0.089918  0  1.004518  0  0  0.092973  0  0.999812  0  0.122476  0  0.112033  0.087342  0  1.008763  0
H  H16  1  0.08860960  0.69027041  0.57406825  1  0  0.086276  0  0.929016  0  0  0.09317  0  0.998608  0  0  0.096349  0  0.993287  0  0.120278  0  0.116006  0.090595  0  1.00287  0
H  H17  1  0.91139594  0.80972174  0.07406944  1  0  0.086196  0  0.928994  0  0  0.093139  0  0.998558  0  0  0.096318  0  0.993236  0  0.120317  0  0.115979  0.090564  0  1.002819  0
H  H18  1  0.91139318  0.30972103  0.42593333  1  0  0.086199  0  0.928996  0  0  0.093095  0  0.998609  0  0  0.096274  0  0.993287  0  0.120316  0  0.115979  0.09052  0  1.00287  0
H  H19  1  0.08860427  0.19027192  0.92592778  1  0  0.086245  0  0.929022  0  0  0.093186  0  0.998569  0  0  0.096365  0  0.99325  0  0.120408  0  0.116008  0.09061  0  1.00283  0
H  H20  1  0.77091693  0.96495751  0.34347400  1  0  0.102653  0  0.952614  0  0  0.120656  0  1.016975  0  0  0.121451  0  1.017055  0  0.071078  0  0.09991  0.120528  0  1.016138  0
H  H21  1  0.22907836  0.53504353  0.84347440  1  0  0.102648  0  0.952601  0  0  0.120652  0  1.016951  0  0  0.121448  0  1.01703  0  0.071025  0  0.099907  0.120525  0  1.016114  0
H  H22  1  0.22908790  0.03504171  0.65652481  1  0  0.102729  0  0.9526  0  0  0.120686  0  1.016987  0  0  0.121479  0  1.017068  0  0.071119  0  0.099921  0.120558  0  1.016151  0
H  H23  1  0.77091574  0.46495679  0.15652283  1  0  0.102649  0  0.952642  0  0  0.120621  0  1.017017  0  0  0.121415  0  1.017098  0  0.071055  0  0.099878  0.120494  0  1.016179  0
H  H24  1  0.75503179  0.15553996  0.33316663  1  0  0.090582  0  0.952348  0  0  0.106104  0  1.023744  0  0  0.106491  0  1.023659  0  0.066238  0  0.089328  0.106057  0  1.023562  0
H  H25  1  0.24497243  0.34446075  0.83316703  1  0  0.0906  0  0.952353  0  0  0.106113  0  1.023755  0  0  0.1065  0  1.023671  0  0.066261  0  0.089333  0.106066  0  1.023574  0
H  H26  1  0.24497146  0.84445925  0.66683337  1  0  0.090574  0  0.95236  0  0  0.106092  0  1.023753  0  0  0.106478  0  1.023666  0  0.066248  0  0.08932  0.106044  0  1.023572  0
H  H27  1  0.75503485  0.65554179  0.16683258  1  0  0.090533  0  0.952374  0  0  0.106044  0  1.023787  0  0  0.10643  0  1.023702  0  0.066211  0  0.089305  0.105996  0  1.023606  0
H  H28  1  0.60753022  0.01424294  0.29177443  1  0  0.105359  0  0.947351  0  0  0.122534  0  1.013076  0  0  0.124037  0  1.012156  0  0.058493  0  0.096992  0.121549  0  1.013648  0
H  H29  1  0.39247372  0.48575666  0.79177562  1  0  0.105359  0  0.947359  0  0  0.122529  0  1.013086  0  0  0.124031  0  1.012165  0  0.058248  0  0.096988  0.121543  0  1.01366  0
H  H30  1  0.39247461  0.98575627  0.70822557  1  0  0.10533  0  0.947346  0  0  0.122499  0  1.013073  0  0  0.123999  0  1.012152  0  0.058497  0  0.096969  0.121512  0  1.013646  0
H  H31  1  0.60753210  0.51424033  0.20822557  1  0  0.105214  0  0.947423  0  0  0.122442  0  1.013094  0  0  0.123943  0  1.012173  0  0.058511  0  0.096954  0.121456  0  1.013668  0
H  H32  1  0.21331801  0.02997802  0.31663650  1  0  0.092542  0  0.945182  0  0  0.107601  0  1.014211  0  0  0.108083  0  1.014737  0  0.041358  0  0.091282  0.107448  0  1.013811  0
H  H33  1  0.78667234  0.47002381  0.81663610  1  0  0.092494  0  0.945204  0  0  0.107538  0  1.014255  0  0  0.108021  0  1.014777  0  0.041216  0  0.09126  0.107384  0  1.013854  0
H  H34  1  0.78668181  0.97002009  0.68336429  1  0  0.092527  0  0.945195  0  0  0.107581  0  1.014228  0  0  0.10806  0  1.014757  0  0.041197  0  0.09126  0.107428  0  1.013829  0
H  H35  1  0.21331674  0.52997540  0.18336350  1  0  0.092532  0  0.945167  0  0  0.107589  0  1.014196  0  0  0.108071  0  1.014721  0  0.041342  0  0.09126  0.107436  0  1.013797  0
H  H36  1  0.36556103  0.20356341  0.33738619  1  0  0.093833  0  0.960859  0  0  0.111267  0  1.029005  0  0  0.11121  0  1.030487  0  0.046634  0  0.095514  0.111711  0  1.027566  0
H  H37  1  0.63443581  0.29644508  0.83738619  1  0  0.09382  0  0.960785  0  0  0.111249  0  1.028949  0  0  0.11119  0  1.030432  0  0.046645  0  0.095508  0.111693  0  1.027508  0
H  H38  1  0.63444311  0.79643913  0.66261461  1  0  0.093857  0  0.960843  0  0  0.111283  0  1.028997  0  0  0.111223  0  1.030478  0  0.046631  0  0.095524  0.111733  0  1.02755  0
H  H39  1  0.36555562  0.70356302  0.16261461  1  0  0.093826  0  0.960843  0  0  0.111255  0  1.028996  0  0  0.111196  0  1.030478  0  0.046607  0  0.095511  0.111704  0  1.027551  0
H  H40  1  0.18908899  0.09450924  0.38286299  1  0  0.09894  0  0.963574  0  0  0.113292  0  1.035852  0  0  0.114052  0  1.035393  0  0.068168  0  0.095419  0.112782  0  1.036277  0
H  H41  1  0.81091681  0.40549147  0.88286299  1  0  0.098947  0  0.963524  0  0  0.113292  0  1.035809  0  0  0.114058  0  1.035345  0  0.068187  0  0.095423  0.112772  0  1.036244  0
H  H42  1  0.81092097  0.90548553  0.61713740  1  0  0.098991  0  0.963436  0  0  0.11334  0  1.035719  0  0  0.114104  0  1.035252  0  0.068185  0  0.095444  0.11282  0  1.036154  0
H  H43  1  0.18908516  0.59450885  0.11713780  1  0  0.098928  0  0.963582  0  0  0.113284  0  1.035853  0  0  0.114044  0  1.035394  0  0.068206  0  0.095404  0.11277  0  1.036283  0
C  C44  1  0.34190820  0.46429843  0.63982441  1  0  0.641839  0  3.776787  0  0  0.594166  0  4.043286  0  0  0.622084  0  4.050743  0  1.546432  0  0.347736  0.575574  0  4.038635  0
C  C45  1  0.65809987  0.03569895  0.13982560  1  0  0.642053  0  3.77637  0  0  0.594228  0  4.043074  0  0  0.622143  0  4.050536  0  1.5463  0  0.347788  0.575636  0  4.038423  0
C  C46  1  0.65809161  0.53569967  0.36017639  1  0  0.64193  0  3.776585  0  0  0.594062  0  4.043359  0  0  0.621978  0  4.05082  0  1.546375  0  0.347736  0.57547  0  4.038707  0
C  C47  1  0.34190221  0.96429582  0.86017321  1  0  0.642087  0  3.776696  0  0  0.594392  0  4.043193  0  0  0.62231  0  4.050649  0  1.546687  0  0.347923  0.575798  0  4.038545  0
C  C48  1  0.55787868  0.56948017  0.57077945  1  0  0.146406  0  3.696275  0  0  0.101834  0  3.957047  0  0  0.116423  0  3.971001  0  0.540331  0  0.05758  0.090918  0  3.94969  0
C  C49  1  0.44212419  0.93051976  0.07077906  1  0  0.146357  0  3.696185  0  0  0.101809  0  3.956971  0  0  0.1164  0  3.970925  0  0.540863  0  0.057542  0.090891  0  3.949612  0
C  C50  1  0.44211955  0.43051793  0.42922174  1  0  0.146313  0  3.696225  0  0  0.101841  0  3.956991  0  0  0.116432  0  3.970945  0  0.540592  0  0.05758  0.090925  0  3.949632  0
C  C51  1  0.55787394  0.06948389  0.92921936  1  0  0.146272  0  3.696304  0  0  0.101693  0  3.957049  0  0  0.116283  0  3.971007  0  0.540397  0  0.057499  0.090778  0  3.94969  0
C  C52  1  0.39874366  0.64381570  0.55164162  1  0  -0.046593  0  3.79239  0  0  -0.026996  0  4.041144  0  0  -0.039137  0  4.06735  0  0.02217  0  -0.027005  -0.019627  0  4.025375  0
C  C53  1  0.60126591  0.85617978  0.05164281  1  0  -0.046537  0  3.79233  0  0  -0.026987  0  4.041153  0  0  -0.039128  0  4.067358  0  0.022195  0  -0.02702  -0.019615  0  4.025379  0
C  C54  1  0.60126274  0.35618351  0.44835917  1  0  -0.046659  0  3.792528  0  0  -0.027098  0  4.041324  0  0  -0.039241  0  4.067532  0  0.022195  0  -0.027019  -0.019725  0  4.025547  0
C  C55  1  0.39873794  0.14382165  0.94835798  1  0  -0.046584  0  3.79252  0  0  -0.02692  0  4.041125  0  0  -0.039062  0  4.067335  0  0.022118  0  -0.02703  -0.019548  0  4.025348  0
C  C56  1  0.21419550  0.62757437  0.58318886  1  0  0.163579  0  3.671193  0  0  0.110394  0  3.937504  0  0  0.127285  0  3.948373  0  0.490002  0  0.061264  0.098835  0  3.930934  0
C  C57  1  0.78580748  0.87242000  0.08318846  1  0  0.16382  0  3.671424  0  0  0.110593  0  3.937763  0  0  0.127483  0  3.948643  0  0.489866  0  0.061315  0.099033  0  3.931189  0
C  C58  1  0.78580717  0.37242262  0.41681233  1  0  0.163837  0  3.671304  0  0  0.110643  0  3.937622  0  0  0.127534  0  3.948496  0  0.489988  0  0.061374  0.099083  0  3.93105  0
C  C59  1  0.21419431  0.12757366  0.91680955  1  0  0.163602  0  3.671275  0  0  0.110354  0  3.937572  0  0  0.127243  0  3.948449  0  0.489935  0  0.061305  0.098795  0  3.930999  0
C  C60  1  0.42258914  0.73578367  0.50359918  1  0  -0.140395  0  3.879082  0  0  -0.156384  0  4.154423  0  0  -0.159521  0  4.178778  0  0.056617  0  -0.045156  -0.153806  0  4.138509  0
C  C61  1  0.57740929  0.76421737  0.00359760  1  0  -0.140577  0  3.8793  0  0  -0.156518  0  4.154618  0  0  -0.159656  0  4.178975  0  0.056767  0  -0.045153  -0.153941  0  4.138704  0
C  C62  1  0.57741411  0.26421555  0.49640201  1  0  -0.140401  0  3.879217  0  0  -0.156393  0  4.154577  0  0  -0.159531  0  4.178936  0  0.056701  0  -0.045136  -0.153814  0  4.138662  0
C  C63  1  0.42258283  0.23578739  0.99640082  1  0  -0.140421  0  3.879231  0  0  -0.156327  0  4.154418  0  0  -0.159465  0  4.178776  0  0.056511  0  -0.045107  -0.153751  0  4.138505  0
C  C64  1  0.61575913  0.82714989  0.48858009  1  0  0.176836  0  3.800551  0  0  0.141135  0  4.109877  0  0  0.150768  0  4.119616  0  0.533899  0  0.079622  0.134116  0  4.10378  0
C  C65  1  0.38423202  0.67285337  0.98857890  1  0  0.177107  0  3.800537  0  0  0.141276  0  4.109891  0  0  0.150909  0  4.11963  0  0.533597  0  0.079665  0.134261  0  4.103798  0
C  C66  1  0.38424009  0.17284599  0.51142110  1  0  0.176846  0  3.800536  0  0  0.141049  0  4.109919  0  0  0.150681  0  4.119659  0  0.533827  0  0.079531  0.134028  0  4.103822  0
C  C67  1  0.61575755  0.32715362  0.01141951  1  0  0.176872  0  3.80052  0  0  0.141045  0  4.109882  0  0  0.150676  0  4.119623  0  0.53405  0  0.079563  0.134023  0  4.103784  0
C  C68  1  0.63417325  0.91870596  0.44440237  1  0  0.115318  0  3.776572  0  0  0.079064  0  4.090857  0  0  0.083781  0  4.101158  0  0.531005  0  0.073431  0.075751  0  4.084455  0
C  C69  1  0.36581633  0.58129729  0.94440237  1  0  0.115108  0  3.776708  0  0  0.078946  0  4.090887  0  0  0.08366  0  4.101182  0  0.530403  0  0.073412  0.075618  0  4.084503  0
C  C70  1  0.36582243  0.08129436  0.55559802  1  0  0.115274  0  3.776622  0  0  0.079072  0  4.090831  0  0  0.083783  0  4.101124  0  0.530596  0  0.073437  0.075764  0  4.084424  0
C  C71  1  0.63417678  0.41870525  0.05559763  1  0  0.115402  0  3.776507  0  0  0.079203  0  4.090723  0  0  0.083917  0  4.101015  0  0.530053  0  0.073521  0.075894  0  4.084315  0
C  C72  1  0.45983962  0.92692488  0.41019822  1  0  0.043919  0  3.861417  0  0  0.013433  0  4.133508  0  0  0.021837  0  4.153474  0  0.595267  0  0.091007  0.007562  0  4.120155  0
C  C73  1  0.54015498  0.57307949  0.91019941  1  0  0.043778  0  3.861458  0  0  0.013384  0  4.133414  0  0  0.021802  0  4.153356  0  0.595274  0  0.090974  0.00752  0  4.120064  0
C  C74  1  0.54016492  0.07307322  0.58980178  1  0  0.043859  0  3.861269  0  0  0.013444  0  4.133258  0  0  0.021872  0  4.153193  0  0.595337  0  0.091032  0.007572  0  4.119904  0
C  C75  1  0.45983813  0.42692306  0.08980099  1  0  0.043807  0  3.861391  0  0  0.013423  0  4.133356  0  0  0.021843  0  4.153296  0  0.595576  0  0.091011  0.007552  0  4.120001  0
C  C76  1  0.26633246  0.83251112  0.42474260  1  0  0.12157  0  3.765678  0  0  0.083935  0  4.084551  0  0  0.090264  0  4.090872  0  0.509968  0  0.07379  0.079185  0  4.081053  0
C  C77  1  0.73366667  0.66748659  0.92474340  1  0  0.121717  0  3.765452  0  0  0.083978  0  4.084385  0  0  0.090302  0  4.090703  0  0.51027  0  0.073835  0.079228  0  4.080886  0
C  C78  1  0.73367347  0.16748032  0.57525541  1  0  0.121605  0  3.765591  0  0  0.083889  0  4.084487  0  0  0.09021  0  4.090803  0  0.509714  0  0.073723  0.07914  0  4.080989  0
C  C79  1  0.26633215  0.33251373  0.07525740  1  0  0.12158  0  3.765447  0  0  0.083887  0  4.084372  0  0  0.090209  0  4.09069  0  0.510189  0  0.073807  0.079137  0  4.080874  0
C  C80  1  0.25027918  0.74268587  0.46934780  1  0  0.177554  0  3.794626  0  0  0.138414  0  4.111228  0  0  0.148671  0  4.118821  0  0.501421  0  0.079204  0.131508  0  4.106222  0
C  C81  1  0.74972497  0.75731295  0.96934899  1  0  0.177532  0  3.794623  0  0  0.138385  0  4.111262  0  0  0.148642  0  4.118856  0  0.501501  0  0.079134  0.131478  0  4.106259  0
C  C82  1  0.74972507  0.25731112  0.53065141  1  0  0.177611  0  3.794674  0  0  0.138515  0  4.111239  0  0  0.148773  0  4.118831  0  0.501574  0  0.079219  0.131608  0  4.106236  0
C  C83  1  0.25027099  0.24268848  0.03065022  1  0  0.177576  0  3.794531  0  0  0.138393  0  4.111171  0  0  0.14865  0  4.118766  0  0.501769  0  0.079205  0.131485  0  4.106169  0
C  C84  1  0.66418153  0.04113900  0.33253912  1  0  -0.170624  0  3.649285  0  0  -0.268434  0  3.899621  0  0  -0.264644  0  3.908888  0  0.27352  0  -0.146303  -0.271251  0  3.89253  0
C  C85  1  0.33582299  0.45886282  0.83254031  1  0  -0.170686  0  3.649399  0  0  -0.268462  0  3.899715  0  0  -0.264673  0  3.908985  0  0.273822  0  -0.146268  -0.271277  0  3.892619  0
C  C86  1  0.33582488  0.95886021  0.66746049  1  0  -0.170677  0  3.649295  0  0  -0.268413  0  3.899619  0  0  -0.264617  0  3.908889  0  0.273534  0  -0.146251  -0.271229  0  3.892525  0
C  C87  1  0.66418301  0.54114083  0.16746009  1  0  -0.17047  0  3.649265  0  0  -0.268257  0  3.89957  0  0  -0.264466  0  3.908841  0  0.273544  0  -0.146199  -0.271073  0  3.892475  0
C  C88  1  0.30100367  0.08946332  0.35021433  1  0  -0.174659  0  3.672772  0  0  -0.274687  0  3.932026  0  0  -0.27122  0  3.943246  0  0.301269  0  -0.149843  -0.277139  0  3.923857  0
C  C89  1  0.69899701  0.41054184  0.85021552  1  0  -0.174624  0  3.672572  0  0  -0.274621  0  3.931836  0  0  -0.27116  0  3.943053  0  0.301458  0  -0.149825  -0.277064  0  3.923675  0
C  C90  1  0.69900146  0.91053700  0.64978527  1  0  -0.174746  0  3.672588  0  0  -0.274746  0  3.931844  0  0  -0.271274  0  3.94306  0  0.301343  0  -0.14986  -0.277193  0  3.923678  0
C  C91  1  0.30100270  0.58946181  0.14978567  1  0  -0.174695  0  3.672709  0  0  -0.2747  0  3.931951  0  0  -0.271231  0  3.943172  0  0.301268  0  -0.149817  -0.277152  0  3.923782  0
N  N92  1  0.18179816  0.53828869  0.62559596  1  0  -0.44825  0  3.245136  0  0  -0.366541  0  3.545663  0  0  -0.39194  0  3.552838  0  -1.183873  0  -0.352511  -0.349796  0  3.54053  0
N  N93  1  0.81820640  0.96170569  0.12559517  1  0  -0.448573  0  3.245285  0  0  -0.366825  0  3.545936  0  0  -0.392228  0  3.553113  0  -1.183896  0  -0.352583  -0.35008  0  3.540806  0
N  N94  1  0.81820422  0.46170719  0.37440563  1  0  -0.448436  0  3.245033  0  0  -0.366647  0  3.545637  0  0  -0.392044  0  3.55281  0  -1.183899  0  -0.352576  -0.349903  0  3.540507  0
N  N95  1  0.18179352  0.03828686  0.87440245  1  0  -0.448351  0  3.245106  0  0  -0.366659  0  3.545687  0  0  -0.392061  0  3.552864  0  -1.184235  0  -0.352631  -0.349913  0  3.540557  0
N  N96  1  0.30829722  0.36654070  0.67944679  1  0  -0.665077  0  3.0843  0  0  -0.628782  0  3.321164  0  0  -0.650924  0  3.314662  0  -1.317594  0  -0.561471  -0.61393  0  3.325577  0
N  N97  1  0.69170957  0.13345779  0.17944560  1  0  -0.665139  0  3.084224  0  0  -0.628774  0  3.321101  0  0  -0.650917  0  3.314606  0  -1.317595  0  -0.561517  -0.613924  0  3.325514  0
N  N98  1  0.69170113  0.63345185  0.32055520  1  0  -0.664996  0  3.084303  0  0  -0.628577  0  3.321278  0  0  -0.650718  0  3.314784  0  -1.316784  0  -0.561392  -0.613727  0  3.325688  0
N  N99  1  0.30829339  0.86654031  0.82055282  1  0  -0.665152  0  3.084368  0  0  -0.628824  0  3.32122  0  0  -0.650967  0  3.314723  0  -1.317357  0  -0.561491  -0.613972  0  3.325634  0
N  N100  1  0.53569001  0.48651605  0.61471188  1  0  -0.454722  0  3.148525  0  0  -0.386076  0  3.435428  0  0  -0.41073  0  3.446943  0  -1.170531  0  -0.342975  -0.37023  0  3.42947  0
N  N101  1  0.46431433  0.01347912  0.11471109  1  0  -0.454744  0  3.1483  0  0  -0.386057  0  3.435242  0  0  -0.41071  0  3.446756  0  -1.170884  0  -0.34292  -0.370211  0  3.429287  0
N  N102  1  0.46430980  0.51348205  0.38528970  1  0  -0.454732  0  3.148474  0  0  -0.386044  0  3.435427  0  0  -0.410697  0  3.44694  0  -1.170766  0  -0.342993  -0.370197  0  3.42947  0
N  N103  1  0.53568332  0.98651676  0.88528732  1  0  -0.454766  0  3.148555  0  0  -0.386106  0  3.435448  0  0  -0.410761  0  3.446963  0  -1.170438  0  -0.342947  -0.370258  0  3.429488  0
N  N104  1  0.47927232  0.02253958  0.36797925  1  0  -0.092315  0  3.47132  0  0  0.000181  0  3.711608  0  0  -0.019391  0  3.739165  0  -1.16304  0  -0.302224  0.015302  0  3.691757  0
N  N105  1  0.52072304  0.47746336  0.86798123  1  0  -0.092148  0  3.471262  0  0  0.000307  0  3.711508  0  0  -0.019269  0  3.739068  0  -1.163087  0  -0.30222  0.015426  0  3.691655  0
N  N106  1  0.52072877  0.97745741  0.63201996  1  0  -0.092238  0  3.471304  0  0  0.000196  0  3.7116  0  0  -0.019391  0  3.739158  0  -1.163076  0  -0.302262  0.015316  0  3.691748  0
N  N107  1  0.47927538  0.52254140  0.13201916  1  0  -0.092182  0  3.471172  0  0  0.000246  0  3.711464  0  0  -0.019332  0  3.739019  0  -1.163017  0  -0.30224  0.015364  0  3.691617  0
N  N108  1  0.78403868  0.71137115  0.75565558  1  0  0.70022  0  4.143491  0  0  0.734947  0  4.418956  0  0  0.764385  0  4.425762  0  0.824226  0  0.100924  0.715066  0  4.41392  0
N  N109  1  0.21595602  0.78862766  0.25565716  1  0  0.699965  0  4.14396  0  0  0.734754  0  4.419368  0  0  0.764192  0  4.426174  0  0.823486  0  0.100836  0.714874  0  4.414328  0
N  N110  1  0.21596260  0.28863250  0.24434403  1  0  0.700258  0  4.143551  0  0  0.734867  0  4.419182  0  0  0.764308  0  4.425987  0  0.82381  0  0.100895  0.714987  0  4.414145  0
N  N111  1  0.78403936  0.21137155  0.74434284  1  0  0.699714  0  4.144109  0  0  0.734691  0  4.419282  0  0  0.764134  0  4.426088  0  0.823513  0  0.100787  0.714811  0  4.414242  0
O  O112  1  0.66917763  0.60800018  0.72929278  1  0  -0.464045  0  1.859508  0  0  -0.441444  0  2.101485  0  0  -0.460769  0  2.093509  0  -0.534711  0  -0.190659  -0.427764  0  2.106687  0
O  O113  1  0.33081667  0.89200308  0.22929517  1  0  -0.463923  0  1.859694  0  0  -0.441373  0  2.101666  0  0  -0.4607  0  2.093691  0  -0.534611  0  -0.190612  -0.42769  0  2.106862  0
O  O114  1  0.33082365  0.39200347  0.27070642  1  0  -0.464006  0  1.859751  0  0  -0.441366  0  2.10177  0  0  -0.460691  0  2.093792  0  -0.534312  0  -0.190609  -0.427684  0  2.106968  0
O  O115  1  0.66917860  0.10800168  0.77070602  1  0  -0.46386  0  1.859582  0  0  -0.441386  0  2.10152  0  0  -0.460711  0  2.093539  0  -0.534585  0  -0.190643  -0.427706  0  2.106718  0
O  O116  1  0.69693268  0.77006598  0.79371016  1  0  -0.478777  0  1.896612  0  0  -0.449466  0  2.137446  0  0  -0.468542  0  2.127453  0  -0.561166  0  -0.190175  -0.436008  0  2.144205  0
O  O117  1  0.30306429  0.72992950  0.29370976  1  0  -0.47871  0  1.896816  0  0  -0.449393  0  2.137594  0  0  -0.468477  0  2.127609  0  -0.561115  0  -0.190151  -0.435937  0  2.144353  0
O  O118  1  0.30306860  0.22993767  0.20628905  1  0  -0.478811  0  1.896479  0  0  -0.449456  0  2.137354  0  0  -0.468533  0  2.127347  0  -0.561153  0  -0.190198  -0.436001  0  2.144117  0
O  O119  1  0.69693149  0.27006527  0.70628865  1  0  -0.478519  0  1.896938  0  0  -0.449276  0  2.137691  0  0  -0.468356  0  2.127691  0  -0.561206  0  -0.190068  -0.435822  0  2.144451  0
O  O120  1  0.97888110  0.75454629  0.74458058  1  0  -0.46417  0  1.773431  0  0  -0.450897  0  1.985761  0  0  -0.465897  0  1.977038  0  -0.531893  0  -0.176186  -0.440295  0  1.991411  0
O  O121  1  0.02111232  0.74545363  0.24458257  1  0  -0.464111  0  1.773545  0  0  -0.450829  0  1.985824  0  0  -0.465829  0  1.977102  0  -0.531281  0  -0.176169  -0.440227  0  1.991471  0
O  O122  1  0.02111959  0.24545514  0.25541942  1  0  -0.464197  0  1.773367  0  0  -0.45089  0  1.985748  0  0  -0.465891  0  1.977023  0  -0.531856  0  -0.176176  -0.440289  0  1.991397  0
O  O123  1  0.97888464  0.25454558  0.75541703  1  0  -0.464073  0  1.773543  0  0  -0.450868  0  1.985778  0  0  -0.465869  0  1.977049  0  -0.531221  0  -0.176173  -0.440265  0  1.991426  0
F  F124  1  0.79031539  0.83693643  0.52060521  1  0  -0.174401  0  1.282041  0  0  -0.120431  0  1.457892  0  0  -0.12903  0  1.448324  0  -0.632753  0  -0.084903  -0.114141  0  1.464669  0
F  F125  1  0.20968796  0.66307127  0.02060799  1  0  -0.17461  0  1.28209  0  0  -0.120459  0  1.457835  0  0  -0.129058  0  1.448267  0  -0.632488  0  -0.084911  -0.114168  0  1.464612  0
F  F126  1  0.20968944  0.16306278  0.47939320  1  0  -0.174466  0  1.282002  0  0  -0.120386  0  1.457801  0  0  -0.128984  0  1.448233  0  -0.632736  0  -0.084873  -0.114095  0  1.46458  0
F  F127  1  0.79031164  0.33693794  0.97939201  1  0  -0.174551  0  1.28205  0  0  -0.120424  0  1.457825  0  0  -0.129022  0  1.448258  0  -0.632778  0  -0.084894  -0.114132  0  1.464601  0
F  F128  1  0.82281215  0.01377776  0.43668405  1  0  -0.168497  0  1.292195  0  0  -0.113002  0  1.468315  0  0  -0.12177  0  1.460217  0  -0.629662  0  -0.083852  -0.106488  0  1.474026  0
F  F129  1  0.17718233  0.48622184  0.93668604  1  0  -0.168328  0  1.292166  0  0  -0.112969  0  1.468358  0  0  -0.121737  0  1.460262  0  -0.629232  0  -0.083859  -0.10645  0  1.474073  0
F  F130  1  0.17718982  0.98622256  0.56331912  1  0  -0.168462  0  1.292304  0  0  -0.112985  0  1.468387  0  0  -0.121753  0  1.46029  0  -0.629209  0  -0.083828  -0.106472  0  1.474094  0
F  F131  1  0.82280269  0.51379180  0.06331317  1  0  -0.16843  0  1.292046  0  0  -0.113042  0  1.468221  0  0  -0.12181  0  1.460123  0  -0.629189  0  -0.083871  -0.10653  0  1.47393  0
F  F132  1  0.09106639  0.82144117  0.39295285  1  0  -0.168569  0  1.279662  0  0  -0.113355  0  1.458285  0  0  -0.12161  0  1.448826  0  -0.631235  0  -0.086683  -0.107166  0  1.464833  0
F  F133  1  0.90892199  0.67857541  0.89295047  1  0  -0.168616  0  1.279567  0  0  -0.11335  0  1.458203  0  0  -0.121608  0  1.448745  0  -0.63162  0  -0.086702  -0.107162  0  1.464751  0
F  F134  1  0.90893343  0.17855693  0.60704675  1  0  -0.168598  0  1.27965  0  0  -0.113346  0  1.458269  0  0  -0.121602  0  1.448811  0  -0.631294  0  -0.086666  -0.107157  0  1.464816  0
F  F135  1  0.09107505  0.32143601  0.10705151  1  0  -0.168548  0  1.279507  0  0  -0.113352  0  1.458183  0  0  -0.12161  0  1.448725  0  -0.631692  0  -0.086729  -0.107164  0  1.464731  0
F  F136  1  0.05987016  0.64902150  0.47739992  1  0  -0.182772  0  1.265149  0  0  -0.127936  0  1.440678  0  0  -0.137357  0  1.431552  0  -0.630813  0  -0.090067  -0.120636  0  1.446592  0
F  F137  1  0.94012758  0.85098287  0.97739952  1  0  -0.182773  0  1.265102  0  0  -0.127936  0  1.440646  0  0  -0.137358  0  1.43152  0  -0.630827  0  -0.090046  -0.120636  0  1.446559  0
F  F138  1  0.94012746  0.35099214  0.52260048  1  0  -0.182842  0  1.26511  0  0  -0.128008  0  1.440616  0  0  -0.137429  0  1.43149  0  -0.630842  0  -0.090067  -0.120708  0  1.446531  0
F  F139  1  0.05986435  0.14901523  0.02260127  1  0  -0.182777  0  1.265103  0  0  -0.12793  0  1.440645  0  0  -0.137351  0  1.431521  0  -0.630883  0  -0.090078  -0.12063  0  1.446558  0
