# generated using pymatgen
data_PrH6(C2N3)3
_symmetry_space_group_name_H-M   'P 1'
_cell_length_a   9.53807135
_cell_length_b   9.53806980
_cell_length_c   13.01946048
_cell_angle_alpha   92.03308112
_cell_angle_beta   92.03281576
_cell_angle_gamma   119.86553663
_symmetry_Int_Tables_number   1
_chemical_formula_structural   PrH6(C2N3)3
_chemical_formula_sum   'Pr4 H24 C24 N36'
_cell_volume   1024.56655454
_cell_formula_units_Z   4
loop_
 _symmetry_equiv_pos_site_id
 _symmetry_equiv_pos_as_xyz
  1  'x, y, z'
loop_
 _atom_site_type_symbol
 _atom_site_label
 _atom_site_symmetry_multiplicity
 _atom_site_fract_x
 _atom_site_fract_y
 _atom_site_fract_z
 _atom_site_occupancy
 _atom_site_hle17_bader_spin_density
 _atom_site_hle17_ddec_charge
 _atom_site_hle17_ddec_spin_density
 _atom_site_hle17_ddec_sum_bond_order
 _atom_site_hle17_magmom
 _atom_site_hse06_10hf_bader_spin_density
 _atom_site_hse06_10hf_ddec_charge
 _atom_site_hse06_10hf_ddec_spin_density
 _atom_site_hse06_10hf_ddec_sum_bond_order
 _atom_site_hse06_10hf_magmom
 _atom_site_hse06_bader_spin_density
 _atom_site_hse06_ddec_charge
 _atom_site_hse06_ddec_spin_density
 _atom_site_hse06_ddec_sum_bond_order
 _atom_site_hse06_magmom
 _atom_site_pbe_bader_spin_density
 _atom_site_pbe_cm5_charge
 _atom_site_pbe_ddec_charge
 _atom_site_pbe_ddec_spin_density
 _atom_site_pbe_ddec_sum_bond_order
 _atom_site_pbe_magmom
Pr  Pr0  1  0.51967146  0.25649382  0.42738442  1  0  1.916913  0  2.076422  0  0  1.592121  0  2.72571  0  0  1.644927  0  2.668777  0  0  1.75253  1.552477  0  2.767224  0
Pr  Pr1  1  0.74350695  0.48032812  0.07261489  1  0  1.916915  0  2.076431  0  0  1.592141  0  2.725689  0  0  1.644974  0  2.66873  0  0  1.752534  1.552511  0  2.767189  0
Pr  Pr2  1  0.48032942  0.74350759  0.57261623  1  0  1.916911  0  2.076403  0  0  1.592115  0  2.725697  0  0  1.644953  0  2.668736  0  0  1.752536  1.552489  0  2.767194  0
Pr  Pr3  1  0.25649498  0.51967329  0.92738502  1  0  1.916923  0  2.076423  0  0  1.59216  0  2.725665  0  0  1.644977  0  2.668728  0  0  1.752554  1.552525  0  2.767172  0
H  H4  1  0.96630746  0.00403465  0.40057046  1  0  0.103353  0  0.956235  0  0  0.111573  0  1.020191  0  0  0.114175  0  1.019216  0  0  0.121117  0.109769  0  1.020941  0
H  H5  1  0.99596528  0.03369254  0.09942842  1  0  0.103351  0  0.956219  0  0  0.111588  0  1.020161  0  0  0.114191  0  1.019184  0  0  0.121126  0.109784  0  1.020912  0
H  H6  1  0.03369220  0.99596433  0.59942779  1  0  0.103438  0  0.956147  0  0  0.111645  0  1.020127  0  0  0.114249  0  1.01915  0  0  0.121154  0.109842  0  1.020878  0
H  H7  1  0.00403499  0.96630765  0.90057142  1  0  0.10336  0  0.956229  0  0  0.111579  0  1.020186  0  0  0.114181  0  1.019211  0  0  0.121123  0.109775  0  1.020936  0
H  H8  1  0.90226190  0.24385570  0.33393684  1  0  0.1006  0  0.970391  0  0  0.106085  0  1.039383  0  0  0.108535  0  1.038623  0  0  0.121367  0.104221  0  1.040395  0
H  H9  1  0.75614393  0.09773780  0.16606254  1  0  0.100604  0  0.970393  0  0  0.106091  0  1.039381  0  0  0.108543  0  1.03862  0  0  0.121361  0.104228  0  1.040393  0
H  H10  1  0.09773837  0.75614450  0.66606300  1  0  0.100611  0  0.970379  0  0  0.106098  0  1.039367  0  0  0.108549  0  1.038606  0  0  0.121374  0.104234  0  1.040379  0
H  H11  1  0.24385574  0.90226118  0.83393648  1  0  0.100604  0  0.970362  0  0  0.10608  0  1.039363  0  0  0.10853  0  1.038603  0  0  0.12137  0.104217  0  1.040374  0
H  H12  1  0.78169153  0.70360034  0.76750491  1  0  0.104796  0  0.958256  0  0  0.114108  0  1.020243  0  0  0.116142  0  1.020231  0  0  0.122965  0.112641  0  1.02031  0
H  H13  1  0.29639696  0.21830780  0.73249631  1  0  0.104781  0  0.95825  0  0  0.114088  0  1.020243  0  0  0.116124  0  1.020228  0  0  0.122949  0.112621  0  1.020311  0
H  H14  1  0.21830874  0.29639985  0.23249415  1  0  0.104788  0  0.958274  0  0  0.114095  0  1.020263  0  0  0.116129  0  1.020252  0  0  0.122951  0.112628  0  1.02033  0
H  H15  1  0.70359790  0.78168998  0.26750486  1  0  0.104802  0  0.958251  0  0  0.114112  0  1.020235  0  0  0.116146  0  1.020224  0  0  0.122952  0.112645  0  1.020303  0
H  H16  1  0.86835592  0.46731494  0.72601282  1  0  0.110003  0  0.951628  0  0  0.118994  0  1.011877  0  0  0.121292  0  1.011537  0  0  0.123767  0.117653  0  1.011649  0
H  H17  1  0.53268279  0.13164355  0.77398710  1  0  0.109993  0  0.951657  0  0  0.118983  0  1.011901  0  0  0.121282  0  1.011564  0  0  0.123761  0.117642  0  1.011673  0
H  H18  1  0.13164540  0.53268525  0.27398782  1  0  0.109999  0  0.951641  0  0  0.118995  0  1.011881  0  0  0.121292  0  1.011541  0  0  0.123762  0.117654  0  1.011652  0
H  H19  1  0.46731373  0.86835544  0.22601260  1  0  0.109983  0  0.951635  0  0  0.118974  0  1.011885  0  0  0.121271  0  1.011546  0  0  0.123759  0.117633  0  1.011655  0
H  H20  1  0.36153753  0.06547031  0.00701795  1  0  0.102171  0  0.975542  0  0  0.110611  0  1.039472  0  0  0.112616  0  1.03961  0  0  0.121743  0.108951  0  1.039846  0
H  H21  1  0.93452876  0.63846291  0.49298204  1  0  0.10216  0  0.97556  0  0  0.1106  0  1.03949  0  0  0.112607  0  1.039627  0  0  0.121739  0.108941  0  1.039864  0
H  H22  1  0.63846545  0.93453110  0.99298198  1  0  0.10219  0  0.975556  0  0  0.11063  0  1.039482  0  0  0.112637  0  1.03962  0  0  0.121761  0.108971  0  1.039856  0
H  H23  1  0.06547046  0.36153729  0.50701700  1  0  0.102196  0  0.975499  0  0  0.110639  0  1.039426  0  0  0.112646  0  1.039565  0  0  0.121763  0.108979  0  1.0398  0
H  H24  1  0.15871972  0.88574945  0.15939068  1  0  0.108175  0  0.963711  0  0  0.114824  0  1.029932  0  0  0.117735  0  1.028371  0  0  0.123942  0.112646  0  1.031304  0
H  H25  1  0.11425183  0.84128058  0.34060880  1  0  0.108169  0  0.963716  0  0  0.11482  0  1.029935  0  0  0.117733  0  1.028373  0  0  0.123935  0.112644  0  1.031305  0
H  H26  1  0.84128281  0.11425317  0.84060928  1  0  0.10814  0  0.963728  0  0  0.114793  0  1.029948  0  0  0.117705  0  1.028386  0  0  0.123927  0.112617  0  1.031319  0
H  H27  1  0.88574844  0.15871961  0.65939103  1  0  0.108188  0  0.963704  0  0  0.114838  0  1.029924  0  0  0.11775  0  1.028364  0  0  0.123942  0.112662  0  1.031295  0
C  C28  1  0.86471030  0.02242252  0.41310892  1  0  0.003913  0  3.723595  0  0  -0.025251  0  3.987823  0  0  -0.024829  0  4.004467  0  0  0.014605  -0.025608  0  3.976596  0
C  C29  1  0.97757654  0.13528879  0.08688935  1  0  0.003922  0  3.723564  0  0  -0.025262  0  3.987799  0  0  -0.024843  0  4.004447  0  0  0.01461  -0.02562  0  3.976575  0
C  C30  1  0.13528832  0.97757646  0.58689007  1  0  0.003823  0  3.723577  0  0  -0.025341  0  3.98783  0  0  -0.024923  0  4.004477  0  0  0.01458  -0.0257  0  3.976607  0
C  C31  1  0.02242313  0.86471020  0.91310891  1  0  0.003924  0  3.723587  0  0  -0.025239  0  3.987817  0  0  -0.024819  0  4.004463  0  0  0.014608  -0.025598  0  3.976592  0
C  C32  1  0.83298318  0.14159984  0.37985342  1  0  -0.000639  0  3.729679  0  0  -0.031495  0  3.993243  0  0  -0.029175  0  4.009791  0  0  0.018341  -0.033271  0  3.982729  0
C  C33  1  0.85840051  0.16701642  0.12014592  1  0  -0.000664  0  3.729703  0  0  -0.031523  0  3.99327  0  0  -0.029206  0  4.009822  0  0  0.018339  -0.0333  0  3.982758  0
C  C34  1  0.16701709  0.85840035  0.62014565  1  0  -0.000636  0  3.729704  0  0  -0.031489  0  3.993258  0  0  -0.029169  0  4.009808  0  0  0.018331  -0.033265  0  3.982746  0
C  C35  1  0.14159915  0.83298256  0.87985310  1  0  -0.000641  0  3.729638  0  0  -0.031489  0  3.993203  0  0  -0.029167  0  4.009752  0  0  0.018335  -0.033265  0  3.982693  0
C  C36  1  0.74031724  0.61015591  0.70563773  1  0  0.018885  0  3.686194  0  0  -0.015975  0  3.951139  0  0  -0.013482  0  3.968346  0  0  0.02257  -0.017367  0  3.939484  0
C  C37  1  0.38984286  0.25968317  0.79436116  1  0  0.018955  0  3.686071  0  0  -0.015911  0  3.951031  0  0  -0.013415  0  3.968226  0  0  0.022595  -0.017303  0  3.939374  0
C  C38  1  0.25968259  0.38984550  0.29436289  1  0  0.018893  0  3.686357  0  0  -0.015961  0  3.951294  0  0  -0.01347  0  3.968499  0  0  0.022606  -0.017355  0  3.939635  0
C  C39  1  0.61015471  0.74031581  0.20563781  1  0  0.01887  0  3.686216  0  0  -0.015993  0  3.951168  0  0  -0.013498  0  3.968373  0  0  0.022599  -0.017384  0  3.939511  0
C  C40  1  0.78357773  0.49289836  0.68488038  1  0  0.010578  0  3.707392  0  0  -0.020392  0  3.977555  0  0  -0.019592  0  3.994388  0  0  0.014688  -0.020921  0  3.965791  0
C  C41  1  0.50710000  0.21641952  0.81511891  1  0  0.010524  0  3.707458  0  0  -0.020445  0  3.977615  0  0  -0.019645  0  3.994453  0  0  0.014674  -0.020972  0  3.96585  0
C  C42  1  0.21642359  0.50710184  0.31512025  1  0  0.010589  0  3.707636  0  0  -0.020392  0  3.977801  0  0  -0.019587  0  3.994635  0  0  0.014689  -0.020918  0  3.966034  0
C  C43  1  0.49289801  0.78357825  0.18488080  1  0  0.010611  0  3.707417  0  0  -0.020357  0  3.977575  0  0  -0.019558  0  3.994411  0  0  0.014689  -0.020885  0  3.965809  0
C  C44  1  0.37643002  0.08531442  0.08997381  1  0  0.015411  0  3.699537  0  0  -0.01975  0  3.962453  0  0  -0.016983  0  3.979538  0  0  0.021386  -0.021264  0  3.950608  0
C  C45  1  0.91468638  0.62357059  0.41002548  1  0  0.015432  0  3.69955  0  0  -0.019727  0  3.962459  0  0  -0.016961  0  3.979542  0  0  0.021399  -0.021242  0  3.950621  0
C  C46  1  0.62357191  0.91468699  0.91002763  1  0  0.015482  0  3.699299  0  0  -0.019674  0  3.962209  0  0  -0.016906  0  3.97929  0  0  0.021438  -0.021187  0  3.95037  0
C  C47  1  0.08531450  0.37643081  0.58997441  1  0  0.015428  0  3.699455  0  0  -0.019734  0  3.96237  0  0  -0.016969  0  3.979456  0  0  0.021398  -0.021248  0  3.950531  0
C  C48  1  0.27541623  0.99648520  0.16579094  1  0  0.003802  0  3.706918  0  0  -0.02552  0  3.972702  0  0  -0.025201  0  3.989382  0  0  0.013715  -0.025612  0  3.961539  0
C  C49  1  0.00351535  0.72458424  0.33420851  1  0  0.003803  0  3.706968  0  0  -0.025526  0  3.972754  0  0  -0.025207  0  3.989433  0  0  0.013719  -0.025619  0  3.961591  0
C  C50  1  0.72458675  0.00351620  0.83420976  1  0  0.003788  0  3.706962  0  0  -0.02554  0  3.972745  0  0  -0.025221  0  3.989424  0  0  0.013678  -0.025633  0  3.961585  0
C  C51  1  0.99648597  0.27541595  0.66579135  1  0  0.003729  0  3.706927  0  0  -0.025601  0  3.97272  0  0  -0.025283  0  3.9894  0  0  0.013685  -0.025695  0  3.961559  0
N  N52  1  0.69046319  0.11248582  0.41686013  1  0  -0.308441  0  3.226682  0  0  -0.25393  0  3.507884  0  0  -0.263665  0  3.52523  0  0  -0.303783  -0.246711  0  3.49619  0
N  N53  1  0.88751532  0.30953681  0.08313943  1  0  -0.308458  0  3.226696  0  0  -0.253952  0  3.507899  0  0  -0.263694  0  3.525249  0  0  -0.303794  -0.246736  0  3.496208  0
N  N54  1  0.30953708  0.88751437  0.58313970  1  0  -0.308479  0  3.226694  0  0  -0.253972  0  3.507896  0  0  -0.263715  0  3.525246  0  0  -0.303811  -0.246757  0  3.496206  0
N  N55  1  0.11248539  0.69046217  0.91685962  1  0  -0.30843  0  3.226684  0  0  -0.253923  0  3.507889  0  0  -0.263663  0  3.52524  0  0  -0.303793  -0.246707  0  3.496199  0
N  N56  1  0.63769885  0.98058592  0.47044945  1  0  -0.23216  0  3.315685  0  0  -0.181076  0  3.594856  0  0  -0.188126  0  3.61443  0  0  -0.255965  -0.175634  0  3.581047  0
N  N57  1  0.01941407  0.36230024  0.02954932  1  0  -0.232187  0  3.315685  0  0  -0.181107  0  3.594857  0  0  -0.188151  0  3.614427  0  0  -0.25599  -0.175662  0  3.581047  0
N  N58  1  0.36230037  0.01941428  0.52954883  1  0  -0.232203  0  3.315711  0  0  -0.181116  0  3.594876  0  0  -0.188161  0  3.614449  0  0  -0.255986  -0.17567  0  3.581066  0
N  N59  1  0.98058664  0.63769874  0.97045050  1  0  -0.232169  0  3.315718  0  0  -0.181089  0  3.594897  0  0  -0.188138  0  3.614472  0  0  -0.255959  -0.175646  0  3.581087  0
N  N60  1  0.74042044  0.92365394  0.46973248  1  0  -0.322058  0  3.149854  0  0  -0.276358  0  3.427382  0  0  -0.284266  0  3.444021  0  0  -0.301156  -0.270641  0  3.416383  0
N  N61  1  0.07634738  0.25958036  0.03026686  1  0  -0.321985  0  3.149902  0  0  -0.276289  0  3.427422  0  0  -0.284193  0  3.444059  0  0  -0.30113  -0.270571  0  3.416424  0
N  N62  1  0.25957939  0.07634746  0.53026737  1  0  -0.32198  0  3.149947  0  0  -0.276275  0  3.427447  0  0  -0.28418  0  3.444085  0  0  -0.301121  -0.270557  0  3.416448  0
N  N63  1  0.92365289  0.74041983  0.96973221  1  0  -0.322078  0  3.14988  0  0  -0.276379  0  3.427406  0  0  -0.284286  0  3.444045  0  0  -0.301164  -0.270661  0  3.416407  0
N  N64  1  0.69443256  0.40384567  0.59924353  1  0  -0.321832  0  3.164969  0  0  -0.272526  0  3.43918  0  0  -0.281426  0  3.457539  0  0  -0.30521  -0.266377  0  3.426828  0
N  N65  1  0.59615356  0.30556799  0.90075511  1  0  -0.321834  0  3.164998  0  0  -0.272531  0  3.439208  0  0  -0.281434  0  3.457568  0  0  -0.305247  -0.266383  0  3.426856  0
N  N66  1  0.30556876  0.59615452  0.40075633  1  0  -0.321887  0  3.164915  0  0  -0.272583  0  3.439128  0  0  -0.281486  0  3.457488  0  0  -0.305256  -0.266435  0  3.426776  0
N  N67  1  0.40384671  0.69443221  0.09924396  1  0  -0.321868  0  3.165016  0  0  -0.272567  0  3.439228  0  0  -0.281467  0  3.457588  0  0  -0.30525  -0.266419  0  3.426876  0
N  N68  1  0.60128058  0.46466342  0.56936496  1  0  -0.233775  0  3.331208  0  0  -0.181033  0  3.605941  0  0  -0.188305  0  3.627168  0  0  -0.260805  -0.175546  0  3.591007  0
N  N69  1  0.53533583  0.39872037  0.93063549  1  0  -0.233734  0  3.33114  0  0  -0.180995  0  3.605877  0  0  -0.188267  0  3.627103  0  0  -0.260767  -0.175509  0  3.590942  0
N  N70  1  0.39872013  0.53533556  0.43063563  1  0  -0.233688  0  3.331073  0  0  -0.180945  0  3.605805  0  0  -0.188218  0  3.627029  0  0  -0.260758  -0.175461  0  3.590869  0
N  N71  1  0.46466340  0.60127982  0.06936509  1  0  -0.233743  0  3.331184  0  0  -0.181002  0  3.605915  0  0  -0.188275  0  3.627142  0  0  -0.260773  -0.175517  0  3.590982  0
N  N72  1  0.62665984  0.58996765  0.63190355  1  0  -0.316971  0  3.236028  0  0  -0.260375  0  3.518109  0  0  -0.27069  0  3.536378  0  0  -0.30795  -0.253001  0  3.505279  0
N  N73  1  0.41003056  0.37333965  0.86809777  1  0  -0.317  0  3.236028  0  0  -0.260391  0  3.518078  0  0  -0.270706  0  3.536359  0  0  -0.30794  -0.253017  0  3.505253  0
N  N74  1  0.37334043  0.41003254  0.36809552  1  0  -0.317011  0  3.236057  0  0  -0.260403  0  3.518096  0  0  -0.270709  0  3.536361  0  0  -0.307968  -0.253026  0  3.505267  0
N  N75  1  0.58996762  0.62666055  0.13190355  1  0  -0.316969  0  3.236048  0  0  -0.260367  0  3.518107  0  0  -0.270682  0  3.536377  0  0  -0.307957  -0.252995  0  3.505281  0
N  N76  1  0.35092237  0.07222222  0.25799035  1  0  -0.331358  0  3.149601  0  0  -0.281977  0  3.423675  0  0  -0.290175  0  3.439902  0  0  -0.298626  -0.276176  0  3.413205  0
N  N77  1  0.92777813  0.64907745  0.24200893  1  0  -0.33137  0  3.1496  0  0  -0.281989  0  3.423675  0  0  -0.290189  0  3.439905  0  0  -0.298635  -0.276188  0  3.413207  0
N  N78  1  0.64907790  0.92777798  0.74201102  1  0  -0.331338  0  3.149662  0  0  -0.281953  0  3.423726  0  0  -0.290154  0  3.43996  0  0  -0.298598  -0.276153  0  3.413261  0
N  N79  1  0.07222214  0.35092274  0.75799090  1  0  -0.331372  0  3.149621  0  0  -0.281991  0  3.423694  0  0  -0.290189  0  3.439921  0  0  -0.298626  -0.27619  0  3.413226  0
N  N80  1  0.49192591  0.20150212  0.23852100  1  0  -0.223001  0  3.308735  0  0  -0.172502  0  3.585556  0  0  -0.179284  0  3.605662  0  0  -0.256679  -0.167718  0  3.571987  0
N  N81  1  0.79849769  0.50807401  0.26147825  1  0  -0.223023  0  3.308772  0  0  -0.17253  0  3.585595  0  0  -0.179312  0  3.605702  0  0  -0.256692  -0.167746  0  3.572027  0
N  N82  1  0.50807497  0.79849928  0.76148042  1  0  -0.22298  0  3.308766  0  0  -0.172479  0  3.585572  0  0  -0.179261  0  3.605682  0  0  -0.256675  -0.167696  0  3.572008  0
N  N83  1  0.20150258  0.49192619  0.73852082  1  0  -0.223029  0  3.308762  0  0  -0.172541  0  3.585589  0  0  -0.179322  0  3.605696  0  0  -0.256726  -0.167757  0  3.572023  0
N  N84  1  0.51051476  0.21282655  0.13743864  1  0  -0.308373  0  3.214266  0  0  -0.250165  0  3.491748  0  0  -0.260252  0  3.509776  0  0  -0.302566  -0.24253  0  3.478777  0
N  N85  1  0.78717429  0.48948557  0.36256063  1  0  -0.308344  0  3.21424  0  0  -0.25013  0  3.491714  0  0  -0.260216  0  3.509745  0  0  -0.302551  -0.242495  0  3.478745  0
N  N86  1  0.48948656  0.78717365  0.86256199  1  0  -0.30846  0  3.214135  0  0  -0.250257  0  3.491632  0  0  -0.260344  0  3.509662  0  0  -0.302613  -0.242622  0  3.478667  0
N  N87  1  0.21282703  0.51051462  0.63743923  1  0  -0.308311  0  3.214241  0  0  -0.250094  0  3.491716  0  0  -0.260182  0  3.509746  0  0  -0.302523  -0.242459  0  3.478745  0
