# generated using pymatgen
data_UH10C11N2O9
_symmetry_space_group_name_H-M   'P 1'
_cell_length_a   6.50160958
_cell_length_b   11.01488352
_cell_length_c   10.85711133
_cell_angle_alpha   94.10191493
_cell_angle_beta   103.63318407
_cell_angle_gamma   106.17551541
_symmetry_Int_Tables_number   1
_chemical_formula_structural   UH10C11N2O9
_chemical_formula_sum   'U2 H20 C22 N4 O18'
_cell_volume   717.82373793
_cell_formula_units_Z   2
loop_
 _symmetry_equiv_pos_site_id
 _symmetry_equiv_pos_as_xyz
  1  'x, y, z'
loop_
 _atom_site_type_symbol
 _atom_site_label
 _atom_site_symmetry_multiplicity
 _atom_site_fract_x
 _atom_site_fract_y
 _atom_site_fract_z
 _atom_site_occupancy
 _atom_site_hle17_bader_spin_density
 _atom_site_hle17_ddec_charge
 _atom_site_hle17_ddec_spin_density
 _atom_site_hle17_ddec_sum_bond_order
 _atom_site_hle17_magmom
 _atom_site_hse06_10hf_bader_spin_density
 _atom_site_hse06_10hf_ddec_charge
 _atom_site_hse06_10hf_ddec_spin_density
 _atom_site_hse06_10hf_ddec_sum_bond_order
 _atom_site_hse06_10hf_magmom
 _atom_site_hse06_bader_spin_density
 _atom_site_hse06_ddec_charge
 _atom_site_hse06_ddec_spin_density
 _atom_site_hse06_ddec_sum_bond_order
 _atom_site_hse06_magmom
 _atom_site_pbe_bader_spin_density
 _atom_site_pbe_cm5_charge
 _atom_site_pbe_ddec_charge
 _atom_site_pbe_ddec_spin_density
 _atom_site_pbe_ddec_sum_bond_order
 _atom_site_pbe_magmom
U  U0  1  0.78919629  0.11678500  0.35940772  1  0  2.477898  0  4.159406  0  0  2.543538  0  4.816618  0  0  2.655942  0  4.775911  0  0  2.192944  2.464613  0  4.844727  0
U  U1  1  0.21084402  0.88321244  0.64062396  1  0  2.478197  0  4.159029  0  0  2.54389  0  4.816254  0  0  2.656218  0  4.775665  0  0  2.193047  2.464981  0  4.844362  0
H  H2  1  0.79928996  0.40965886  0.55860356  1  0  0.129277  0  0.936196  0  0  0.134219  0  1.004786  0  0  0.138894  0  1.000108  0  0  0.121305  0.130831  0  1.00817  0
H  H3  1  0.20072817  0.59033579  0.44141287  1  0  0.129188  0  0.936301  0  0  0.134231  0  1.004778  0  0  0.138908  0  1.000098  0  0  0.121321  0.130837  0  1.008165  0
H  H4  1  0.22538042  0.99206504  0.25865159  1  0  0.063603  0  0.927109  0  0  0.067881  0  0.997605  0  0  0.069452  0  0.992329  0  0  0.145678  0.066631  0  1.001569  0
H  H5  1  0.77463642  0.00793350  0.74134470  1  0  0.063586  0  0.927171  0  0  0.067865  0  0.997667  0  0  0.069433  0  0.992391  0  0  0.145696  0.06661  0  1.001631  0
H  H6  1  0.24598805  0.24839136  0.71367053  1  0  0.14029  0  0.947201  0  0  0.144508  0  1.012684  0  0  0.149104  0  1.007927  0  0  0.126802  0.141172  0  1.016212  0
H  H7  1  0.75403168  0.75160043  0.28634222  1  0  0.14031  0  0.947091  0  0  0.144469  0  1.012634  0  0  0.149068  0  1.007878  0  0  0.126753  0.141131  0  1.016159  0
H  H8  1  0.55285145  0.65701420  0.77147360  1  0  0.135966  0  0.944186  0  0  0.140549  0  1.011609  0  0  0.145019  0  1.006965  0  0  0.128991  0.137284  0  1.015161  0
H  H9  1  0.44714792  0.34298727  0.22851684  1  0  0.135973  0  0.944237  0  0  0.140566  0  1.011636  0  0  0.145031  0  1.006998  0  0  0.128987  0.137304  0  1.015195  0
H  H10  1  0.23693115  0.86843110  0.96990991  1  0  0.115233  0  0.946848  0  0  0.13169  0  1.013138  0  0  0.132576  0  1.012777  0  0  0.112547  0.131137  0  1.013373  0
H  H11  1  0.76304012  0.13157714  0.03006981  1  0  0.115187  0  0.947067  0  0  0.131602  0  1.013385  0  0  0.132488  0  1.013022  0  0  0.112509  0.131052  0  1.013626  0
H  H12  1  0.36711425  0.88602722  0.13770071  1  0  0.111396  0  0.967967  0  0  0.127383  0  1.037574  0  0  0.128485  0  1.037386  0  0  0.114093  0.126494  0  1.037876  0
H  H13  1  0.63288755  0.11398193  0.86228144  1  0  0.11164  0  0.968077  0  0  0.127521  0  1.037742  0  0  0.128625  0  1.037554  0  0  0.114225  0.126636  0  1.038038  0
H  H14  1  0.17981905  0.73512827  0.05418370  1  0  0.117714  0  0.932932  0  0  0.134667  0  0.997086  0  0  0.136147  0  0.995665  0  0  0.106743  0.133649  0  0.998114  0
H  H15  1  0.82018128  0.26487513  0.94579965  1  0  0.117608  0  0.932956  0  0  0.134549  0  0.997133  0  0  0.136024  0  0.995724  0  0  0.106706  0.133555  0  0.99814  0
H  H16  1  0.83032492  0.81270715  0.90397741  1  0  0.115844  0  0.964565  0  0  0.135902  0  1.02679  0  0  0.136934  0  1.026358  0  0  0.111735  0.135114  0  1.027117  0
H  H17  1  0.16966169  0.18730579  0.09602044  1  0  0.115821  0  0.964531  0  0  0.135901  0  1.02673  0  0  0.136932  0  1.0263  0  0  0.111765  0.135113  0  1.02706  0
H  H18  1  0.73447024  0.72132091  0.01975356  1  0  0.099399  0  0.942474  0  0  0.117006  0  1.010059  0  0  0.116597  0  1.011159  0  0  0.101634  0.117287  0  1.009346  0
H  H19  1  0.26552232  0.27868245  0.98024437  1  0  0.099407  0  0.942407  0  0  0.117041  0  1.009968  0  0  0.116633  0  1.011068  0  0  0.101656  0.117326  0  1.009251  0
H  H20  1  0.70333382  0.87664738  0.01193441  1  0  0.122993  0  0.936913  0  0  0.146159  0  0.989653  0  0  0.147253  0  0.989272  0  0  0.117211  0.145284  0  0.990089  0
H  H21  1  0.29666139  0.12336073  0.98807438  1  0  0.12296  0  0.936841  0  0  0.146146  0  0.989593  0  0  0.14724  0  0.989213  0  0  0.117194  0.145267  0  0.990028  0
C  C22  1  0.50561397  0.18440780  0.57439760  1  0  0.743877  0  3.789456  0  0  0.713809  0  4.066735  0  0  0.756341  0  4.050925  0  0  0.271337  0.68443  0  4.076801  0
C  C23  1  0.49438966  0.81558984  0.42559128  1  0  0.74399  0  3.789367  0  0  0.714001  0  4.066465  0  0  0.756576  0  4.050562  0  0  0.271405  0.684602  0  4.076558  0
C  C24  1  0.52075370  0.31548962  0.63056125  1  0  -0.061688  0  3.705542  0  0  -0.036525  0  3.934528  0  0  -0.049652  0  3.957232  0  0  0.00247  -0.028203  0  3.919446  0
C  C25  1  0.47924050  0.68450802  0.36943278  1  0  -0.061771  0  3.705487  0  0  -0.036575  0  3.934336  0  0  -0.04971  0  3.957027  0  0  0.002428  -0.028248  0  3.91925  0
C  C26  1  0.68357042  0.42181002  0.61311014  1  0  -0.017393  0  3.619547  0  0  -0.061783  0  3.872141  0  0  -0.054839  0  3.888233  0  0  -0.048875  -0.065937  0  3.861498  0
C  C27  1  0.31643072  0.57818567  0.38689114  1  0  -0.017238  0  3.619539  0  0  -0.061768  0  3.872113  0  0  -0.05483  0  3.888208  0  0  -0.048893  -0.065917  0  3.861455  0
C  C28  1  0.05490123  0.95075175  0.19747459  1  0  0.422247  0  3.729136  0  0  0.360267  0  4.010985  0  0  0.391975  0  4.008364  0  0  0.20321  0.338887  0  4.011887  0
C  C29  1  0.94510824  0.04924776  0.80252353  1  0  0.422394  0  3.72921  0  0  0.360431  0  4.011035  0  0  0.392144  0  4.008403  0  0  0.203239  0.339065  0  4.011924  0
C  C30  1  0.88229116  0.65802516  0.65946047  1  0  0.633836  0  3.892327  0  0  0.593859  0  4.193048  0  0  0.630532  0  4.187953  0  0  0.205711  0.568948  0  4.195409  0
C  C31  1  0.11767606  0.34198112  0.34053420  1  0  0.633322  0  3.892671  0  0  0.593371  0  4.193382  0  0  0.630039  0  4.188314  0  0  0.20548  0.568472  0  4.195723  0
C  C32  1  0.37184770  0.33097407  0.70007335  1  0  -0.051748  0  3.625867  0  0  -0.090425  0  3.8758  0  0  -0.08366  0  3.889514  0  0  -0.047283  -0.094112  0  3.865522  0
C  C33  1  0.62815616  0.66901778  0.29993077  1  0  -0.051867  0  3.625679  0  0  -0.090487  0  3.875445  0  0  -0.083733  0  3.889168  0  0  -0.047218  -0.094162  0  3.865165  0
C  C34  1  0.70021047  0.54433304  0.66755804  1  0  -0.055882  0  3.733542  0  0  -0.027569  0  3.965856  0  0  -0.039358  0  3.988587  0  0  -0.006296  -0.020252  0  3.951052  0
C  C35  1  0.29979599  0.45566357  0.33245233  1  0  -0.055628  0  3.733366  0  0  -0.027301  0  3.965687  0  0  -0.039082  0  3.988412  0  0  -0.006215  -0.019983  0  3.950878  0
C  C36  1  0.54756064  0.56176861  0.73353365  1  0  -0.055299  0  3.631975  0  0  -0.096563  0  3.885304  0  0  -0.089952  0  3.898998  0  0  -0.048569  -0.100623  0  3.875705  0
C  C37  1  0.45242680  0.43822519  0.26646284  1  0  -0.055622  0  3.632098  0  0  -0.096974  0  3.885458  0  0  -0.090358  0  3.899141  0  0  -0.048681  -0.101022  0  3.875852  0
C  C38  1  0.38651418  0.45463994  0.74836488  1  0  0.070889  0  3.701759  0  0  0.05783  0  3.957647  0  0  0.056749  0  3.98263  0  0  0.081994  0.061707  0  3.942609  0
C  C39  1  0.61347329  0.54535100  0.25162862  1  0  0.071331  0  3.701725  0  0  0.058302  0  3.957365  0  0  0.057235  0  3.982346  0  0  0.082148  0.062159  0  3.94236  0
C  C40  1  0.21497922  0.83921736  0.06172099  1  0  -0.185143  0  3.606536  0  0  -0.283542  0  3.850775  0  0  -0.280706  0  3.86196  0  0  -0.129544  -0.285235  0  3.842942  0
C  C41  1  0.78500848  0.16078606  0.93826246  1  0  -0.185128  0  3.606897  0  0  -0.283428  0  3.85129  0  0  -0.280587  0  3.862464  0  0  -0.129595  -0.285147  0  3.843453  0
C  C42  1  0.81092960  0.81821143  0.00154706  1  0  -0.179421  0  3.614424  0  0  -0.279732  0  3.857915  0  0  -0.275732  0  3.867811  0  0  -0.134748  -0.282146  0  3.851038  0
C  C43  1  0.18907028  0.18179670  0.99845409  1  0  -0.179338  0  3.614092  0  0  -0.279703  0  3.857611  0  0  -0.275701  0  3.867498  0  0  -0.134813  -0.282115  0  3.850729  0
N  N44  1  0.02980114  0.87470134  0.09121522  1  0  -0.053867  0  3.484682  0  0  0.044678  0  3.717707  0  0  0.023477  0  3.744325  0  0  -0.26254  0.059156  0  3.698998  0
N  N45  1  0.97019137  0.12530204  0.90877626  1  0  -0.054061  0  3.484597  0  0  0.044505  0  3.717594  0  0  0.023305  0  3.744205  0  0  -0.262484  0.058977  0  3.698895  0
N  N46  1  0.22884176  0.47304225  0.81968594  1  0  0.466924  0  3.948368  0  0  0.526349  0  4.205408  0  0  0.52974  0  4.241651  0  0  0.059737  0.51183  0  4.200374  0
N  N47  1  0.77113786  0.52694584  0.18030718  1  0  0.46663  0  3.948702  0  0  0.526296  0  4.205379  0  0  0.529646  0  4.241627  0  0  0.059663  0.511769  0  4.200369  0
O  O48  1  0.43778438  0.09053498  0.63105624  1  0  -0.66802  0  2.082447  0  0  -0.654101  0  2.356964  0  0  -0.688741  0  2.346685  0  0  -0.352058  -0.628878  0  2.36259  0
O  O49  1  0.56218772  0.90945698  0.36892694  1  0  -0.668035  0  2.082604  0  0  -0.654168  0  2.357104  0  0  -0.688828  0  2.346783  0  0  -0.3521  -0.628932  0  2.362728  0
O  O50  1  0.89249673  0.97585205  0.22709551  1  0  -0.595307  0  2.153823  0  0  -0.578967  0  2.44134  0  0  -0.61124  0  2.435449  0  0  -0.365128  -0.555493  0  2.443842  0
O  O51  1  0.10751992  0.02416084  0.77290647  1  0  -0.595441  0  2.15391  0  0  -0.579119  0  2.441444  0  0  -0.611377  0  2.435544  0  0  -0.365201  -0.555649  0  2.44393  0
O  O52  1  0.03496154  0.64747012  0.60743759  1  0  -0.623815  0  1.931141  0  0  -0.609427  0  2.184273  0  0  -0.641997  0  2.180819  0  0  -0.34122  -0.586151  0  2.18554  0
O  O53  1  0.96502948  0.35253608  0.39257048  1  0  -0.623542  0  1.931302  0  0  -0.609183  0  2.184467  0  0  -0.641764  0  2.181025  0  0  -0.341063  -0.585917  0  2.185733  0
O  O54  1  0.59263269  0.12549577  0.21340886  1  0  -0.718279  0  1.553291  0  0  -0.724948  0  1.84541  0  0  -0.746248  0  1.830912  0  0  -0.759236  -0.711974  0  1.855922  0
O  O55  1  0.40738314  0.87448830  0.78662670  1  0  -0.718308  0  1.553083  0  0  -0.725035  0  1.845283  0  0  -0.746326  0  1.830818  0  0  -0.759305  -0.712075  0  1.8558  0
O  O56  1  0.88656496  0.76857510  0.70773076  1  0  -0.63277  0  2.012731  0  0  -0.614294  0  2.269621  0  0  -0.647263  0  2.267027  0  0  -0.347041  -0.590852  0  2.270304  0
O  O57  1  0.11342729  0.23142438  0.29228525  1  0  -0.632563  0  2.01266  0  0  -0.61408  0  2.269495  0  0  -0.647062  0  2.266906  0  0  -0.347016  -0.590641  0  2.270176  0
O  O58  1  0.56406382  0.17498934  0.47098142  1  0  -0.66604  0  2.088578  0  0  -0.653769  0  2.364751  0  0  -0.690568  0  2.355502  0  0  -0.372549  -0.627017  0  2.369696  0
O  O59  1  0.43595565  0.82501111  0.52901815  1  0  -0.666117  0  2.088363  0  0  -0.653864  0  2.36446  0  0  -0.690661  0  2.355188  0  0  -0.372498  -0.627103  0  2.369404  0
O  O60  1  0.97805946  0.12115087  0.51209725  1  0  -0.71141  0  1.632858  0  0  -0.725268  0  1.938074  0  0  -0.749006  0  1.927804  0  0  -0.750825  -0.710778  0  1.945627  0
O  O61  1  0.02202231  0.87888004  0.48792246  1  0  -0.711652  0  1.632735  0  0  -0.725523  0  1.937934  0  0  -0.749285  0  1.927751  0  0  -0.750913  -0.711039  0  1.945479  0
O  O62  1  0.05784557  0.38240317  0.80760871  1  0  -0.351178  0  1.792118  0  0  -0.346268  0  1.99291  0  0  -0.353467  0  1.99915  0  0  -0.118869  -0.337458  0  1.995093  0
O  O63  1  0.94212068  0.61758977  0.19237005  1  0  -0.351233  0  1.792427  0  0  -0.346404  0  1.993095  0  0  -0.353586  0  1.99934  0  0  -0.11897  -0.337588  0  1.995277  0
O  O64  1  0.27581657  0.57711109  0.88848263  1  0  -0.340119  0  1.741013  0  0  -0.337097  0  1.928496  0  0  -0.34273  0  1.933449  0  0  -0.11934  -0.329336  0  1.931618  0
O  O65  1  0.72417006  0.42287217  0.11152121  1  0  -0.340005  0  1.74085  0  0  -0.337092  0  1.92824  0  0  -0.342715  0  1.933206  0  0  -0.11928  -0.329326  0  1.931369  0
