# generated using pymatgen
data_AlH12C33(BrO2)3
_symmetry_space_group_name_H-M   'P 1'
_cell_length_a   3.99486280
_cell_length_b   20.43657404
_cell_length_c   20.47746302
_cell_angle_alpha   60.07641450
_cell_angle_beta   86.27588877
_cell_angle_gamma   86.08839346
_symmetry_Int_Tables_number   1
_chemical_formula_structural   AlH12C33(BrO2)3
_chemical_formula_sum   'Al1 H12 C33 Br3 O6'
_cell_volume   1444.64077244
_cell_formula_units_Z   1
loop_
 _symmetry_equiv_pos_site_id
 _symmetry_equiv_pos_as_xyz
  1  'x, y, z'
loop_
 _atom_site_type_symbol
 _atom_site_label
 _atom_site_symmetry_multiplicity
 _atom_site_fract_x
 _atom_site_fract_y
 _atom_site_fract_z
 _atom_site_occupancy
 _atom_site_pbe_bader_charge
 _atom_site_pbe_bader_spin_density
 _atom_site_pbe_cm5_charge
 _atom_site_pbe_ddec_charge
 _atom_site_pbe_ddec_spin_density
 _atom_site_pbe_ddec_sum_bond_order
 _atom_site_pbe_magmom
Al  Al0  1  0.03702408  0.49951122  0.49986490  1  2.505978  0  0.427778  1.596463  0  2.573669  0
H  H1  1  0.83915998  0.30915119  0.70625620  1  0.090561  0  0.110342  0.1152  0  0.986754  0
H  H2  1  0.81673009  0.23632226  0.84708739  1  0.090717  0  0.10674  0.112197  0  0.988698  0
H  H3  1  0.23260127  0.70953525  0.30743229  1  0.086987  0  0.11046  0.115307  0  0.986771  0
H  H4  1  0.22719550  0.85069601  0.23616370  1  0.085882  0  0.106485  0.111554  0  0.989029  0
H  H5  1  0.28141894  0.30982753  0.48453381  1  0.073921  0  0.110452  0.115822  0  0.9859  0
H  H6  1  0.29405939  0.23827786  0.41489203  1  0.079331  0  0.106063  0.110758  0  0.989318  0
H  H7  1  0.77273147  0.70675094  0.48369193  1  0.087027  0  0.110182  0.115257  0  0.987162  0
H  H8  1  0.74591609  0.84794074  0.41592643  1  0.074314  0  0.106471  0.111686  0  0.988927  0
H  H9  1  0.17591699  0.48209102  0.70965830  1  0.096694  0  0.110151  0.114713  0  0.986609  0
H  H10  1  0.17219322  0.41286673  0.85049765  1  0.075519  0  0.106251  0.11117  0  0.988243  0
H  H11  1  0.88752515  0.47906132  0.30743115  1  0.103389  0  0.109931  0.114297  0  0.987588  0
H  H12  1  0.88098550  0.41111698  0.23438125  1  0.101062  0  0.106314  0.111239  0  0.989337  0
C  C13  1  0.51948160  0.44209151  0.61590514  1  1.600442  0  0.272935  0.648428  0  4.066767  0
C  C14  1  0.57261820  0.44061002  0.44219934  1  1.560915  0  0.273566  0.64845  0  4.068763  0
C  C15  1  0.51687098  0.61582384  0.44118278  1  1.599553  0  0.273197  0.648398  0  4.068045  0
C  C16  1  0.68899430  0.33053236  0.73847496  1  0.025615  0  -0.076802  -0.08142  0  3.983156  0
C  C17  1  0.67755051  0.29021487  0.81669403  1  -0.066515  0  -0.081083  -0.129102  0  3.950366  0
C  C18  1  0.34916064  0.74038079  0.32999560  1  -0.019963  0  -0.07693  -0.083844  0  3.98363  0
C  C19  1  0.34505464  0.81879220  0.29051778  1  -0.013359  0  -0.08069  -0.126075  0  3.946095  0
C  C20  1  0.41737048  0.33063783  0.43045376  1  0.051721  0  -0.078054  -0.084251  0  3.983962  0
C  C21  1  0.42370105  0.29098289  0.39169908  1  -0.02761  0  -0.080316  -0.12568  0  3.947883  0
C  C22  1  0.64862768  0.73888593  0.43017379  1  -0.112425  0  -0.077179  -0.08313  0  3.982807  0
C  C23  1  0.63477161  0.81727539  0.39243673  1  0.014795  0  -0.080137  -0.126587  0  3.947614  0
C  C24  1  0.31984142  0.42893760  0.74035398  1  0.069513  0  -0.077085  -0.083378  0  3.984183  0
C  C25  1  0.31697138  0.39035393  0.81859464  1  -0.043905  0  -0.080835  -0.126421  0  3.946016  0
C  C26  1  0.75373906  0.42701528  0.32974590  1  -0.05104  0  -0.076912  -0.082704  0  3.98384  0
C  C27  1  0.75120678  0.38912075  0.28930009  1  -0.050066  0  -0.080116  -0.125942  0  3.946588  0
C  C28  1  0.50857068  0.39983578  0.69966950  1  -0.061811  0  -0.010479  -0.044378  0  3.964753  0
C  C29  1  0.49426905  0.32007494  0.85794600  1  -0.016054  0  0.005216  0.138042  0  4.101177  0
C  C30  1  0.49114435  0.28028652  0.93761125  1  -0.419781  0  -0.029369  -0.073354  0  4.064937  0
C  C31  1  0.49280176  0.24603395  0.00629349  1  0.205091  0  -0.056953  -0.095816  0  4.166279  0
C  C32  1  0.50008135  0.20678351  0.08565562  1  0.17397  0  -0.015173  0.039155  0  4.134245  0
C  C33  1  0.50409619  0.69979392  0.39964847  1  -0.032567  0  -0.009845  -0.042984  0  3.960559  0
C  C34  1  0.48614027  0.85841293  0.32147539  1  0.180392  0  0.005289  0.137886  0  4.103962  0
C  C35  1  0.48297170  0.93818134  0.28172525  1  -0.277558  0  -0.029689  -0.073902  0  4.067928  0
C  C36  1  0.48609493  0.00698937  0.24747319  1  -0.08027  0  -0.056827  -0.096071  0  4.171987  0
C  C37  1  0.49621245  0.08635494  0.20722924  1  0.182832  0  -0.015319  0.039769  0  4.137942  0
C  C38  1  0.58354666  0.39868110  0.40009785  1  -0.038211  0  -0.009278  -0.042634  0  3.962293  0
C  C39  1  0.58702167  0.32029023  0.31989283  1  0.094692  0  0.004924  0.137134  0  4.104199  0
C  C40  1  0.57982886  0.28142469  0.27912447  1  -0.179372  0  -0.030103  -0.074506  0  4.066735  0
C  C41  1  0.56410633  0.24748495  0.24456854  1  -0.119141  0  -0.055645  -0.094455  0  4.166416  0
C  C42  1  0.54021513  0.20751903  0.20556692  1  0.078761  0  -0.015298  0.039552  0  4.135255  0
C  C43  1  0.48137089  0.12731290  0.12774824  1  -0.150018  0  -0.000808  0.045849  0  3.842299  0
C  C44  1  0.52530162  0.12791323  0.24470373  1  0.037069  0  -0.000493  0.047372  0  3.838512  0
C  C45  1  0.52898634  0.24543982  0.12606260  1  -0.085564  0  -0.000456  0.04746  0  3.839113  0
Br  Br46  1  0.54831977  0.07526360  0.35069597  1  -0.008717  0  0.051939  -0.028612  0  1.522094  0
Br  Br47  1  0.55571208  0.35148313  0.07188749  1  -0.009058  0  0.051065  -0.029384  0  1.521717  0
Br  Br48  1  0.43348474  0.07396617  0.07592511  1  -0.009951  0  0.051268  -0.028675  0  1.522294  0
O  O49  1  0.29773038  0.58244007  0.42685877  1  -1.253971  0  -0.238879  -0.59688  0  2.357015  0
O  O50  1  0.27882510  0.48983908  0.58280504  1  -1.257277  0  -0.23906  -0.595939  0  2.356213  0
O  O51  1  0.33128334  0.42697076  0.49087852  1  -1.258364  0  -0.241463  -0.604415  0  2.380722  0
O  O52  1  0.74731000  0.58237546  0.48890341  1  -1.264439  0  -0.238514  -0.600059  0  2.372323  0
O  O53  1  0.80120270  0.48728420  0.42744315  1  -1.25942  0  -0.237685  -0.593114  0  2.353374  0
O  O54  1  0.77055298  0.42770081  0.58242251  1  -1.260316  0  -0.239545  -0.599444  0  2.372789  0
