# generated using pymatgen
data_CuH4C3N7
_symmetry_space_group_name_H-M   'P 1'
_cell_length_a   5.86913431
_cell_length_b   7.50141923
_cell_length_c   8.07004759
_cell_angle_alpha   77.43088486
_cell_angle_beta   78.46941074
_cell_angle_gamma   82.52713186
_symmetry_Int_Tables_number   1
_chemical_formula_structural   CuH4C3N7
_chemical_formula_sum   'Cu2 H8 C6 N14'
_cell_volume   338.39031288
_cell_formula_units_Z   2
loop_
 _symmetry_equiv_pos_site_id
 _symmetry_equiv_pos_as_xyz
  1  'x, y, z'
loop_
 _atom_site_type_symbol
 _atom_site_label
 _atom_site_symmetry_multiplicity
 _atom_site_fract_x
 _atom_site_fract_y
 _atom_site_fract_z
 _atom_site_occupancy
 _atom_site_hle17_ddec_charge
 _atom_site_hle17_ddec_spin_density
 _atom_site_hle17_ddec_sum_bond_order
 _atom_site_hle17_magmom
 _atom_site_hse06_10hf_ddec_charge
 _atom_site_hse06_10hf_ddec_spin_density
 _atom_site_hse06_10hf_ddec_sum_bond_order
 _atom_site_hse06_10hf_magmom
 _atom_site_hse06_ddec_charge
 _atom_site_hse06_ddec_spin_density
 _atom_site_hse06_ddec_sum_bond_order
 _atom_site_hse06_magmom
 _atom_site_pbe_cm5_charge
 _atom_site_pbe_ddec_charge
 _atom_site_pbe_ddec_spin_density
 _atom_site_pbe_ddec_sum_bond_order
 _atom_site_pbe_magmom
Cu  Cu0  1  0.23622692  0.46572605  0.08612911  1  0.751345  0.481164  1.991689  0.323  0.770089  0.684682  2.406899  0.521  0.868935  0.809501  2.331774  0.637  0.751898  0.718214  0.564635  2.452223  0.424
Cu  Cu1  1  0.76376462  0.53426650  0.91386147  1  0.751208  -0.481074  1.991763  -0.323  0.770178  -0.684673  2.406896  -0.521  0.868924  -0.809491  2.331797  -0.637  0.751919  0.718241  -0.56468  2.452204  -0.424
H  H2  1  0.35930971  0.15048037  0.35286100  1  0.137802  -0.000449  0.957872  -0.001  0.15474  -0.000274  1.029198  0.0  0.15624  -0.000326  1.028186  0.0  0.102545  0.153206  -0.000208  1.030535  0.0
H  H3  1  0.64071485  0.84953236  0.64713783  1  0.137748  0.000451  0.957936  0.001  0.154673  0.000274  1.02927  0.0  0.156167  0.000326  1.028266  0.0  0.102518  0.153142  0.000208  1.030588  0.0
H  H4  1  0.46401945  0.17698657  0.53718561  1  0.131962  -3.9e-05  0.979411  0.0  0.151261  -6.8e-05  1.040478  0.0  0.153861  -6.4e-05  1.039386  0.0  0.096941  0.14946  -6.4e-05  1.041069  0.0
H  H5  1  0.53598310  0.82303733  0.46281314  1  0.131925  4e-05  0.979286  0.0  0.151217  6.8e-05  1.040388  0.0  0.153813  6.4e-05  1.039294  0.0  0.096954  0.149409  6.5e-05  1.040985  0.0
H  H6  1  0.53958451  0.32792478  0.33364723  1  0.122011  -0.000508  0.956293  0.0  0.137414  -0.000289  1.028652  0.0  0.137943  -0.000328  1.030069  0.0  0.093653  0.136663  -0.000236  1.028212  0.0
H  H7  1  0.46040688  0.67209228  0.66637442  1  0.121954  0.000501  0.955827  0.0  0.137303  0.000289  1.028322  0.0  0.137837  0.000329  1.029733  0.0  0.093581  0.136554  0.000236  1.027866  0.0
H  H8  1  0.83943369  0.69059754  0.25859266  1  0.10493  0.000508  0.966665  0.001  0.108244  0.000456  1.039638  0.001  0.111026  0.000408  1.037965  0.0  0.123074  0.105962  0.000437  1.0414  0.0
H  H9  1  0.16057028  0.30941263  0.74141108  1  0.104978  -0.000509  0.966628  -0.001  0.108309  -0.000455  1.039565  -0.001  0.111095  -0.000408  1.03789  0.0  0.123053  0.106022  -0.000437  1.041316  0.0
C  C10  1  0.40006337  0.25138118  0.42057623  1  -0.397244  0.000331  3.721295  0.001  -0.485238  4.3e-05  3.959746  0.001  -0.489  -9.6e-05  3.967459  0.001  -0.246425  -0.482308  0.000143  3.955105  0.001
C  C11  1  0.59998307  0.74863956  0.57942260  1  -0.397072  -0.000327  3.721175  -0.001  -0.48506  -4.6e-05  3.959661  -0.001  -0.488815  9.3e-05  3.967369  -0.001  -0.246328  -0.482131  -0.000143  3.954994  -0.001
C  C12  1  0.19121965  0.37945259  0.46257957  1  0.283154  -0.010723  3.679278  -0.011  0.296471  -0.003499  3.917214  -0.005  0.302556  -0.004556  3.936871  -0.006  0.132067  0.292231  -0.002495  3.904816  -0.003
C  C13  1  0.80878518  0.62055068  0.53743533  1  0.283096  0.010733  3.679871  0.011  0.296559  0.003503  3.917591  0.005  0.302659  0.004559  3.937217  0.006  0.132191  0.292313  0.002499  3.905198  0.003
C  C14  1  0.90777914  0.60441651  0.36798894  1  0.046682  -0.012439  3.614113  -0.012  0.016105  -0.004914  3.860641  -0.006  0.021269  -0.005878  3.875779  -0.007  0.058018  0.012442  -0.00382  3.852001  -0.005
C  C15  1  0.09222673  0.39559094  0.63200763  1  0.046509  0.012426  3.614364  0.012  0.015956  0.00491  3.860986  0.006  0.021109  0.005874  3.876121  0.007  0.05804  0.012312  0.003816  3.852302  0.005
N  N16  1  0.01051278  0.30677188  0.05476350  1  -0.544246  0.0943  2.801353  0.107  -0.60079  0.050271  3.183757  0.062  -0.656436  0.034533  3.198466  0.046  -0.345666  -0.571171  0.052632  3.17815  0.062
N  N17  1  0.98947857  0.69322339  0.94523153  1  -0.543678  -0.09416  2.801816  -0.107  -0.60021  -0.050221  3.184147  -0.062  -0.655834  -0.034483  3.198865  -0.046  -0.345441  -0.570606  -0.052581  3.178519  -0.062
N  N18  1  0.95445989  0.17052218  0.16029076  1  0.386356  -0.036088  4.147159  -0.051  0.439678  -0.006477  4.458654  -0.015  0.460743  -0.009624  4.496706  -0.018  0.091405  0.427042  -0.002619  4.435273  -0.01
N  N19  1  0.04551982  0.82945258  0.83972255  1  0.38591  0.036126  4.147274  0.051  0.439276  0.006497  4.458761  0.015  0.460337  0.009647  4.496843  0.018  0.091185  0.426641  0.002628  4.435354  0.01
N  N20  1  0.89619469  0.03958482  0.25873705  1  -0.285459  0.131288  2.34772  0.137  -0.307445  0.067105  2.576077  0.075  -0.320134  0.057821  2.591139  0.068  -0.146675  -0.30072  0.066096  2.566924  0.071
N  N21  1  0.10379220  0.96042008  0.74125674  1  -0.285477  -0.131558  2.346975  -0.138  -0.307517  -0.067188  2.57531  -0.075  -0.320223  -0.057902  2.590389  -0.068  -0.146758  -0.300779  -0.066163  2.566141  -0.072
N  N22  1  0.48497226  0.63546008  0.07206831  1  -0.560012  0.000342  2.934436  0.0  -0.594386  0.007256  3.322868  0.009  -0.650814  0.005958  3.334822  0.007  -0.363574  -0.56176  0.00723  3.315711  0.008
N  N23  1  0.51503321  0.36451589  0.92792840  1  -0.560232  -0.000363  2.933945  0.0  -0.594572  -0.007263  3.322296  -0.009  -0.651064  -0.005964  3.334352  -0.007  -0.363627  -0.561955  -0.007218  3.315174  -0.008
N  N24  1  0.45347470  0.77488913  0.13052594  1  0.395405  -0.000811  4.135592  -0.001  0.443346  -0.000898  4.432155  -0.002  0.464901  -0.001982  4.466311  -0.004  0.101277  0.430398  2e-05  4.406903  -0.001
N  N25  1  0.54652600  0.22508142  0.86946639  1  0.395706  0.000825  4.135511  0.001  0.443648  0.000898  4.432068  0.002  0.465203  0.001983  4.466212  0.004  0.101489  0.430691  -3.3e-05  4.406816  0.001
N  N26  1  0.42272354  0.90668816  0.18785640  1  -0.27508  0.00551  2.402142  0.005  -0.282815  0.011926  2.630029  0.013  -0.289977  0.011577  2.640793  0.013  -0.120908  -0.275551  0.011395  2.620662  0.012
N  N27  1  0.57726063  0.09329210  0.81214272  1  -0.275172  -0.005509  2.402678  -0.005  -0.282888  -0.011922  2.630554  -0.013  -0.290044  -0.011575  2.641315  -0.013  -0.121014  -0.275635  -0.011351  2.6212  -0.012
N  N28  1  0.09371890  0.48622811  0.33222671  1  -0.297467  0.051518  3.303214  0.061  -0.246705  0.045882  3.575564  0.06  -0.271082  0.041593  3.593897  0.057  -0.327588  -0.234102  0.043631  3.565982  0.055
N  N29  1  0.90626099  0.51379466  0.66776583  1  -0.29754  -0.051505  3.303792  -0.061  -0.246842  -0.045875  3.576117  -0.06  -0.271194  -0.041589  3.594412  -0.057  -0.327804  -0.234224  -0.043623  3.566485  -0.055
