# generated using pymatgen
data_HgH4C4(BrN)2
_symmetry_space_group_name_H-M   'P 1'
_cell_length_a   7.37316835
_cell_length_b   7.64344793
_cell_length_c   8.38502750
_cell_angle_alpha   115.29496764
_cell_angle_beta   114.17577316
_cell_angle_gamma   93.81640124
_symmetry_Int_Tables_number   1
_chemical_formula_structural   HgH4C4(BrN)2
_chemical_formula_sum   'Hg2 H8 C8 Br4 N4'
_cell_volume   372.68249311
_cell_formula_units_Z   2
loop_
 _symmetry_equiv_pos_site_id
 _symmetry_equiv_pos_as_xyz
  1  'x, y, z'
loop_
 _atom_site_type_symbol
 _atom_site_label
 _atom_site_symmetry_multiplicity
 _atom_site_fract_x
 _atom_site_fract_y
 _atom_site_fract_z
 _atom_site_occupancy
 _atom_site_pbe_bader_spin_density
 _atom_site_pbe_cm5_charge
 _atom_site_pbe_ddec_charge
 _atom_site_pbe_ddec_spin_density
 _atom_site_pbe_ddec_sum_bond_order
 _atom_site_pbe_magmom
Hg  Hg0  1  0.50000129  0.99999715  0.99999549  1  0  0.433731  0.439512  0  2.631981  0
Hg  Hg1  1  0.00000343  0.00000149  0.00000177  1  0  0.434079  0.439549  0  2.634596  0
H  H2  1  0.32619330  0.70550383  0.50897807  1  0  0.105527  0.091793  0  1.033043  0
H  H3  1  0.31738967  0.19673685  0.49059515  1  0  0.105585  0.091934  0  1.034343  0
H  H4  1  0.67380723  0.29448074  0.49101954  1  0  0.10553  0.091771  0  1.033054  0
H  H5  1  0.68262019  0.80326875  0.50940660  1  0  0.105594  0.09192  0  1.034485  0
H  H6  1  0.00158554  0.55723086  0.16888015  1  0  0.095371  0.113489  0  1.036229  0
H  H7  1  0.33334129  0.38801256  0.83081708  1  0  0.095556  0.113673  0  1.036066  0
H  H8  1  0.99841333  0.44277780  0.83111653  1  0  0.095324  0.11344  0  1.03628  0
H  H9  1  0.66664606  0.61199760  0.16917017  1  0  0.095551  0.113698  0  1.035917  0
C  C10  1  0.17522830  0.72088796  0.49508833  1  0  0.052305  0.062253  0  3.905667  0
C  C11  1  0.18044154  0.22612598  0.50463074  1  0  0.051821  0.061594  0  3.907335  0
C  C12  1  0.82476984  0.27910860  0.50490468  1  0  0.052281  0.06231  0  3.905783  0
C  C13  1  0.81955172  0.77387375  0.49536773  1  0  0.051831  0.061647  0  3.907226  0
C  C14  1  0.99560536  0.63983064  0.30834325  1  0  -0.062664  -0.057241  0  3.903589  0
C  C15  1  0.18784458  0.33168138  0.69152109  1  0  -0.062327  -0.056853  0  3.903207  0
C  C16  1  0.00438457  0.36018268  0.69165446  1  0  -0.062573  -0.057163  0  3.903417  0
C  C17  1  0.81215216  0.66831989  0.30848156  1  0  -0.06227  -0.056845  0  3.90321  0
Br  Br18  1  0.32702457  0.32536071  0.15591610  1  0  -0.225612  -0.356909  0  1.418599  0
Br  Br19  1  0.67111003  0.16906229  0.84399528  1  0  -0.225481  -0.356669  0  1.41863  0
Br  Br20  1  0.67297886  0.67462841  0.84408546  1  0  -0.225618  -0.35693  0  1.418578  0
Br  Br21  1  0.32890065  0.83094514  0.15602535  1  0  -0.225517  -0.356709  0  1.41852  0
N  N22  1  0.17194837  0.82158997  0.66861678  1  0  -0.182288  -0.073921  0  3.470733  0
N  N23  1  0.00361313  0.15345819  0.33122739  1  0  -0.18164  -0.072602  0  3.470794  0
N  N24  1  0.82805121  0.17841117  0.33138086  1  0  -0.182361  -0.074041  0  3.470746  0
N  N25  1  0.99639289  0.84652948  0.66877930  1  0  -0.181735  -0.0727  0  3.470764  0
