# generated using pymatgen
data_Zn5H40C72N6(O3F4)6
_symmetry_space_group_name_H-M   'P 1'
_cell_length_a   7.31545277
_cell_length_b   20.86684795
_cell_length_c   26.43304074
_cell_angle_alpha   96.09282118
_cell_angle_beta   90.00007598
_cell_angle_gamma   90.00008769
_symmetry_Int_Tables_number   1
_chemical_formula_structural   Zn5H40C72N6(O3F4)6
_chemical_formula_sum   'Zn10 H80 C144 N12 O36 F48'
_cell_volume   4012.22252287
_cell_formula_units_Z   2
loop_
 _symmetry_equiv_pos_site_id
 _symmetry_equiv_pos_as_xyz
  1  'x, y, z'
loop_
 _atom_site_type_symbol
 _atom_site_label
 _atom_site_symmetry_multiplicity
 _atom_site_fract_x
 _atom_site_fract_y
 _atom_site_fract_z
 _atom_site_occupancy
 _atom_site_pbe_bader_charge
 _atom_site_pbe_bader_spin_density
 _atom_site_pbe_cm5_charge
 _atom_site_pbe_ddec_charge
 _atom_site_pbe_ddec_spin_density
 _atom_site_pbe_ddec_sum_bond_order
 _atom_site_pbe_magmom
Zn  Zn0  1  0.00000120  0.00000088  0.49999934  1  1.353106  0  0.70552  0.886524  0  2.299022  0
Zn  Zn1  1  0.00000109  0.49999932  0.00000024  1  1.35312  0  0.705503  0.88649  0  2.299051  0
Zn  Zn2  1  0.44882887  0.01718497  0.34583511  1  1.295245  0  0.710167  0.846243  0  2.390456  0
Zn  Zn3  1  0.44882805  0.48281502  0.15416424  1  1.295223  0  0.71013  0.846157  0  2.390526  0
Zn  Zn4  1  0.55116988  0.98281573  0.65416464  1  1.29518  0  0.710103  0.846166  0  2.390604  0
Zn  Zn5  1  0.55117069  0.51718472  0.84583543  1  1.295204  0  0.710105  0.84618  0  2.390578  0
Zn  Zn6  1  0.81859985  0.08443191  0.40919771  1  1.322997  0  0.700723  0.858768  0  2.375344  0
Zn  Zn7  1  0.81860118  0.41556829  0.09080255  1  1.322995  0  0.700708  0.858757  0  2.375389  0
Zn  Zn8  1  0.18139889  0.91556975  0.59080212  1  1.322991  0  0.700759  0.858802  0  2.375285  0
Zn  Zn9  1  0.18139483  0.58443096  0.90919784  1  1.323031  0  0.700727  0.858795  0  2.375301  0
H  H10  1  0.17291320  0.06078273  0.41711533  1  0.643731  0  0.301046  0.390314  0  0.940786  0
H  H11  1  0.17291458  0.43921709  0.08288428  1  0.643613  0  0.300988  0.390178  0  0.940959  0
H  H12  1  0.82708692  0.93921797  0.58288404  1  0.643235  0  0.300997  0.390212  0  0.940916  0
H  H13  1  0.82708279  0.56078216  0.91711610  1  0.643201  0  0.301016  0.390218  0  0.940925  0
H  H14  1  0.09828822  0.99027291  0.39842993  1  0.658589  0  0.292476  0.391686  0  0.956432  0
H  H15  1  0.09828919  0.50972696  0.10157026  1  0.658599  0  0.292478  0.391676  0  0.956466  0
H  H16  1  0.90171463  0.00972827  0.60157024  1  0.658579  0  0.292452  0.391587  0  0.956585  0
H  H17  1  0.90171229  0.49027230  0.89843013  1  0.658596  0  0.292427  0.391521  0  0.956637  0
H  H18  1  0.09808678  0.18108639  0.35681256  1  0.118755  0  0.107445  0.116385  0  1.022321  0
H  H19  1  0.09808930  0.31891339  0.14318740  1  0.118813  0  0.107411  0.116352  0  1.022404  0
H  H20  1  0.90191060  0.81891335  0.64318748  1  0.118806  0  0.10741  0.116347  0  1.022395  0
H  H21  1  0.90190535  0.68108586  0.85681336  1  0.118817  0  0.107428  0.116393  0  1.022301  0
H  H22  1  0.96914589  0.29106228  0.35909385  1  0.096423  0  0.106693  0.116969  0  0.989111  0
H  H23  1  0.96914655  0.20893753  0.14090568  1  0.096435  0  0.106662  0.116917  0  0.989147  0
H  H24  1  0.03085149  0.70893746  0.64090544  1  0.096457  0  0.106645  0.11688  0  0.989186  0
H  H25  1  0.03084946  0.79106124  0.85909429  1  0.09648  0  0.106627  0.116913  0  0.989204  0
H  H26  1  0.44928506  0.36782906  0.43946159  1  0.103474  0  0.095934  0.10665  0  1.033056  0
H  H27  1  0.44928636  0.13217044  0.06053734  1  0.103452  0  0.095917  0.106643  0  1.033069  0
H  H28  1  0.55071095  0.63217115  0.56053661  1  0.103343  0  0.095921  0.106649  0  1.033043  0
H  H29  1  0.55071238  0.86783026  0.93946316  1  0.103425  0  0.095915  0.106601  0  1.03306  0
H  H30  1  0.57923028  0.25846453  0.43442556  1  0.111618  0  0.109445  0.121452  0  0.988879  0
H  H31  1  0.57923209  0.24153505  0.06557456  1  0.111601  0  0.109424  0.121385  0  0.988849  0
H  H32  1  0.42076709  0.74153568  0.56557415  1  0.111569  0  0.109409  0.121369  0  0.988927  0
H  H33  1  0.42076392  0.75846613  0.93442674  1  0.111533  0  0.109398  0.121364  0  0.988904  0
H  H34  1  0.76148860  0.45314568  0.37696416  1  0.107019  0  0.090515  0.100262  0  1.056353  0
H  H35  1  0.76148847  0.04685449  0.12303645  1  0.107062  0  0.090517  0.100249  0  1.05627  0
H  H36  1  0.23850878  0.54685406  0.62303550  1  0.107001  0  0.090527  0.10028  0  1.056281  0
H  H37  1  0.23851028  0.95314524  0.87696284  1  0.107064  0  0.090518  0.100248  0  1.056304  0
H  H38  1  0.63740724  0.46421359  0.29198651  1  0.127011  0  0.104675  0.116894  0  1.00325  0
H  H39  1  0.63740747  0.03578747  0.20801413  1  0.127032  0  0.104665  0.116884  0  1.003295  0
H  H40  1  0.36258877  0.53578663  0.70801282  1  0.127058  0  0.104633  0.116819  0  1.00331  0
H  H41  1  0.36258991  0.96421323  0.79198599  1  0.12704  0  0.104666  0.11687  0  1.003306  0
H  H42  1  0.13576469  0.38931956  0.22300029  1  0.094176  0  0.107598  0.11325  0  1.007733  0
H  H43  1  0.13576694  0.11068169  0.27700057  1  0.094134  0  0.107571  0.113224  0  1.007725  0
H  H44  1  0.86423406  0.61068163  0.77699950  1  0.094174  0  0.107595  0.113273  0  1.007693  0
H  H45  1  0.86423180  0.88931949  0.72299922  1  0.094118  0  0.107568  0.113217  0  1.007709  0
H  H46  1  0.26131143  0.37535732  0.30815371  1  0.063503  0  0.103856  0.112709  0  0.995538  0
H  H47  1  0.26131470  0.12464159  0.19184662  1  0.063486  0  0.103861  0.112698  0  0.995575  0
H  H48  1  0.73868595  0.62464242  0.69184596  1  0.063478  0  0.103859  0.112706  0  0.995539  0
H  H49  1  0.73868404  0.87535862  0.80815309  1  0.063467  0  0.103856  0.112673  0  0.995611  0
H  H50  1  0.38467771  0.89437628  0.41828467  1  0.185787  0  0.131966  0.138969  0  0.997685  0
H  H51  1  0.38468174  0.60562472  0.08171495  1  0.185684  0  0.131979  0.138982  0  0.997591  0
H  H52  1  0.61532240  0.10562393  0.58171579  1  0.18577  0  0.13195  0.138902  0  0.997694  0
H  H53  1  0.61532384  0.39437694  0.91828488  1  0.185767  0  0.131989  0.13898  0  0.997659  0
H  H54  1  0.65014743  0.88448055  0.49364089  1  0.105794  0  0.129795  0.129417  0  0.983428  0
H  H55  1  0.65015114  0.61552061  0.00635771  1  0.105759  0  0.12979  0.129429  0  0.983371  0
H  H56  1  0.34985678  0.11552208  0.50635902  1  0.105684  0  0.129772  0.129407  0  0.983429  0
H  H57  1  0.34985718  0.38448008  0.99364204  1  0.105736  0  0.129801  0.129448  0  0.983447  0
H  H58  1  0.06694217  0.65396579  0.10610967  1  0.145815  0  0.101672  0.115293  0  1.041406  0
H  H59  1  0.06694192  0.84603454  0.39389318  1  0.145858  0  0.101665  0.11529  0  1.041335  0
H  H60  1  0.93305930  0.34603491  0.89389348  1  0.145883  0  0.101646  0.115244  0  1.04137  0
H  H61  1  0.93305409  0.15396519  0.60610686  1  0.145833  0  0.101669  0.115274  0  1.041371  0
H  H62  1  0.87126927  0.74756340  0.97926367  1  0.086026  0  0.09768  0.099316  0  1.059172  0
H  H63  1  0.87126407  0.75243627  0.52073834  1  0.085958  0  0.097702  0.099403  0  1.058994  0
H  H64  1  0.12873631  0.25243537  0.02073818  1  0.085956  0  0.097667  0.099298  0  1.059098  0
H  H65  1  0.12873057  0.24756491  0.47926221  1  0.085965  0  0.097706  0.099397  0  1.059015  0
H  H66  1  0.69771674  0.82479564  0.03724333  1  0.093753  0  0.093733  0.103241  0  1.037972  0
H  H67  1  0.69771333  0.67520362  0.46275777  1  0.093682  0  0.093724  0.103257  0  1.037994  0
H  H68  1  0.30228884  0.17520410  0.96275709  1  0.093724  0  0.093726  0.103271  0  1.037975  0
H  H69  1  0.30228404  0.32479611  0.53724265  1  0.09371  0  0.093755  0.103293  0  1.038067  0
H  H70  1  0.91547234  0.73682792  0.16535710  1  0.0844  0  0.101348  0.109763  0  1.005606  0
H  H71  1  0.91547554  0.76317244  0.33464493  1  0.0845  0  0.101355  0.109733  0  1.005565  0
H  H72  1  0.08452640  0.26317375  0.83464424  1  0.084466  0  0.10136  0.109724  0  1.005578  0
H  H73  1  0.08452594  0.23682633  0.66535579  1  0.084465  0  0.101345  0.109707  0  1.005556  0
H  H74  1  0.60605653  0.84491718  0.25047678  1  0.089822  0  0.093744  0.10547  0  1.036228  0
H  H75  1  0.60605885  0.65508251  0.24952432  1  0.089883  0  0.093744  0.105494  0  1.036192  0
H  H76  1  0.39394085  0.15508159  0.74952394  1  0.089866  0  0.093771  0.10547  0  1.036233  0
H  H77  1  0.39394400  0.34491819  0.75047505  1  0.089824  0  0.093768  0.105484  0  1.036222  0
H  H78  1  0.81232837  0.89127692  0.31855767  1  0.074332  0  0.103259  0.106249  0  1.007063  0
H  H79  1  0.81233153  0.60872385  0.18144398  1  0.074405  0  0.103252  0.106279  0  1.007087  0
H  H80  1  0.18767037  0.10872281  0.68144313  1  0.074382  0  0.103226  0.106233  0  1.007076  0
H  H81  1  0.18767542  0.39127685  0.81855615  1  0.074482  0  0.10324  0.106235  0  1.00709  0
H  H82  1  0.21075231  0.93255765  0.20732077  1  0.143995  0  0.101151  0.111035  0  1.016925  0
H  H83  1  0.21075582  0.56744181  0.29268017  1  0.144559  0  0.101153  0.111035  0  1.016965  0
H  H84  1  0.78925054  0.06744064  0.79268029  1  0.144192  0  0.101124  0.11102  0  1.016898  0
H  H85  1  0.78925113  0.43255841  0.70732029  1  0.144221  0  0.101138  0.11105  0  1.016845  0
H  H86  1  0.01377037  0.88081269  0.13856267  1  0.066671  0  0.100557  0.113515  0  1.003631  0
H  H87  1  0.01377307  0.61918665  0.36143895  1  0.066604  0  0.100583  0.11356  0  1.003581  0
H  H88  1  0.98623384  0.11918705  0.86143775  1  0.06643  0  0.100558  0.113542  0  1.003642  0
H  H89  1  0.98623114  0.38081309  0.63856147  1  0.066624  0  0.100574  0.11355  0  1.003571  0
C  C90  1  0.43119536  0.14778662  0.39250763  1  1.527811  0  0.222729  0.597153  0  4.171369  0
C  C91  1  0.43119785  0.35221336  0.10749247  1  1.527776  0  0.222672  0.59707  0  4.171373  0
C  C92  1  0.56879792  0.85221215  0.60749158  1  1.52783  0  0.222722  0.597131  0  4.171379  0
C  C93  1  0.56879542  0.64778638  0.89250909  1  1.527857  0  0.222568  0.596875  0  4.171757  0
C  C94  1  0.34743036  0.21312035  0.39522472  1  0.023576  0  -0.020671  -0.051374  0  3.988472  0
C  C95  1  0.34743255  0.28687909  0.10477493  1  0.023557  0  -0.020666  -0.051359  0  3.988373  0
C  C96  1  0.65256702  0.78687986  0.60477499  1  0.023627  0  -0.020675  -0.05138  0  3.988406  0
C  C97  1  0.65256209  0.71312161  0.89522596  1  0.023578  0  -0.020678  -0.051322  0  3.988374  0
C  C98  1  0.17471921  0.22239278  0.37431153  1  -0.009532  0  -0.076177  -0.067917  0  3.944872  0
C  C99  1  0.17472283  0.27760705  0.12568884  1  -0.009534  0  -0.076169  -0.06791  0  3.944811  0
C  C100  1  0.82527680  0.77760744  0.62568855  1  -0.009577  0  -0.076159  -0.067891  0  3.944763  0
C  C101  1  0.82527318  0.72239317  0.87431238  1  -0.009518  0  -0.076195  -0.067956  0  3.944771  0
C  C102  1  0.10242854  0.28421197  0.37606648  1  -0.089677  0  -0.087287  -0.125134  0  3.953325  0
C  C103  1  0.10243189  0.21578684  0.12393340  1  -0.08964  0  -0.087231  -0.125079  0  3.953394  0
C  C104  1  0.89756610  0.71578776  0.62393243  1  -0.089889  0  -0.087197  -0.124998  0  3.953417  0
C  C105  1  0.89756412  0.78421193  0.87606770  1  -0.089879  0  -0.087161  -0.125026  0  3.95344  0
C  C106  1  0.19934411  0.33759567  0.39926199  1  -0.063507  0  -0.011367  0.088075  0  3.943379  0
C  C107  1  0.19934438  0.16240320  0.10073793  1  -0.063564  0  -0.011288  0.088229  0  3.943562  0
C  C108  1  0.80065463  0.66240358  0.60073650  1  -0.063751  0  -0.011361  0.088086  0  3.943477  0
C  C109  1  0.80065163  0.83759701  0.89926253  1  -0.063564  0  -0.011365  0.08806  0  3.943538  0
C  C110  1  0.37089470  0.32783083  0.42081851  1  -0.048932  0  -0.096889  -0.142066  0  3.98059  0
C  C111  1  0.37089490  0.17216863  0.07918152  1  -0.048948  0  -0.096926  -0.142194  0  3.980728  0
C  C112  1  0.62910405  0.67216987  0.57918048  1  -0.048175  0  -0.096872  -0.142102  0  3.980551  0
C  C113  1  0.62910384  0.82783159  0.92081970  1  -0.048529  0  -0.096809  -0.141888  0  3.980596  0
C  C114  1  0.44494192  0.26615034  0.41829364  1  -0.008776  0  -0.077802  -0.070592  0  3.94685  0
C  C115  1  0.44494378  0.23384916  0.08170680  1  -0.008743  0  -0.077764  -0.070442  0  3.946772  0
C  C116  1  0.55505272  0.73385036  0.58170573  1  -0.008991  0  -0.077778  -0.070482  0  3.946756  0
C  C117  1  0.55505087  0.76615154  0.91829521  1  -0.008904  0  -0.07781  -0.070597  0  3.946958  0
C  C118  1  0.10792408  0.40422792  0.40083493  1  0.045597  0  -0.011112  -0.273613  0  3.845722  0
C  C119  1  0.10792542  0.09577186  0.09916466  1  0.04556  0  -0.011135  -0.273747  0  3.845854  0
C  C120  1  0.89207466  0.59577133  0.59916357  1  0.045602  0  -0.011113  -0.273739  0  3.84558  0
C  C121  1  0.89207470  0.90422835  0.90083505  1  0.045596  0  -0.011121  -0.273628  0  3.845727  0
C  C122  1  0.24675091  0.46088923  0.41204151  1  1.706683  0  0.302705  0.6776  0  3.967047  0
C  C123  1  0.24675057  0.03911015  0.08795810  1  1.70668  0  0.302629  0.677583  0  3.967008  0
C  C124  1  0.75324784  0.53911003  0.58795585  1  1.706742  0  0.302818  0.678121  0  3.966443  0
C  C125  1  0.75324954  0.96089054  0.91204127  1  1.706417  0  0.30267  0.677608  0  3.966985  0
C  C126  1  0.96526689  0.40798430  0.44505853  1  1.719235  0  0.302746  0.678694  0  3.968749  0
C  C127  1  0.96526390  0.09201454  0.05494242  1  1.719135  0  0.302779  0.678814  0  3.968656  0
C  C128  1  0.03473459  0.59201398  0.55494101  1  1.719125  0  0.302617  0.678544  0  3.9689  0
C  C129  1  0.03473348  0.90798616  0.94505732  1  1.719201  0  0.302684  0.678693  0  3.968827  0
C  C130  1  0.02038736  0.41265212  0.34895008  1  -0.06936  0  -0.013524  0.088196  0  3.942764  0
C  C131  1  0.02039027  0.08734761  0.15105023  1  -0.069309  0  -0.013484  0.088321  0  3.942736  0
C  C132  1  0.97960866  0.58734762  0.65104921  1  -0.069365  0  -0.013446  0.088359  0  3.942608  0
C  C133  1  0.97961121  0.91265212  0.84894944  1  -0.069346  0  -0.013516  0.088173  0  3.942777  0
C  C134  1  0.84497341  0.43802683  0.34389731  1  -0.022782  0  -0.098984  -0.141874  0  3.986529  0
C  C135  1  0.84497624  0.06197290  0.15610330  1  -0.022754  0  -0.098938  -0.141816  0  3.986469  0
C  C136  1  0.15502260  0.56197194  0.65610228  1  -0.022743  0  -0.098988  -0.14194  0  3.986527  0
C  C137  1  0.15502388  0.93802683  0.84389636  1  -0.022851  0  -0.098986  -0.141886  0  3.98657  0
C  C138  1  0.77371866  0.44443205  0.29589026  1  0.020794  0  -0.080794  -0.071793  0  3.950533  0
C  C139  1  0.77372032  0.05556909  0.20411044  1  0.020813  0  -0.080824  -0.071792  0  3.950674  0
C  C140  1  0.22627735  0.55556720  0.70410899  1  0.020802  0  -0.080772  -0.071622  0  3.950543  0
C  C141  1  0.22627842  0.94443257  0.79588939  1  0.020902  0  -0.080779  -0.071699  0  3.950649  0
C  C142  1  0.87709147  0.42634666  0.25220585  1  -0.088291  0  -0.018474  -0.043741  0  3.98511  0
C  C143  1  0.87709343  0.07365502  0.24779456  1  -0.088324  0  -0.018555  -0.043907  0  3.985205  0
C  C144  1  0.12290454  0.57365307  0.74779382  1  -0.088271  0  -0.018517  -0.043887  0  3.985138  0
C  C145  1  0.12290258  0.92634712  0.75220531  1  -0.0883  0  -0.018531  -0.043819  0  3.985279  0
C  C146  1  0.05415946  0.40214663  0.25702790  1  -0.017049  0  -0.077729  -0.070872  0  3.950715  0
C  C147  1  0.05416149  0.09785408  0.24297288  1  -0.017071  0  -0.077641  -0.070777  0  3.950599  0
C  C148  1  0.94583792  0.59785310  0.74297177  1  -0.017071  0  -0.077744  -0.070937  0  3.950709  0
C  C149  1  0.94583862  0.90214661  0.75702686  1  -0.017101  0  -0.077658  -0.070827  0  3.950667  0
C  C150  1  0.12451747  0.39513851  0.30495132  1  0.003052  0  -0.090129  -0.127406  0  3.963077  0
C  C151  1  0.12451931  0.10486080  0.19504898  1  0.003056  0  -0.090192  -0.127489  0  3.963168  0
C  C152  1  0.87547991  0.60486074  0.69504792  1  0.003061  0  -0.090133  -0.127414  0  3.963079  0
C  C153  1  0.87547807  0.89513893  0.80495106  1  0.003066  0  -0.090151  -0.127369  0  3.963065  0
C  C154  1  0.79800672  0.43325949  0.20110072  1  1.576158  0  0.225792  0.597345  0  4.17512  0
C  C155  1  0.79800615  0.06674214  0.29889927  1  1.576168  0  0.22584  0.597439  0  4.175011  0
C  C156  1  0.20198929  0.56673976  0.79889928  1  1.576167  0  0.225816  0.597424  0  4.174992  0
C  C157  1  0.20199122  0.93326048  0.70110026  1  1.575671  0  0.225855  0.59738  0  4.175052  0
C  C158  1  0.50477700  0.92317577  0.42851503  1  0.406605  0  0.029424  -0.008927  0  3.918964  0
C  C159  1  0.50478632  0.57682289  0.07148293  1  0.406908  0  0.029383  -0.008921  0  3.919263  0
C  C160  1  0.49522038  0.07682444  0.57148392  1  0.406615  0  0.029445  -0.008687  0  3.919142  0
C  C161  1  0.49522199  0.42317540  0.92851661  1  0.406637  0  0.029424  -0.008779  0  3.919085  0
C  C162  1  0.63502876  0.91922505  0.46629572  1  0.449578  0  0.026013  -0.02217  0  3.915497  0
C  C163  1  0.63503108  0.58077465  0.03370426  1  0.44954  0  0.026054  -0.022146  0  3.915766  0
C  C164  1  0.36497409  0.08077709  0.53370415  1  0.449558  0  0.026052  -0.022238  0  3.915594  0
C  C165  1  0.36497177  0.41922412  0.96629683  1  0.44953  0  0.026027  -0.02221  0  3.915627  0
C  C166  1  0.05995806  0.64379242  0.00247859  1  1.531721  0  0.210871  0.578866  0  4.177888  0
C  C167  1  0.05995424  0.85620839  0.49752280  1  1.531739  0  0.210806  0.578778  0  4.178027  0
C  C168  1  0.94004479  0.35620731  0.99752259  1  1.531639  0  0.21073  0.578669  0  4.178043  0
C  C169  1  0.94004450  0.14379231  0.50247733  1  1.531711  0  0.210774  0.578763  0  4.177995  0
C  C170  1  0.97885832  0.69565310  0.03869827  1  -0.055725  0  -0.023784  -0.047337  0  3.997848  0
C  C171  1  0.97885410  0.80434777  0.46130459  1  -0.055388  0  -0.02372  -0.047268  0  3.997914  0
C  C172  1  0.02114589  0.30434808  0.96130492  1  -0.055423  0  -0.023713  -0.04721  0  3.997825  0
C  C173  1  0.02114191  0.19565293  0.53869516  1  -0.055418  0  -0.023743  -0.047347  0  3.997989  0
C  C174  1  0.99147420  0.69295290  0.09131453  1  -0.058372  0  -0.084672  -0.081612  0  3.956483  0
C  C175  1  0.99147111  0.80704654  0.40868821  1  -0.058466  0  -0.084676  -0.081617  0  3.956361  0
C  C176  1  0.00853138  0.30704732  0.90868782  1  -0.058357  0  -0.084642  -0.08157  0  3.956305  0
C  C177  1  0.00852627  0.19295320  0.59131184  1  -0.058448  0  -0.084644  -0.081549  0  3.956357  0
C  C178  1  0.87777783  0.74499889  0.02009394  1  -0.015384  0  -0.085511  -0.081386  0  3.969781  0
C  C179  1  0.87777622  0.75500047  0.47990762  1  -0.015425  0  -0.085575  -0.081512  0  3.969707  0
C  C180  1  0.12222228  0.25499988  0.97990716  1  -0.0154  0  -0.085543  -0.081427  0  3.969702  0
C  C181  1  0.12222389  0.24499926  0.52009243  1  -0.015389  0  -0.085562  -0.081435  0  3.969625  0
C  C182  1  0.78114420  0.78889236  0.05325740  1  -0.024398  0  -0.100062  -0.137788  0  3.982208  0
C  C183  1  0.78114088  0.71110791  0.44674420  1  -0.024414  0  -0.100104  -0.137895  0  3.982405  0
C  C184  1  0.21886137  0.21110882  0.94674428  1  -0.024469  0  -0.10014  -0.137944  0  3.982357  0
C  C185  1  0.21885786  0.28889278  0.55325631  1  -0.024424  0  -0.100132  -0.137971  0  3.982449  0
C  C186  1  0.79150459  0.78602251  0.10584427  1  -0.079205  0  -0.015051  0.085916  0  3.95102  0
C  C187  1  0.79150376  0.71397632  0.39415722  1  -0.079141  0  -0.014978  0.08603  0  3.950987  0
C  C188  1  0.20849963  0.21397770  0.89415733  1  -0.078867  0  -0.014954  0.086052  0  3.950969  0
C  C189  1  0.20849636  0.28602293  0.60584279  1  -0.079112  0  -0.01501  0.086034  0  3.950938  0
C  C190  1  0.90228783  0.73877472  0.12450435  1  0.030065  0  -0.093103  -0.128231  0  3.961873  0
C  C191  1  0.90228848  0.76122514  0.37549840  1  0.029879  0  -0.093106  -0.128191  0  3.961694  0
C  C192  1  0.09771502  0.26122694  0.87549775  1  0.029504  0  -0.093114  -0.128164  0  3.961713  0
C  C193  1  0.09771163  0.23877411  0.62450236  1  0.029883  0  -0.093095  -0.128167  0  3.961649  0
C  C194  1  0.67710721  0.82913863  0.14465982  1  0.046168  0  -0.010148  -0.271786  0  3.850031  0
C  C195  1  0.67710463  0.67085966  0.35534007  1  0.04636  0  -0.010122  -0.271782  0  3.849903  0
C  C196  1  0.32289701  0.17086111  0.85533985  1  0.046176  0  -0.01013  -0.271838  0  3.850115  0
C  C197  1  0.32289821  0.32913960  0.64465994  1  0.046205  0  -0.010114  -0.271815  0  3.850063  0
C  C198  1  0.51985509  0.78497062  0.16126167  1  1.724464  0  0.301948  0.675103  0  3.968523  0
C  C199  1  0.51985947  0.71502999  0.33873759  1  1.724574  0  0.301962  0.675192  0  3.968204  0
C  C200  1  0.48014639  0.21503105  0.83873778  1  1.724794  0  0.302012  0.675155  0  3.968512  0
C  C201  1  0.48014611  0.28496879  0.66126162  1  1.72401  0  0.30202  0.675166  0  3.968452  0
C  C202  1  0.58775532  0.88736698  0.12157682  1  1.71689  0  0.303037  0.676122  0  3.966417  0
C  C203  1  0.58775124  0.61263221  0.37842348  1  1.71677  0  0.30305  0.676163  0  3.966372  0
C  C204  1  0.41225162  0.11263372  0.87842331  1  1.716893  0  0.303068  0.676165  0  3.966359  0
C  C205  1  0.41225160  0.38736704  0.62157576  1  1.716848  0  0.303079  0.676167  0  3.966299  0
C  C206  1  0.79653949  0.85801584  0.18943379  1  -0.070261  0  -0.014292  0.08849  0  3.938144  0
C  C207  1  0.79654205  0.64198347  0.31056698  1  -0.070263  0  -0.014376  0.088348  0  3.938249  0
C  C208  1  0.20346199  0.14198341  0.81056621  1  -0.070287  0  -0.014309  0.088446  0  3.938144  0
C  C209  1  0.20346353  0.35801674  0.68943349  1  -0.070254  0  -0.014307  0.088475  0  3.938121  0
C  C210  1  0.73958074  0.86236774  0.24029641  1  -0.020548  0  -0.098205  -0.13691  0  3.970014  0
C  C211  1  0.73958303  0.63763203  0.25970513  1  -0.021062  0  -0.098188  -0.136889  0  3.969974  0
C  C212  1  0.26042073  0.13763103  0.75970469  1  -0.020637  0  -0.098239  -0.136848  0  3.970043  0
C  C213  1  0.26042254  0.36236915  0.74029503  1  -0.02061  0  -0.098239  -0.136927  0  3.97007  0
C  C214  1  0.85469886  0.88903192  0.27889934  1  0.012271  0  -0.082848  -0.074705  0  3.959733  0
C  C215  1  0.85470084  0.61096888  0.22110195  1  0.012611  0  -0.08278  -0.074665  0  3.959709  0
C  C216  1  0.14530672  0.11096733  0.72110180  1  0.012132  0  -0.082809  -0.074684  0  3.959668  0
C  C217  1  0.14530610  0.38903231  0.77889822  1  0.012041  0  -0.082793  -0.074612  0  3.959607  0
C  C218  1  0.02547885  0.91396455  0.26731381  1  0.013853  0  -0.01972  -0.044343  0  3.979873  0
C  C219  1  0.02548215  0.58603528  0.23268710  1  0.014052  0  -0.01979  -0.044401  0  3.979831  0
C  C220  1  0.97452263  0.08603422  0.73268729  1  0.014057  0  -0.019729  -0.044366  0  3.979789  0
C  C221  1  0.97452343  0.41396542  0.76731303  1  0.013985  0  -0.019799  -0.044437  0  3.979716  0
C  C222  1  0.07950955  0.91209293  0.21634879  1  -0.062862  0  -0.080801  -0.070048  0  3.953407  0
C  C223  1  0.07951174  0.58790645  0.28365247  1  -0.063556  0  -0.08079  -0.07001  0  3.953357  0
C  C224  1  0.92049466  0.08790584  0.78365344  1  -0.063132  0  -0.080765  -0.069981  0  3.953276  0
C  C225  1  0.92049521  0.41209377  0.71634799  1  -0.06306  0  -0.080747  -0.06999  0  3.953204  0
C  C226  1  0.96752825  0.88342733  0.17791027  1  -0.047656  0  -0.090522  -0.126958  0  3.953734  0
C  C227  1  0.96753212  0.61657209  0.32209095  1  -0.047608  0  -0.090506  -0.126969  0  3.953702  0
C  C228  1  0.03247322  0.11657144  0.82209083  1  -0.047435  0  -0.090513  -0.126988  0  3.953768  0
C  C229  1  0.03247209  0.38342861  0.67790918  1  -0.047672  0  -0.090516  -0.126985  0  3.953572  0
C  C230  1  0.14671963  0.94289821  0.30906639  1  1.564935  0  0.215314  0.581983  0  4.190843  0
C  C231  1  0.14671577  0.55710072  0.19093486  1  1.564897  0  0.215381  0.581993  0  4.190659  0
C  C232  1  0.85329005  0.05710104  0.69093475  1  1.564841  0  0.215382  0.581956  0  4.19069  0
C  C233  1  0.85328708  0.44289709  0.80906615  1  1.564881  0  0.21529  0.581847  0  4.190828  0
N  N234  1  0.54863353  0.97516257  0.40460035  1  -0.73824  0  -0.241893  -0.192672  0  3.618959  0
N  N235  1  0.54863591  0.52483805  0.09539854  1  -0.738268  0  -0.241908  -0.192675  0  3.618954  0
N  N236  1  0.45136521  0.02483861  0.59539944  1  -0.7382  0  -0.241981  -0.192911  0  3.619174  0
N  N237  1  0.45136284  0.47516120  0.90460033  1  -0.738173  0  -0.241987  -0.192931  0  3.61921  0
N  N238  1  0.69804668  0.00211006  0.42678800  1  -0.229917  0  -0.136814  -0.07579  0  3.580033  0
N  N239  1  0.69804692  0.49788911  0.07321099  1  -0.229919  0  -0.136777  -0.075716  0  3.579882  0
N  N240  1  0.30195206  0.99789112  0.57321140  1  -0.229813  0  -0.136734  -0.075667  0  3.579892  0
N  N241  1  0.30195046  0.50210822  0.92678810  1  -0.229816  0  -0.136712  -0.075686  0  3.579978  0
N  N242  1  0.75265658  0.96879798  0.46399508  1  -0.694483  0  -0.218475  -0.14573  0  3.500553  0
N  N243  1  0.75265733  0.53120131  0.03600378  1  -0.694603  0  -0.218493  -0.145818  0  3.500617  0
N  N244  1  0.24734217  0.03120320  0.53600395  1  -0.694489  0  -0.218458  -0.145675  0  3.500485  0
N  N245  1  0.24734279  0.46879698  0.96399614  1  -0.694539  0  -0.21851  -0.145734  0  3.500526  0
O  O246  1  0.59543812  0.14399881  0.40611941  1  -1.187098  0  -0.307148  -0.544668  0  2.387335  0
O  O247  1  0.59544057  0.35600078  0.09388072  1  -1.187076  0  -0.30713  -0.544643  0  2.387331  0
O  O248  1  0.40456199  0.85600189  0.59387996  1  -1.187157  0  -0.307142  -0.544654  0  2.387384  0
O  O249  1  0.40455681  0.64399944  0.90611975  1  -1.18724  0  -0.30709  -0.544602  0  2.38752  0
O  O250  1  0.32968270  0.09908144  0.37603438  1  -1.182709  0  -0.321  -0.56696  0  2.376346  0
O  O251  1  0.32968412  0.40091847  0.12396606  1  -1.182666  0  -0.320971  -0.566888  0  2.376344  0
O  O252  1  0.67031741  0.90091926  0.62396537  1  -1.182621  0  -0.321021  -0.566959  0  2.376265  0
O  O253  1  0.67030779  0.59908126  0.87603626  1  -1.18256  0  -0.320897  -0.566759  0  2.376532  0
O  O254  1  0.63766946  0.45684701  0.20038958  1  -1.188691  0  -0.317981  -0.54498  0  2.404191  0
O  O255  1  0.63766743  0.04315453  0.29960997  1  -1.188685  0  -0.317981  -0.544964  0  2.404154  0
O  O256  1  0.36232928  0.54315224  0.79960929  1  -1.188661  0  -0.317967  -0.544969  0  2.404109  0
O  O257  1  0.36232995  0.95684761  0.70038990  1  -1.188688  0  -0.317971  -0.544962  0  2.404153  0
O  O258  1  0.89639421  0.41513600  0.16230471  1  -1.172794  0  -0.309786  -0.527793  0  2.370056  0
O  O259  1  0.89639391  0.08486473  0.33769600  1  -1.172806  0  -0.309821  -0.527859  0  2.369999  0
O  O260  1  0.10360454  0.58486421  0.83769500  1  -1.172825  0  -0.309797  -0.527834  0  2.370045  0
O  O261  1  0.10360484  0.91513694  0.66230421  1  -1.172299  0  -0.309811  -0.52779  0  2.370047  0
O  O262  1  0.08200558  0.02859667  0.42573949  1  -1.275623  0  -0.560576  -0.77223  0  2.264359  0
O  O263  1  0.08200844  0.47140358  0.07426050  1  -1.275531  0  -0.560544  -0.772096  0  2.264415  0
O  O264  1  0.91799316  0.97140547  0.57426000  1  -1.275114  0  -0.560541  -0.772083  0  2.264497  0
O  O265  1  0.91799168  0.52859664  0.92573996  1  -1.275097  0  -0.560535  -0.772041  0  2.264533  0
O  O266  1  0.11598733  0.59235856  0.01945042  1  -1.197746  0  -0.325376  -0.583764  0  2.346355  0
O  O267  1  0.11598639  0.90764083  0.48055124  1  -1.197758  0  -0.325363  -0.583758  0  2.346293  0
O  O268  1  0.88401415  0.40764021  0.98055181  1  -1.197676  0  -0.325324  -0.583709  0  2.346289  0
O  O269  1  0.88401372  0.09235938  0.51944847  1  -1.197727  0  -0.325297  -0.58371  0  2.346258  0
O  O270  1  0.06308116  0.65320891  0.95531652  1  -1.149105  0  -0.314445  -0.513555  0  2.322988  0
O  O271  1  0.06308060  0.84679077  0.54468406  1  -1.149156  0  -0.314444  -0.513527  0  2.323066  0
O  O272  1  0.93692032  0.34678938  0.04468529  1  -1.149091  0  -0.31436  -0.513451  0  2.323046  0
O  O273  1  0.93691815  0.15320993  0.45531569  1  -1.149179  0  -0.314454  -0.513504  0  2.323022  0
O  O274  1  0.10591569  0.93627773  0.35472490  1  -1.19816  0  -0.313001  -0.556368  0  2.244382  0
O  O275  1  0.10591027  0.56372166  0.14527600  1  -1.19811  0  -0.31305  -0.556359  0  2.244215  0
O  O276  1  0.89409126  0.06372201  0.64527590  1  -1.198107  0  -0.313099  -0.556382  0  2.244214  0
O  O277  1  0.89409258  0.43627711  0.85472396  1  -1.19814  0  -0.313017  -0.556258  0  2.244404  0
O  O278  1  0.28870267  0.97324431  0.29522604  1  -1.151833  0  -0.320918  -0.525922  0  2.330934  0
O  O279  1  0.28870148  0.52675471  0.20477338  1  -1.151827  0  -0.32092  -0.525927  0  2.330873  0
O  O280  1  0.71130018  0.02675639  0.70477257  1  -1.151697  0  -0.320886  -0.525853  0  2.330907  0
O  O281  1  0.71129863  0.47324406  0.79522734  1  -1.151733  0  -0.320862  -0.52585  0  2.330908  0
F  F282  1  0.31523484  0.46644597  0.46023318  1  -0.602267  0  -0.099919  -0.20512  0  1.339998  0
F  F283  1  0.31523425  0.03355393  0.03976649  1  -0.602283  0  -0.099887  -0.205094  0  1.339871  0
F  F284  1  0.68476938  0.53355424  0.53976425  1  -0.602398  0  -0.099935  -0.205254  0  1.339823  0
F  F285  1  0.68476450  0.96644628  0.96023322  1  -0.602264  0  -0.099904  -0.205102  0  1.339884  0
F  F286  1  0.39267343  0.45299137  0.37979945  1  -0.621953  0  -0.09014  -0.199147  0  1.356774  0
F  F287  1  0.39267602  0.04700713  0.12020013  1  -0.621952  0  -0.090175  -0.199211  0  1.356723  0
F  F288  1  0.60731848  0.54700644  0.62019590  1  -0.621966  0  -0.09033  -0.199432  0  1.356611  0
F  F289  1  0.60732409  0.95299308  0.87979957  1  -0.621965  0  -0.090179  -0.199222  0  1.356713  0
F  F290  1  0.16905384  0.51844440  0.40514597  1  -0.61528  0  -0.097015  -0.200279  0  1.350147  0
F  F291  1  0.16905274  0.98155503  0.09485307  1  -0.615276  0  -0.096941  -0.200206  0  1.350222  0
F  F292  1  0.83094353  0.48155486  0.59485177  1  -0.615254  0  -0.096949  -0.200329  0  1.350065  0
F  F293  1  0.83094874  0.01844518  0.90514550  1  -0.615041  0  -0.09696  -0.200235  0  1.350249  0
F  F294  1  0.04126400  0.39188122  0.48884728  1  -0.609889  0  -0.096011  -0.198452  0  1.359267  0
F  F295  1  0.04125950  0.10811564  0.01115279  1  -0.609902  0  -0.096029  -0.198491  0  1.359206  0
F  F296  1  0.95874158  0.60811659  0.51115185  1  -0.60997  0  -0.096014  -0.198456  0  1.359289  0
F  F297  1  0.95874198  0.89188458  0.98884692  1  -0.609979  0  -0.096012  -0.198479  0  1.359234  0
F  F298  1  0.82464390  0.36580784  0.43355681  1  -0.625697  0  -0.090598  -0.198645  0  1.327484  0
F  F299  1  0.82464387  0.13419237  0.06644459  1  -0.625721  0  -0.090633  -0.19868  0  1.327423  0
F  F300  1  0.17535485  0.63419045  0.56644425  1  -0.625671  0  -0.090574  -0.198591  0  1.327493  0
F  F301  1  0.17535624  0.86580978  0.93355453  1  -0.625677  0  -0.090587  -0.198636  0  1.327485  0
F  F302  1  0.89009193  0.46747840  0.45565587  1  -0.608321  0  -0.096134  -0.203947  0  1.382668  0
F  F303  1  0.89008863  0.03251992  0.04434577  1  -0.608199  0  -0.096126  -0.203978  0  1.382721  0
F  F304  1  0.10990681  0.53251941  0.54434477  1  -0.60822  0  -0.096045  -0.203865  0  1.382755  0
F  F305  1  0.10990875  0.96748030  0.95565432  1  -0.608214  0  -0.096124  -0.203973  0  1.382768  0
F  F306  1  0.38551358  0.81785727  0.18865026  1  -0.623674  0  -0.09207  -0.202592  0  1.361174  0
F  F307  1  0.38552041  0.68214373  0.31134823  1  -0.62363  0  -0.092085  -0.202645  0  1.36113  0
F  F308  1  0.61448516  0.18214536  0.81134852  1  -0.623675  0  -0.092094  -0.202626  0  1.36114  0
F  F309  1  0.61448653  0.31785552  0.68864988  1  -0.623609  0  -0.092104  -0.202629  0  1.361098  0
F  F310  1  0.58543542  0.74011774  0.19051734  1  -0.621795  0  -0.088953  -0.200398  0  1.366879  0
F  F311  1  0.58544532  0.75988193  0.30948111  1  -0.622695  0  -0.088962  -0.200423  0  1.366703  0
F  F312  1  0.41455922  0.25988344  0.80948169  1  -0.622705  0  -0.089021  -0.200474  0  1.366886  0
F  F313  1  0.41456026  0.24011732  0.69051738  1  -0.621843  0  -0.08896  -0.20043  0  1.366879  0
F  F314  1  0.43739659  0.75180002  0.12032821  1  -0.616342  0  -0.102569  -0.207373  0  1.324585  0
F  F315  1  0.43739721  0.74820102  0.37967030  1  -0.616575  0  -0.102556  -0.207371  0  1.324516  0
F  F316  1  0.56260488  0.24820213  0.87967053  1  -0.616599  0  -0.102557  -0.207343  0  1.324581  0
F  F317  1  0.56260153  0.25179824  0.62032781  1  -0.615927  0  -0.102602  -0.207371  0  1.324575  0
F  F318  1  0.51077189  0.92917933  0.15855611  1  -0.618103  0  -0.090063  -0.199538  0  1.369883  0
F  F319  1  0.51076745  0.57082127  0.34144353  1  -0.618141  0  -0.090065  -0.199557  0  1.369887  0
F  F320  1  0.48923096  0.07082185  0.84144368  1  -0.618118  0  -0.09006  -0.199548  0  1.369879  0
F  F321  1  0.48923540  0.42917798  0.65855572  1  -0.618111  0  -0.090058  -0.19955  0  1.369816  0
F  F322  1  0.71424922  0.92126399  0.09760987  1  -0.619919  0  -0.086276  -0.188079  0  1.348157  0
F  F323  1  0.71424510  0.57873480  0.40238968  1  -0.619787  0  -0.086292  -0.188099  0  1.348219  0
F  F324  1  0.28575363  0.07873720  0.90238878  1  -0.619866  0  -0.086254  -0.188052  0  1.348229  0
F  F325  1  0.28575227  0.42126541  0.59761154  1  -0.619873  0  -0.086264  -0.188064  0  1.348195  0
F  F326  1  0.45336844  0.86981243  0.08706195  1  -0.612596  0  -0.101944  -0.208059  0  1.314188  0
F  F327  1  0.45336734  0.63018669  0.41293830  1  -0.612626  0  -0.101973  -0.208079  0  1.31413  0
F  F328  1  0.54663440  0.13018731  0.91293885  1  -0.612651  0  -0.102003  -0.208095  0  1.314098  0
F  F329  1  0.54662867  0.36981305  0.58705910  1  -0.612638  0  -0.102038  -0.208118  0  1.314128  0
