# generated using pymatgen
data_Cu3H8C12I2N5
_symmetry_space_group_name_H-M   'P 1'
_cell_length_a   9.84831780
_cell_length_b   12.18059926
_cell_length_c   12.85700000
_cell_angle_alpha   90.00000000
_cell_angle_beta   90.00000000
_cell_angle_gamma   94.53964426
_symmetry_Int_Tables_number   1
_chemical_formula_structural   Cu3H8C12I2N5
_chemical_formula_sum   'Cu12 H32 C48 I8 N20'
_cell_volume   1537.46679990
_cell_formula_units_Z   4
loop_
 _symmetry_equiv_pos_site_id
 _symmetry_equiv_pos_as_xyz
  1  'x, y, z'
loop_
 _atom_site_type_symbol
 _atom_site_label
 _atom_site_symmetry_multiplicity
 _atom_site_fract_x
 _atom_site_fract_y
 _atom_site_fract_z
 _atom_site_occupancy
 _atom_site_pbe_bader_charge
 _atom_site_pbe_bader_spin_density
 _atom_site_pbe_cm5_charge
 _atom_site_pbe_ddec_charge
 _atom_site_pbe_ddec_spin_density
 _atom_site_pbe_ddec_sum_bond_order
 _atom_site_pbe_magmom
Cu  Cu0  1  0.17893912  0.25234331  0.53103134  1  0.550174  0  0.391847  0.27662  0  2.580393  0
Cu  Cu1  1  0.32105889  0.24765560  0.03103134  1  0.55042  0  0.391837  0.276621  0  2.580382  0
Cu  Cu2  1  0.82106018  0.74765699  0.46897021  1  0.550446  0  0.391853  0.276638  0  2.580342  0
Cu  Cu3  1  0.67894220  0.75234223  0.96896866  1  0.550352  0  0.391823  0.276552  0  2.580336  0
Cu  Cu4  1  0.46459312  0.16208264  0.63400249  1  0.542143  0  0.397227  0.228095  0  2.555415  0
Cu  Cu5  1  0.03540582  0.33791545  0.13400171  1  0.542069  0  0.397239  0.228127  0  2.5554  0
Cu  Cu6  1  0.53540805  0.83791601  0.36599829  1  0.542131  0  0.397222  0.228076  0  2.55547  0
Cu  Cu7  1  0.96459129  0.66208320  0.86599984  1  0.542124  0  0.397225  0.22809  0  2.555426  0
Cu  Cu8  1  0.98685515  0.12438082  0.18885977  1  0.418381  0  0.287791  0.232499  0  2.462864  0
Cu  Cu9  1  0.51314410  0.37561809  0.68885977  1  0.418329  0  0.287778  0.232463  0  2.462903  0
Cu  Cu10  1  0.01314720  0.87561948  0.81114179  1  0.418331  0  0.287755  0.232375  0  2.462978  0
Cu  Cu11  1  0.48685395  0.62437974  0.31114023  1  0.418357  0  0.287779  0.232488  0  2.462914  0
H  H12  1  0.25594737  0.96163222  0.92157113  1  0.104715  0  0.095846  0.111062  0  1.033914  0
H  H13  1  0.24405792  0.53836781  0.42156957  1  0.104706  0  0.095853  0.111079  0  1.033882  0
H  H14  1  0.74405896  0.03836725  0.07842887  1  0.104638  0  0.095843  0.111057  0  1.033887  0
H  H15  1  0.75594138  0.46163249  0.57842576  1  0.104536  0  0.095838  0.111032  0  1.033888  0
H  H16  1  0.43656336  0.87462050  0.02262814  1  0.059295  0  0.097652  0.073267  0  1.041234  0
H  H17  1  0.06344177  0.62537789  0.52262970  1  0.05926  0  0.097637  0.073254  0  1.041182  0
H  H18  1  0.56344431  0.12538227  0.97737186  1  0.059291  0  0.097618  0.073255  0  1.041136  0
H  H19  1  0.93656058  0.37462241  0.47736875  1  0.059235  0  0.097635  0.073215  0  1.041186  0
H  H20  1  0.65867437  0.82321380  0.75523372  1  0.10921  0  0.093536  0.075952  0  1.060674  0
H  H21  1  0.84132489  0.67678459  0.25523684  1  0.10902  0  0.09354  0.075986  0  1.060657  0
H  H22  1  0.34133009  0.17678732  0.24476628  1  0.10927  0  0.09356  0.075973  0  1.060674  0
H  H23  1  0.15867270  0.32321900  0.74476394  1  0.108961  0  0.093503  0.075922  0  1.060699  0
H  H24  1  0.48927362  0.90714623  0.64346504  1  0.058765  0  0.104206  0.114019  0  1.016018  0
H  H25  1  0.01072330  0.59285134  0.14346582  1  0.058829  0  0.104182  0.113999  0  1.015966  0
H  H26  1  0.51072840  0.09285078  0.35653574  1  0.05876  0  0.104194  0.114008  0  1.016016  0
H  H27  1  0.98927108  0.40715061  0.85653185  1  0.05883  0  0.104212  0.114063  0  1.015911  0
H  H28  1  0.93192401  0.11695477  0.48841565  1  0.113034  0  0.095542  0.111281  0  1.045589  0
H  H29  1  0.56807475  0.38303920  0.98841020  1  0.112954  0  0.095506  0.111234  0  1.045565  0
H  H30  1  0.06807505  0.88304306  0.51158902  1  0.112937  0  0.09551  0.111223  0  1.045582  0
H  H31  1  0.43192500  0.61695533  0.01158746  1  0.112912  0  0.095524  0.111231  0  1.045595  0
H  H32  1  0.68848843  0.15780094  0.48496306  1  0.104896  0  0.106992  0.079415  0  1.011157  0
H  H33  1  0.81151025  0.34219221  0.98496072  1  0.105203  0  0.107033  0.079454  0  1.011108  0
H  H34  1  0.31151141  0.84219442  0.51504083  1  0.105202  0  0.107019  0.07944  0  1.011073  0
H  H35  1  0.18848864  0.65780397  0.01504161  1  0.105199  0  0.107017  0.079438  0  1.011042  0
H  H36  1  0.64589140  0.10443499  0.80197558  1  0.096524  0  0.102981  0.078235  0  1.027564  0
H  H37  1  0.85410167  0.39556310  0.30197247  1  0.09664  0  0.103021  0.078273  0  1.027568  0
H  H38  1  0.35410681  0.89556449  0.19802753  1  0.096583  0  0.103014  0.07826  0  1.027605  0
H  H39  1  0.14589076  0.60443967  0.69802676  1  0.096568  0  0.102977  0.078202  0  1.027598  0
H  H40  1  0.88712878  0.05846627  0.81934044  1  0.101723  0  0.090278  0.107379  0  1.050429  0
H  H41  1  0.61286672  0.44153594  0.31933421  1  0.101795  0  0.090279  0.107374  0  1.050405  0
H  H42  1  0.11287068  0.94153568  0.18066501  1  0.101796  0  0.09028  0.10737  0  1.050429  0
H  H43  1  0.38712782  0.55846765  0.68066190  1  0.101784  0  0.090271  0.107353  0  1.050408  0
C  C44  1  0.25785274  0.99655122  0.71379638  1  0.956085  0  0.202433  0.261451  0  4.014356  0
C  C45  1  0.24214536  0.50344799  0.21379560  1  0.955888  0  0.202437  0.261477  0  4.014394  0
C  C46  1  0.74214547  0.00344825  0.28620596  1  0.956069  0  0.202373  0.261338  0  4.014412  0
C  C47  1  0.75785277  0.49655066  0.78620285  1  0.956051  0  0.20245  0.261514  0  4.014308  0
C  C48  1  0.07288280  0.06027810  0.66244925  1  0.960993  0  0.205083  0.25948  0  3.983334  0
C  C49  1  0.42711655  0.43972411  0.16244303  1  0.961177  0  0.20517  0.259523  0  3.98314  0
C  C50  1  0.92711870  0.93972384  0.33755542  1  0.961144  0  0.205158  0.259585  0  3.983115  0
C  C51  1  0.57288182  0.56027702  0.83755308  1  0.9611  0  0.205124  0.259577  0  3.983114  0
C  C52  1  0.35739844  0.94105554  0.77363615  1  -0.051585  0  0.00463  0.062082  0  4.013707  0
C  C53  1  0.14260177  0.55894449  0.27363615  1  -0.05161  0  0.004624  0.062084  0  4.013774  0
C  C54  1  0.64260492  0.05894476  0.22636540  1  -0.051519  0  0.004612  0.062141  0  4.013579  0
C  C55  1  0.85739347  0.44105581  0.72636229  1  -0.051531  0  0.004535  0.061956  0  4.013732  0
C  C56  1  0.34281856  0.93029160  0.88187447  1  0.020008  0  -0.087652  -0.155202  0  3.943071  0
C  C57  1  0.15718352  0.56970679  0.38187369  1  0.01997  0  -0.087691  -0.155274  0  3.943077  0
C  C58  1  0.65718574  0.06970788  0.11812631  1  0.020016  0  -0.08764  -0.155247  0  3.94295  0
C  C59  1  0.84281586  0.43029433  0.61812320  1  0.020078  0  -0.087643  -0.155152  0  3.94296  0
C  C60  1  0.44333538  0.88350261  0.93825387  1  0.452047  0  0.030974  0.085634  0  3.95493  0
C  C61  1  0.05666974  0.61649578  0.43825543  1  0.452212  0  0.031075  0.08573  0  3.954677  0
C  C62  1  0.55667204  0.11649769  0.06174457  1  0.452191  0  0.031091  0.085784  0  3.954606  0
C  C63  1  0.94333073  0.38350616  0.56174302  1  0.451961  0  0.031166  0.085888  0  3.954743  0
C  C64  1  0.56809270  0.85502962  0.78924244  1  0.488672  0  0.030863  0.088315  0  3.927336  0
C  C65  1  0.93190647  0.64496795  0.28924710  1  0.488866  0  0.030877  0.088262  0  3.927435  0
C  C66  1  0.43191066  0.14497068  0.21075601  1  0.488669  0  0.030827  0.088316  0  3.92737  0
C  C67  1  0.06809214  0.35503565  0.71075212  1  0.48886  0  0.030901  0.088394  0  3.927515  0
C  C68  1  0.47279019  0.90163413  0.72716730  1  0.030864  0  -0.086504  -0.161885  0  3.954673  0
C  C69  1  0.02720783  0.59836426  0.22716808  1  0.030947  0  -0.086493  -0.161904  0  3.954548  0
C  C70  1  0.52721005  0.09836534  0.27283270  1  0.030836  0  -0.08648  -0.161902  0  3.954545  0
C  C71  1  0.97278952  0.40163687  0.77282959  1  0.031036  0  -0.086489  -0.161959  0  3.954566  0
C  C72  1  0.93027846  0.08263614  0.65452361  1  -0.006196  0  0.009288  0.067837  0  3.988126  0
C  C73  1  0.56972119  0.41736689  0.15451661  1  -0.006215  0  0.009256  0.067884  0  3.988027  0
C  C74  1  0.06972421  0.91736745  0.34548028  1  -0.006127  0  0.009242  0.067784  0  3.988163  0
C  C75  1  0.43027742  0.58263671  0.84547795  1  -0.006167  0  0.009258  0.067811  0  3.988044  0
C  C76  1  0.87205206  0.11169798  0.55979622  1  -0.008385  0  -0.084482  -0.143974  0  3.922351  0
C  C77  1  0.62795132  0.38830176  0.05979233  1  -0.00825  0  -0.084461  -0.143915  0  3.922338  0
C  C78  1  0.12795122  0.88830150  0.44020767  1  -0.008239  0  -0.084427  -0.143853  0  3.922367  0
C  C79  1  0.37204899  0.61169854  0.94020611  1  -0.008249  0  -0.084463  -0.143897  0  3.922333  0
C  C80  1  0.73651563  0.13482276  0.55736408  1  0.407163  0  0.034009  0.090777  0  3.92389  0
C  C81  1  0.76348321  0.36517204  0.05735942  1  0.406663  0  0.033947  0.090692  0  3.924009  0
C  C82  1  0.26348522  0.86517260  0.44263903  1  0.406701  0  0.033985  0.090729  0  3.923973  0
C  C83  1  0.23651483  0.63482579  0.94263981  1  0.406712  0  0.033986  0.090766  0  3.923903  0
C  C84  1  0.71262759  0.10415416  0.73433849  1  0.468422  0  0.031278  0.08752  0  3.938232  0
C  C85  1  0.78736751  0.39584393  0.23433383  1  0.46839  0  0.031299  0.087575  0  3.938224  0
C  C86  1  0.28737155  0.89584450  0.26566462  1  0.468259  0  0.031272  0.087556  0  3.938168  0
C  C87  1  0.21262663  0.60415554  0.76566617  1  0.468493  0  0.03132  0.087666  0  3.938156  0
C  C88  1  0.84664899  0.07842528  0.74323792  1  -0.040663  0  -0.087601  -0.153626  0  3.935466  0
C  C89  1  0.65334940  0.42157529  0.24323248  1  -0.040748  0  -0.087616  -0.153704  0  3.935365  0
C  C90  1  0.15335141  0.92157585  0.25676596  1  -0.040795  0  -0.087601  -0.153652  0  3.935456  0
C  C91  1  0.34664701  0.57842666  0.75676441  1  -0.040661  0  -0.087597  -0.153663  0  3.935512  0
I  I92  1  0.43569306  0.33289091  0.50568951  1  -0.383862  0  -0.16554  -0.307236  0  2.304151  0
I  I93  1  0.06430674  0.16710554  0.00568951  1  -0.383879  0  -0.165541  -0.307275  0  2.304168  0
I  I94  1  0.56430702  0.66710692  0.49430894  1  -0.38387  0  -0.165545  -0.307254  0  2.30417  0
I  I95  1  0.93569756  0.83289394  0.99431360  1  -0.383903  0  -0.165522  -0.307194  0  2.304095  0
I  I96  1  0.09998113  0.25176929  0.33360037  1  -0.466533  0  -0.201732  -0.400947  0  2.206637  0
I  I97  1  0.40001798  0.24823045  0.83360037  1  -0.466549  0  -0.201714  -0.400903  0  2.206597  0
I  I98  1  0.90002333  0.74823183  0.66640040  1  -0.466515  0  -0.201723  -0.4009  0  2.206627  0
I  I99  1  0.59997710  0.75176820  0.16639963  1  -0.466524  0  -0.201722  -0.400917  0  2.206639  0
N  N100  1  0.17408095  0.10924871  0.60376915  1  -0.723659  0  -0.282012  -0.199147  0  3.56191  0
N  N101  1  0.32591620  0.39075186  0.10376449  1  -0.723777  0  -0.28202  -0.199186  0  3.56181  0
N  N102  1  0.82591843  0.89075242  0.39623396  1  -0.723813  0  -0.282058  -0.199272  0  3.56183  0
N  N103  1  0.67408185  0.60924597  0.89623162  1  -0.723655  0  -0.282016  -0.199196  0  3.561792  0
N  N104  1  0.29211555  0.06872537  0.63666096  1  -0.724439  0  -0.29138  -0.206291  0  3.576103  0
N  N105  1  0.20788144  0.43127354  0.13665941  1  -0.724301  0  -0.291441  -0.206341  0  3.575999  0
N  N106  1  0.70788265  0.93127410  0.36333981  1  -0.724514  0  -0.291369  -0.206201  0  3.57604  0
N  N107  1  0.79211661  0.56872428  0.86333826  1  -0.724456  0  -0.291401  -0.20632  0  3.576042  0
N  N108  1  0.12206775  0.98956660  0.73293925  1  -1.202922  0  -0.382137  -0.344253  0  3.569933  0
N  N109  1  0.37793238  0.51043261  0.23293537  1  -1.2029  0  -0.382167  -0.344325  0  3.569977  0
N  N110  1  0.87793358  0.01043370  0.26706386  1  -1.202815  0  -0.382124  -0.344269  0  3.569839  0
N  N111  1  0.62206574  0.48956604  0.76706075  1  -1.202896  0  -0.38217  -0.344352  0  3.569864  0
N  N112  1  0.55529690  0.84621587  0.89381038  1  -1.225514  0  -0.369743  -0.212012  0  3.65793  0
N  N113  1  0.94470642  0.65378252  0.39381349  1  -1.225716  0  -0.369794  -0.212007  0  3.657961  0
N  N114  1  0.44471061  0.15378526  0.10618885  1  -1.22561  0  -0.369801  -0.212129  0  3.657835  0
N  N115  1  0.05529414  0.34622025  0.60618574  1  -1.225221  0  -0.369873  -0.212182  0  3.658165  0
N  N116  1  0.65628619  0.13173687  0.64289959  1  -1.209562  0  -0.373649  -0.206268  0  3.704292  0
N  N117  1  0.84371204  0.36826204  0.14289725  1  -1.209493  0  -0.373657  -0.206277  0  3.704365  0
N  N118  1  0.34371405  0.86826260  0.35710275  1  -1.209422  0  -0.373665  -0.206286  0  3.704369  0
N  N119  1  0.15628523  0.63173826  0.85710275  1  -1.209619  0  -0.373662  -0.206324  0  3.704333  0
