# generated using pymatgen
data_Zn2H14C33Br6N6O11
_symmetry_space_group_name_H-M   'P 1'
_cell_length_a   11.20518872
_cell_length_b   15.99997459
_cell_length_c   17.20179429
_cell_angle_alpha   83.98658735
_cell_angle_beta   90.40690537
_cell_angle_gamma   86.44748734
_symmetry_Int_Tables_number   1
_chemical_formula_structural   Zn2H14C33Br6N6O11
_chemical_formula_sum   'Zn2 H14 C33 Br6 N6 O11'
_cell_volume   3060.83423042
_cell_formula_units_Z   1
loop_
 _symmetry_equiv_pos_site_id
 _symmetry_equiv_pos_as_xyz
  1  'x, y, z'
loop_
 _atom_site_type_symbol
 _atom_site_label
 _atom_site_symmetry_multiplicity
 _atom_site_fract_x
 _atom_site_fract_y
 _atom_site_fract_z
 _atom_site_occupancy
 _atom_site_pbe_bader_charge
 _atom_site_pbe_bader_spin_density
 _atom_site_pbe_cm5_charge
 _atom_site_pbe_ddec_charge
 _atom_site_pbe_ddec_spin_density
 _atom_site_pbe_ddec_sum_bond_order
 _atom_site_pbe_magmom
Zn  Zn0  1  0.48195420  0.58736539  0.50591796  1  1.289063  0  0.665915  0.846524  0  2.36724  0
Zn  Zn1  1  0.49634056  0.40888112  0.50691244  1  1.289919  0  0.672991  0.829349  0  2.412984  0
H  H2  1  0.11536836  0.38974200  0.55358747  1  0.141746  0  0.113748  0.126122  0  0.984961  0
H  H3  1  0.39790476  0.57477322  0.89878074  1  0.110532  0  0.110382  0.111005  0  1.007008  0
H  H4  1  0.34845953  0.58839716  0.10143430  1  0.096956  0  0.114503  0.132542  0  0.988389  0
H  H5  1  0.12449400  0.62555166  0.41301992  1  0.087835  0  0.096122  0.040746  0  0.983282  0
H  H6  1  0.36847248  0.31719611  0.61458161  1  0.113765  0  0.115381  0.077229  0  1.002976  0
H  H7  1  0.69712167  0.38089185  0.68322298  1  0.083124  0  0.099634  0.049082  0  0.987984  0
H  H8  1  0.67447872  0.37554900  0.89851891  1  0.147344  0  0.116905  0.127265  0  0.989398  0
H  H9  1  0.62631467  0.71213084  0.43393250  1  0.179077  0  0.134452  0.128215  0  0.970163  0
H  H10  1  0.65837456  0.15145387  0.38196737  1  0.129067  0  0.129329  0.143207  0  0.959683  0
H  H11  1  0.63478513  0.30318076  0.41005655  1  0.128855  0  0.125204  0.101313  0  0.996531  0
H  H12  1  0.39217772  0.09689361  0.55804571  1  0.122547  0  0.122977  0.134894  0  1.004021  0
H  H13  1  0.35966930  0.89056467  0.58121512  1  0.128634  0  0.126761  0.151482  0  0.970799  0
H  H14  1  0.88669779  0.55716756  0.52816167  1  0.099078  0  0.114475  0.146308  0  0.971149  0
H  H15  1  0.37437539  0.57603061  0.75336657  1  0.105224  0  0.10142  0.10524  0  1.009914  0
C  C16  1  0.50739856  0.52041292  0.35479281  1  1.629028  0  0.204465  0.597939  0  4.224371  0
C  C17  1  0.51096024  0.47714527  0.74491977  1  -0.055364  0  -0.001156  -0.042193  0  3.902766  0
C  C18  1  0.59623101  0.41982960  0.78570416  1  -0.016774  0  -0.010706  0.009979  0  3.953577  0
C  C19  1  0.72090686  0.49622893  0.51624648  1  1.553708  0  0.204926  0.642662  0  4.183286  0
C  C20  1  0.60827262  0.41938965  0.86684180  1  -0.05526  0  -0.06142  -0.142269  0  3.877648  0
C  C21  1  0.44144153  0.22441922  0.53669849  1  0.481416  0  0.123954  0.180975  0  3.929382  0
C  C22  1  0.44929389  0.13978372  0.52480813  1  0.079342  0  -0.053718  -0.184872  0  3.863983  0
C  C23  1  0.52976378  0.11211571  0.46982935  1  0.264701  0  0.111853  0.205368  0  4.018782  0
C  C24  1  0.59691771  0.17087696  0.42640847  1  -0.056023  0  -0.053949  -0.161114  0  3.862704  0
C  C25  1  0.58423264  0.25479225  0.44194547  1  0.559452  0  0.069037  0.126439  0  3.878737  0
C  C26  1  0.58523570  0.84039746  0.45999187  1  -0.121526  0  -0.005224  -0.000349  0  3.908061  0
C  C27  1  0.62045534  0.49831418  0.23024494  1  -0.022659  0  -0.018871  0.044374  0  3.93117  0
C  C28  1  0.56790271  0.75441351  0.46455466  1  0.5803  0  0.063317  0.082095  0  3.858548  0
C  C29  1  0.50790042  0.89127980  0.50249731  1  0.41975  0  0.109936  0.176254  0  4.015199  0
C  C30  1  0.40453052  0.76712065  0.54507512  1  0.443291  0  0.121186  0.245646  0  3.980571  0
C  C31  1  0.49163835  0.48055728  0.65835085  1  1.589784  0  0.2176  0.595329  0  4.169286  0
C  C32  1  0.41812324  0.85257881  0.54668344  1  0.106986  0  -0.070605  -0.221314  0  3.915137  0
C  C33  1  0.25939672  0.49801834  0.49065258  1  1.591176  0  0.216115  0.605086  0  4.174097  0
C  C34  1  0.06428778  0.43920016  0.51624254  1  -0.064229  0  -0.057107  -0.082256  0  3.909958  0
C  C35  1  0.12675080  0.49915406  0.47621128  1  0.031957  0  -0.017982  -0.104354  0  3.878831  0
C  C36  1  0.93517815  0.43245656  0.51416362  1  -0.182078  0  0.001762  0.157294  0  3.951  0
C  C37  1  0.85264853  0.49609703  0.52043707  1  0.130394  0  -0.096007  -0.274771  0  3.868886  0
C  C38  1  0.62591730  0.49705355  0.14877048  1  -0.049891  0  -0.019324  0.000324  0  3.896293  0
C  C39  1  0.51611665  0.52725214  0.26674649  1  0.052794  0  -0.016431  -0.089597  0  3.927114  0
C  C40  1  0.07592830  0.56671054  0.41685751  1  0.934138  0  0.091376  0.288525  0  3.967214  0
C  C41  1  0.35626837  0.25377349  0.59675127  1  0.985659  0  0.11297  0.252769  0  3.877717  0
C  C42  1  0.68083057  0.36263045  0.74612423  1  0.954316  0  0.095282  0.274632  0  3.951955  0
C  C43  1  0.52398695  0.52754925  0.10271687  1  0.381484  0  0.086511  0.148643  0  4.034431  0
C  C44  1  0.42351481  0.56245783  0.13874859  1  0.082815  0  -0.088481  -0.195438  0  3.968803  0
C  C45  1  0.41893767  0.56057378  0.21937503  1  -0.066416  0  -0.014832  0.100706  0  3.973844  0
C  C46  1  0.45281865  0.53225559  0.86629993  1  -0.008053  0  -0.074458  -0.121679  0  3.93442  0
C  C47  1  0.43998625  0.53264724  0.78609060  1  -0.023234  0  -0.079346  -0.079309  0  3.976475  0
C  C48  1  0.53871390  0.47580818  0.90703943  1  0.3103  0  0.088988  0.16714  0  4.03826  0
Br  Br49  1  0.77044405  0.46142178  0.10278172  1  0.004252  0  0.031456  -0.046431  0  1.491316  0
Br  Br50  1  0.75583287  0.46340650  0.29533309  1  -9e-05  0  0.051639  -0.006016  0  1.565695  0
Br  Br51  1  0.71459297  0.88045228  0.40083291  1  0.025931  0  0.066063  -0.014243  0  1.366407  0
Br  Br52  1  0.27711202  0.71908857  0.60105258  1  0.031948  0  0.085951  -0.001567  0  1.398716  0
Br  Br53  1  0.90072654  0.31861015  0.50459854  1  -0.025508  0  0.042845  -0.037013  0  1.390737  0
Br  Br54  1  0.27571815  0.60278389  0.26405693  1  -0.043694  0  0.034361  -0.041439  0  1.416031  0
N  N55  1  0.50834714  0.53034552  0.02097893  1  -0.479648  0  -0.145322  -0.118845  0  3.295155  0
N  N56  1  0.56021314  0.47086633  0.98877599  1  -0.436703  0  -0.143345  -0.116789  0  3.285881  0
N  N57  1  0.50896387  0.28098534  0.49637036  1  -1.216355  0  -0.300935  -0.218103  0  3.447476  0
N  N58  1  0.53988184  0.02644670  0.45359005  1  -0.378728  0  -0.120379  -0.09826  0  3.198425  0
N  N59  1  0.51093146  0.97757657  0.51165981  1  -0.466962  0  -0.118984  -0.082838  0  3.268312  0
N  N60  1  0.47896448  0.71849799  0.50565857  1  -1.21711  0  -0.306283  -0.215288  0  3.463175  0
O  O61  1  0.51917647  0.58677099  0.38765313  1  -1.148109  0  -0.309689  -0.536061  0  2.316232  0
O  O62  1  0.27954734  0.20894746  0.62464226  1  -1.057567  0  -0.251121  -0.329588  0  2.079291  0
O  O63  1  0.73296677  0.29991601  0.78084421  1  -1.073995  0  -0.276139  -0.363622  0  2.083005  0
O  O64  1  0.48580723  0.44813314  0.38718009  1  -1.161859  0  -0.312553  -0.540424  0  2.314551  0
O  O65  1  0.66478696  0.56643117  0.52578691  1  -1.159602  0  -0.323747  -0.552273  0  2.259055  0
O  O66  1  0.67324126  0.42871532  0.50332313  1  -1.161956  0  -0.320421  -0.562494  0  2.416862  0
O  O67  1  0.46017061  0.55230737  0.62270053  1  -1.172292  0  -0.319989  -0.557641  0  2.375918  0
O  O68  1  0.50746884  0.41193087  0.62715939  1  -1.16377  0  -0.309821  -0.550743  0  2.35827  0
O  O69  1  0.30619563  0.56869301  0.48043797  1  -1.156132  0  -0.314133  -0.562218  0  2.391364  0
O  O70  1  0.31389815  0.42688538  0.51094902  1  -1.163844  0  -0.314539  -0.547258  0  2.351562  0
O  O71  1  0.99210805  0.55879126  0.37272175  1  -1.072256  0  -0.264771  -0.354033  0  2.145753  0
