# generated using pymatgen
data_MnH29C41N7O4
_symmetry_space_group_name_H-M   'P 1'
_cell_length_a   11.69365131
_cell_length_b   13.59693300
_cell_length_c   14.02691877
_cell_angle_alpha   111.93772562
_cell_angle_beta   108.13514287
_cell_angle_gamma   92.42636978
_symmetry_Int_Tables_number   1
_chemical_formula_structural   MnH29C41N7O4
_chemical_formula_sum   'Mn2 H58 C82 N14 O8'
_cell_volume   1933.90163434
_cell_formula_units_Z   2
loop_
 _symmetry_equiv_pos_site_id
 _symmetry_equiv_pos_as_xyz
  1  'x, y, z'
loop_
 _atom_site_type_symbol
 _atom_site_label
 _atom_site_symmetry_multiplicity
 _atom_site_fract_x
 _atom_site_fract_y
 _atom_site_fract_z
 _atom_site_occupancy
 _atom_site_pbe_bader_charge
 _atom_site_pbe_bader_spin_density
 _atom_site_pbe_cm5_charge
 _atom_site_pbe_ddec_charge
 _atom_site_pbe_ddec_spin_density
 _atom_site_pbe_ddec_sum_bond_order
 _atom_site_pbe_magmom
Mn  Mn0  1  0.78268099  0.04065194  0.67642638  1  1.453197  4.548511  0.592997  0.799353  4.6857  2.424414  4.45
Mn  Mn1  1  0.21731501  0.95934805  0.32358427  1  1.453034  4.548565  0.592987  0.799379  4.685735  2.42444  4.45
H  H2  1  0.73527856  0.99064170  0.01375586  1  0.093565  0.000143  0.098326  0.100602  -5.8e-05  1.037649  0.0
H  H3  1  0.26471371  0.00937262  0.98626341  1  0.093438  0.000144  0.098325  0.10064  -5.8e-05  1.037675  0.0
H  H4  1  0.45161212  0.87588166  0.11854001  1  0.049651  3.4e-05  0.096942  0.09732  -0.000165  1.031217  0.0
H  H5  1  0.54838323  0.12411438  0.88146330  1  0.049566  3.4e-05  0.096913  0.09729  -0.000165  1.031204  0.0
H  H6  1  0.42802523  0.58180351  0.60135624  1  0.042829  3.6e-05  0.105732  0.114182  1.8e-05  1.010318  0.0
H  H7  1  0.57197150  0.41819918  0.39863637  1  0.042818  3.6e-05  0.105725  0.114161  1.8e-05  1.010342  0.0
H  H8  1  0.22625828  0.26602383  0.36634972  1  0.096821  3.1e-05  0.104962  0.112599  -0.000263  1.03761  0.0
H  H9  1  0.77373219  0.73398431  0.63364753  1  0.097016  3e-05  0.104945  0.112547  -0.000264  1.037658  0.0
H  H10  1  0.56735596  0.49840621  0.70907704  1  0.07889  7.5e-05  0.099173  0.102163  5.6e-05  1.055999  0.0
H  H11  1  0.43264092  0.50159245  0.29091482  1  0.07955  7.5e-05  0.09913  0.102084  5.6e-05  1.056077  0.0
H  H12  1  0.26347534  0.26609051  0.08557100  1  0.118061  4.3e-05  0.105678  0.116065  2.5e-05  1.031856  0.0
H  H13  1  0.73652668  0.73392117  0.91442208  1  0.117736  4.3e-05  0.105654  0.116028  2.5e-05  1.031928  0.0
H  H14  1  0.03780604  0.51781073  0.28500330  1  0.081926  3.6e-05  0.102142  0.110158  4e-06  1.021219  0.0
H  H15  1  0.96220017  0.48219037  0.71500123  1  0.081943  3.6e-05  0.102157  0.110174  4e-06  1.021133  0.0
H  H16  1  0.21498853  0.67380782  0.40430972  1  0.09075  5.6e-05  0.107529  0.117853  -5.3e-05  1.004594  0.0
H  H17  1  0.78501934  0.32619251  0.59569496  1  0.090931  5.6e-05  0.107512  0.117845  -5.3e-05  1.004512  0.0
H  H18  1  0.12774864  0.81774058  0.51411810  1  0.166353  0.000221  0.108397  0.126438  -0.000178  1.053635  0.0
H  H19  1  0.87225504  0.18225647  0.48588353  1  0.166283  0.000221  0.108407  0.126441  -0.000178  1.053712  0.0
H  H20  1  0.34027924  0.34506173  0.28666252  1  0.08664  2.5e-05  0.106231  0.114683  1.3e-05  1.027518  0.0
H  H21  1  0.65972063  0.65494343  0.71333184  1  0.08657  2.5e-05  0.106234  0.114648  1.3e-05  1.027665  0.0
H  H22  1  0.43774467  0.74722971  0.94740082  1  0.048974  5.7e-05  0.096622  0.094153  2.3e-05  1.00938  0.0
H  H23  1  0.56225537  0.25275691  0.05259097  1  0.049173  5.7e-05  0.096599  0.09415  2.3e-05  1.00941  0.0
H  H24  1  0.94108761  0.86622965  0.54149902  1  0.171537  0.000478  0.144809  0.11524  3.6e-05  0.988146  0.0
H  H25  1  0.05891142  0.13376169  0.45849995  1  0.171269  0.000478  0.144818  0.115199  3.7e-05  0.988127  0.0
H  H26  1  0.96127652  0.43580393  0.08210318  1  0.069584  0.000116  0.103162  0.107116  6.1e-05  1.008532  0.0
H  H27  1  0.03871745  0.56420417  0.91790211  1  0.069502  0.000116  0.103087  0.106969  6.1e-05  1.008611  0.0
H  H28  1  0.15924040  0.47980961  0.57411760  1  0.066875  4.2e-05  0.107934  0.119135  1.9e-05  0.988998  0.0
H  H29  1  0.84078068  0.52019414  0.42589330  1  0.066834  4.2e-05  0.107976  0.119169  1.9e-05  0.988978  0.0
H  H30  1  0.08715007  0.79124838  0.81841667  1  0.110351  0.000832  0.125606  0.128656  0.000485  0.998558  0.0
H  H31  1  0.91285505  0.20875186  0.18159010  1  0.110181  0.000833  0.125594  0.128568  0.000485  0.998481  0.0
H  H32  1  0.06728510  0.62148564  0.68139219  1  0.075497  5.9e-05  0.102153  0.106022  4.4e-05  1.032421  0.0
H  H33  1  0.93272931  0.37851634  0.31861984  1  0.075383  5.9e-05  0.1022  0.106037  4.4e-05  1.03249  0.0
H  H34  1  0.36383947  0.18305470  0.47464776  1  0.162633  0.000341  0.11499  0.135282  -2.2e-05  1.050708  0.0
H  H35  1  0.63614448  0.81694214  0.52533997  1  0.16258  0.000341  0.11502  0.135363  -2.2e-05  1.050696  0.0
H  H36  1  0.52149572  0.92815879  0.31921954  1  0.081257  0.000274  0.102049  0.104654  -0.000455  1.043927  0.0
H  H37  1  0.47849952  0.07184616  0.68078206  1  0.081352  0.000274  0.102007  0.104619  -0.000455  1.043994  0.0
H  H38  1  0.55957405  0.13828141  0.53047974  1  0.195954  0.000287  0.149466  0.125931  -0.000333  0.979546  0.0
H  H39  1  0.44041105  0.86171151  0.46950113  1  0.195872  0.000287  0.149507  0.126023  -0.000333  0.979372  0.0
H  H40  1  0.93805593  0.15750877  0.93871738  1  0.173503  0.000592  0.137698  0.121512  0.000303  1.030228  0.0
H  H41  1  0.06195803  0.84249011  0.06128412  1  0.173395  0.000592  0.137707  0.121521  0.000302  1.030159  0.0
H  H42  1  0.36819506  0.71322014  0.74983790  1  0.052157  8e-06  0.089356  0.085964  -1.1e-05  1.038116  0.0
H  H43  1  0.63180673  0.28678098  0.25015904  1  0.052108  8e-06  0.089351  0.08594  -1.1e-05  1.038139  0.0
H  H44  1  0.82764847  0.91808609  0.13886146  1  0.055383  0.00012  0.093089  0.091245  -0.000158  1.0386  0.0
H  H45  1  0.17234914  0.08190824  0.86115180  1  0.055388  0.00012  0.093108  0.09123  -0.000158  1.038434  0.0
H  H46  1  0.60662535  0.41109552  0.82382296  1  0.125704  0.000901  0.122617  0.123288  0.000564  1.00472  0.0
H  H47  1  0.39337309  0.58890029  0.17614544  1  0.125178  0.000901  0.122725  0.123416  0.000563  1.004797  0.0
H  H48  1  0.93103081  0.93917823  0.85768542  1  0.114029  0.000618  0.12116  0.120249  0.000169  1.012479  0.0
H  H49  1  0.06896894  0.06082196  0.14231705  1  0.114131  0.000618  0.121151  0.120292  0.000169  1.012419  0.0
H  H50  1  0.48609080  0.81679097  0.68428609  1  0.075065  0.000436  0.099946  0.103031  8.2e-05  1.015314  0.0
H  H51  1  0.51391099  0.18322047  0.31572253  1  0.074956  0.000437  0.099947  0.10303  8.2e-05  1.015152  0.0
H  H52  1  0.89581402  0.96744420  0.33957637  1  0.093673  0.000214  0.101284  0.104518  -0.00024  1.037565  0.0
H  H53  1  0.10417608  0.03255808  0.66043499  1  0.093524  0.000214  0.101254  0.104524  -0.00024  1.037532  0.0
H  H54  1  0.14244844  0.39585278  0.89985938  1  0.085259  0.0011  0.120731  0.12035  0.00068  1.001728  0.0
H  H55  1  0.85754463  0.60416014  0.10014674  1  0.085341  0.0011  0.120792  0.120411  0.00068  1.001654  0.0
H  H56  1  0.75844242  0.26952476  0.87045436  1  0.101439  0.000778  0.116267  0.105509  0.000321  1.017957  0.0
H  H57  1  0.24156134  0.73047654  0.12953248  1  0.101466  0.000778  0.116244  0.105534  0.000321  1.018109  0.0
H  H58  1  0.99483855  0.23831930  0.69345296  1  0.131525  0.00056  0.120397  0.117085  0.000213  1.006666  0.0
H  H59  1  0.00517132  0.76169159  0.30655048  1  0.131382  0.00056  0.12039  0.117094  0.000213  1.006626  0.0
C  C60  1  0.59260709  0.87038916  0.99555426  1  -0.066096  -0.000339  -0.011013  0.064064  -0.000396  4.012705  0.0
C  C61  1  0.40738691  0.12960445  0.00444779  1  -0.066406  -0.000338  -0.011045  0.064062  -0.000395  4.012813  0.0
C  C62  1  0.09042568  0.72756131  0.60370740  1  0.281348  0.000837  0.091363  0.161517  0.000768  4.022248  0.001
C  C63  1  0.90958935  0.27243907  0.39630350  1  0.28164  0.000835  0.091441  0.161528  0.000767  4.022305  0.001
C  C64  1  0.47481964  0.33563094  0.59817895  1  0.270468  0.000808  0.088496  0.157089  0.000779  4.019724  0.001
C  C65  1  0.52518899  0.66436244  0.40180481  1  0.270363  0.000809  0.088575  0.157335  0.00078  4.019583  0.001
C  C66  1  0.65618789  0.92756456  0.95692201  1  -0.056005  0.002076  -0.084541  -0.145239  0.001483  3.936052  0.001
C  C67  1  0.34380304  0.07244667  0.04308577  1  -0.055598  0.002075  -0.084539  -0.145378  0.001482  3.936113  0.001
C  C68  1  0.63424120  0.89419130  0.11393334  1  -0.01588  0.002324  -0.009252  0.067318  0.001869  4.002242  0.001
C  C69  1  0.36575357  0.10579669  0.88606753  1  -0.01569  0.002324  -0.009219  0.067522  0.001869  4.002236  0.001
C  C70  1  0.54926297  0.89437713  0.16612225  1  -0.047215  -0.000489  -0.096038  -0.137035  -0.000636  3.985392  0.0
C  C71  1  0.45072527  0.10561956  0.83388154  1  -0.047775  -0.000489  -0.096003  -0.137082  -0.000636  3.985647  0.0
C  C72  1  0.19102503  0.56609718  0.48059828  1  0.270313  0.000795  0.088811  0.164211  0.000658  4.033238  0.001
C  C73  1  0.80897362  0.43390147  0.51939690  1  0.270239  0.000796  0.088792  0.164172  0.000658  4.033043  0.001
C  C74  1  0.71301004  0.95304639  0.34244185  1  -0.05988  -0.001107  -0.026261  -0.045444  -0.001994  4.00238  -0.002
C  C75  1  0.28698849  0.04694247  0.65756035  1  -0.059601  -0.001108  -0.026259  -0.045368  -0.001996  4.002233  -0.002
C  C76  1  0.19527266  0.43799824  0.30264155  1  0.358231  0.000758  0.101503  0.189512  0.000621  4.017828  0.001
C  C77  1  0.80473209  0.56201416  0.69736109  1  0.358377  0.000758  0.101404  0.189382  0.000622  4.017765  0.001
C  C78  1  0.41357021  0.49451831  0.57424415  1  -0.015837  0.000193  -0.094546  -0.156962  0.000149  4.012231  0.0
C  C79  1  0.58643355  0.50548366  0.42575292  1  -0.01566  0.000195  -0.094555  -0.157007  0.00015  4.012392  0.0
C  C80  1  0.30082153  0.31749040  0.44150074  1  0.024274  1.2e-05  -0.090565  -0.151636  -0.000126  3.973698  0.0
C  C81  1  0.69916680  0.68251122  0.55849779  1  0.024021  1.4e-05  -0.090467  -0.151354  -0.000124  3.973703  0.0
C  C82  1  0.49113256  0.44779909  0.63507904  1  0.010408  0.000484  -0.099077  -0.162504  0.000416  4.012885  0.0
C  C83  1  0.50887305  0.55219811  0.36491532  1  0.009625  0.000482  -0.099062  -0.162411  0.000415  4.01297  0.0
C  C84  1  0.21485693  0.32216637  0.12947991  1  -0.061703  0.000677  -0.088342  -0.140901  0.000483  3.997603  0.0
C  C85  1  0.78514177  0.67783784  0.87052235  1  -0.061449  0.000677  -0.088299  -0.140855  0.000484  3.997543  0.0
C  C86  1  0.08798044  0.46275353  0.24233218  1  0.042263  6.9e-05  -0.106395  -0.189746  2.8e-05  4.024115  0.0
C  C87  1  0.91202251  0.53725401  0.75766889  1  0.042088  6.8e-05  -0.106353  -0.189697  2.8e-05  4.024154  0.0
C  C88  1  0.61833642  0.90800570  0.84568188  1  -0.009302  0.000214  -0.019855  -0.028837  -0.000522  3.990126  0.0
C  C89  1  0.38166621  0.09200086  0.15433085  1  -0.009442  0.000215  -0.019834  -0.028811  -0.00052  3.989848  0.0
C  C90  1  0.31781582  0.42975350  0.47662300  1  0.288399  0.000523  0.08546  0.160362  0.00044  4.037475  0.0
C  C91  1  0.68218355  0.57024918  0.52337458  1  0.288516  0.000521  0.085447  0.160358  0.000438  4.037665  0.0
C  C92  1  0.18223467  0.66195018  0.46474567  1  -0.017111  -6.5e-05  -0.089041  -0.150688  -9.9e-05  3.973398  0.0
C  C93  1  0.81776247  0.33805005  0.53524969  1  -0.017193  -6.7e-05  -0.089009  -0.150567  -0.0001  3.973226  0.0
C  C94  1  0.68859591  0.97309314  0.80922987  1  1.568468  0.008162  0.200464  0.560309  0.009798  4.234162  0.007
C  C95  1  0.31140761  0.02691343  0.19078382  1  1.568861  0.00816  0.200706  0.560466  0.009795  4.23345  0.007
C  C96  1  0.13213647  0.74261325  0.52589090  1  -0.022867  0.000786  -0.089127  -0.158584  0.000532  3.956046  0.0
C  C97  1  0.86786462  0.25738453  0.47411245  1  -0.022744  0.000787  -0.08921  -0.158755  0.000533  3.956232  0.0
C  C98  1  0.25802154  0.36724789  0.24345865  1  0.010837  -8.1e-05  -0.097799  -0.171769  -0.000107  3.994365  0.0
C  C99  1  0.74197420  0.63275470  0.75653936  1  0.01092  -8.1e-05  -0.097806  -0.171769  -0.000107  3.994432  0.0
C  C100  1  0.48825661  0.79289593  0.91908517  1  -0.049797  0.0026  -0.091467  -0.128513  0.002068  3.976778  0.002
C  C101  1  0.51174169  0.20710106  0.08091286  1  -0.050025  0.002599  -0.091443  -0.128528  0.002067  3.976771  0.002
C  C102  1  0.95721973  0.86599907  0.62181693  1  0.964748  0.008355  0.15441  0.103723  0.007123  3.897956  0.006
C  C103  1  0.04278253  0.13400032  0.37818876  1  0.964325  0.008356  0.154367  0.103694  0.007123  3.898016  0.006
C  C104  1  0.04523046  0.41749589  0.12806629  1  -0.122073  0.000716  -0.094029  -0.153283  0.000522  4.051734  0.0
C  C105  1  0.95476785  0.58251079  0.87193179  1  -0.121857  0.000716  -0.093907  -0.153045  0.000523  4.051798  0.0
C  C106  1  0.15258394  0.55404413  0.56158826  1  -0.0088  0.000213  -0.092158  -0.155138  0.000157  4.01037  0.0
C  C107  1  0.84742650  0.44596027  0.43841720  1  -0.008491  0.000211  -0.092163  -0.15517  0.000156  4.010187  0.0
C  C108  1  0.03181697  0.82704460  0.76708054  1  0.260915  0.001472  -0.000109  -0.109805  0.000924  3.924861  0.001
C  C109  1  0.96818008  0.17294589  0.23291902  1  0.261344  0.001472  -7.7e-05  -0.109673  0.000924  3.924889  0.001
C  C110  1  0.10235896  0.63384450  0.62250485  1  0.012771  0.000578  -0.093118  -0.157829  0.000487  4.014286  0.0
C  C111  1  0.89766093  0.36615762  0.37750513  1  0.012505  0.000579  -0.093153  -0.157808  0.000488  4.014309  0.0
C  C112  1  0.37909868  0.27019418  0.50161223  1  -0.01902  0.000734  -0.085495  -0.149414  0.000349  3.959056  0.0
C  C113  1  0.62089561  0.72980522  0.49838135  1  -0.019013  0.000732  -0.085689  -0.149934  0.000347  3.959198  0.0
C  C114  1  0.58801752  0.92385810  0.27886680  1  0.07205  0.002913  -0.088045  -0.085989  0.001964  3.974617  0.002
C  C115  1  0.41197991  0.07614925  0.72113984  1  0.072202  0.002913  -0.088058  -0.086048  0.001965  3.974629  0.002
C  C116  1  0.59560542  0.19306071  0.61662695  1  0.933289  0.009257  0.15817  0.110188  0.007518  3.867117  0.007
C  C117  1  0.40439836  0.80692609  0.38335735  1  0.934027  0.009242  0.158168  0.110418  0.00751  3.866839  0.007
C  C118  1  0.10804881  0.34698224  0.07121316  1  0.317338  0.00096  0.070638  0.125266  0.000829  4.05714  0.001
C  C119  1  0.89195094  0.65302278  0.92878968  1  0.317303  0.000959  0.070528  0.125105  0.000829  4.057155  0.001
C  C120  1  0.97480362  0.19941237  0.89927918  1  0.978039  0.009688  0.142975  0.079537  0.008643  3.910525  0.007
C  C121  1  0.02519837  0.80058960  0.10071527  1  0.978147  0.009687  0.14299  0.079616  0.008641  3.910221  0.007
C  C122  1  0.44976259  0.77310135  0.80774199  1  -0.071191  -0.000483  -0.100779  -0.08883  -0.000546  4.041031  0.0
C  C123  1  0.55024053  0.22690218  0.19225762  1  -0.071097  -0.000482  -0.100726  -0.088763  -0.000545  4.040902  0.0
C  C124  1  0.75974871  0.92054899  0.17785747  1  -0.120464  -0.000518  -0.098829  -0.135876  -0.000707  3.983292  0.0
C  C125  1  0.24024967  0.07944390  0.82214477  1  -0.120167  -0.000518  -0.098875  -0.135945  -0.000707  3.983015  0.0
C  C126  1  0.62192050  0.33510640  0.77124619  1  0.269233  0.001235  -0.00586  -0.121087  0.000747  3.948268  0.001
C  C127  1  0.37807880  0.66488521  0.22873443  1  0.270473  0.001236  -0.005908  -0.121049  0.000748  3.948341  0.001
C  C128  1  0.75345510  0.99044918  0.46418727  1  1.512564  0.010489  0.197236  0.546971  0.012204  4.223204  0.008
C  C129  1  0.24654512  0.00953410  0.53581188  1  1.51253  0.010494  0.19735  0.547094  0.012208  4.223227  0.008
C  C130  1  0.95601470  0.90075956  0.78585675  1  0.433859  0.004053  0.004128  -0.029859  0.002807  3.9919  0.003
C  C131  1  0.04397722  0.09923727  0.21414309  1  0.433601  0.004053  0.004104  -0.030026  0.002807  3.992205  0.003
C  C132  1  0.51471928  0.83004601  0.77053333  1  -0.025252  0.002911  -0.088898  -0.097707  0.002112  3.97064  0.002
C  C133  1  0.48528316  0.16995906  0.22947096  1  -0.024953  0.00291  -0.088937  -0.097722  0.002112  3.970364  0.002
C  C134  1  0.79867506  0.94913516  0.29056875  1  0.004164  0.003063  -0.093103  -0.10129  0.002144  3.995122  0.002
C  C135  1  0.20131626  0.05085843  0.70943114  1  0.003928  0.003064  -0.093045  -0.101323  0.002144  3.995018  0.002
C  C136  1  0.07801167  0.32391782  0.87605386  1  0.354424  0.001602  -0.005205  -0.11733  0.000998  3.946848  0.001
C  C137  1  0.92198343  0.67609117  0.12394708  1  0.354805  0.001601  -0.005247  -0.117375  0.000997  3.946898  0.001
C  C138  1  0.69586072  0.26470479  0.79272557  1  0.429108  0.004668  0.000498  -0.028549  0.003305  4.030297  0.003
C  C139  1  0.30413788  0.73528767  0.20725161  1  0.428355  0.004663  0.00054  -0.028457  0.0033  4.030172  0.003
C  C140  1  0.00534312  0.24584535  0.77558733  1  0.36493  0.005822  0.00583  -0.023737  0.004223  4.003141  0.004
C  C141  1  0.99466148  0.75416141  0.22441460  1  0.3646  0.005822  0.005801  -0.02378  0.004223  4.003119  0.004
N  N142  1  0.05743734  0.29330962  0.95401381  1  -1.282299  0.004778  -0.233154  0.000343  0.002825  3.838492  0.003
N  N143  1  0.94255758  0.70669854  0.04598890  1  -1.282177  0.004777  -0.233131  0.00049  0.002824  3.83845  0.003
N  N144  1  0.03225476  0.80528160  0.66221497  1  -1.259538  0.003528  -0.226389  0.003825  0.002048  3.807679  0.002
N  N145  1  0.96774919  0.19471703  0.33778946  1  -1.259731  0.003528  -0.226401  0.004019  0.002048  3.807466  0.002
N  N146  1  0.55810259  0.28883551  0.65874393  1  -1.269155  0.004127  -0.223917  0.013255  0.002497  3.798392  0.002
N  N147  1  0.44189789  0.71114803  0.34123827  1  -1.269226  0.004124  -0.224024  0.01281  0.002495  3.798597  0.002
N  N148  1  0.23826134  0.48063190  0.41770243  1  -1.237361  0.000227  -0.251955  -0.148993  0.000111  3.662504  0.0
N  N149  1  0.76173562  0.51937234  0.58229509  1  -1.237301  0.000227  -0.251868  -0.148926  0.000111  3.662278  0.0
N  N150  1  0.67931288  0.17710166  0.69592625  1  -1.233701  0.052162  -0.336266  -0.279892  0.03535  3.50898  0.017
N  N151  1  0.32069639  0.82288532  0.30405388  1  -1.234261  0.052151  -0.336292  -0.280182  0.035355  3.508879  0.017
N  N152  1  0.90989847  0.92396360  0.69455418  1  -1.229073  0.050204  -0.334937  -0.278566  0.034238  3.502038  0.016
N  N153  1  0.09009506  0.07603240  0.30544934  1  -1.228481  0.050207  -0.334893  -0.278511  0.03424  3.501956  0.016
N  N154  1  0.94157702  0.16922765  0.79145926  1  -1.2754  0.051248  -0.341692  -0.279364  0.034065  3.549017  0.012
N  N155  1  0.05842748  0.83077351  0.20853842  1  -1.275482  0.051244  -0.341661  -0.279465  0.034064  3.549049  0.012
O  O156  1  0.67598271  0.96768843  0.50451929  1  -1.192016  0.06411  -0.322807  -0.544681  0.042666  2.260584  0.03
O  O157  1  0.32401507  0.03230123  0.49548229  1  -1.191853  0.06411  -0.322848  -0.544786  0.042667  2.260847  0.03
O  O158  1  0.86017191  0.04431543  0.52527392  1  -1.202506  0.037575  -0.319781  -0.55922  0.026853  2.138099  0.021
O  O159  1  0.13982821  0.95567742  0.47473376  1  -1.202543  0.037575  -0.319849  -0.559269  0.026853  2.138051  0.021
O  O160  1  0.77556543  0.04850572  0.88079751  1  -1.215667  0.023047  -0.336737  -0.590139  0.016514  2.138373  0.013
O  O161  1  0.22445066  0.95148098  0.11921214  1  -1.216524  0.023043  -0.337015  -0.590298  0.016514  2.137809  0.013
O  O162  1  0.65631321  0.94740679  0.70546895  1  -1.196335  0.065005  -0.320836  -0.543316  0.043925  2.287907  0.031
O  O163  1  0.34367723  0.05260199  0.29454064  1  -1.195935  0.064992  -0.320821  -0.54336  0.043924  2.288055  0.031
