# generated using pymatgen
data_CdH16C18(NO)4
_symmetry_space_group_name_H-M   'P 1'
_cell_length_a   8.30317315
_cell_length_b   10.66882629
_cell_length_c   11.44830795
_cell_angle_alpha   70.11828938
_cell_angle_beta   80.03994662
_cell_angle_gamma   66.85532066
_symmetry_Int_Tables_number   1
_chemical_formula_structural   CdH16C18(NO)4
_chemical_formula_sum   'Cd2 H32 C36 N8 O8'
_cell_volume   876.03868321
_cell_formula_units_Z   2
loop_
 _symmetry_equiv_pos_site_id
 _symmetry_equiv_pos_as_xyz
  1  'x, y, z'
loop_
 _atom_site_type_symbol
 _atom_site_label
 _atom_site_symmetry_multiplicity
 _atom_site_fract_x
 _atom_site_fract_y
 _atom_site_fract_z
 _atom_site_occupancy
 _atom_site_hle17_bader_spin_density
 _atom_site_hle17_ddec_charge
 _atom_site_hle17_ddec_spin_density
 _atom_site_hle17_ddec_sum_bond_order
 _atom_site_hle17_magmom
 _atom_site_hse06_10hf_bader_spin_density
 _atom_site_hse06_10hf_ddec_charge
 _atom_site_hse06_10hf_ddec_spin_density
 _atom_site_hse06_10hf_ddec_sum_bond_order
 _atom_site_hse06_10hf_magmom
 _atom_site_hse06_bader_spin_density
 _atom_site_hse06_ddec_charge
 _atom_site_hse06_ddec_spin_density
 _atom_site_hse06_ddec_sum_bond_order
 _atom_site_hse06_magmom
 _atom_site_pbe_bader_spin_density
 _atom_site_pbe_cm5_charge
 _atom_site_pbe_ddec_charge
 _atom_site_pbe_ddec_spin_density
 _atom_site_pbe_ddec_sum_bond_order
 _atom_site_pbe_magmom
Cd  Cd0  1  0.18845952  0.94517431  0.37937925  1  0  1.112823  0  1.687945  0  0  0.916985  0  2.133581  0  0  0.975873  0  2.082292  0  0  0.781863  0.875053  0  2.168489  0
Cd  Cd1  1  0.81153763  0.05482740  0.62062127  1  0  1.112838  0  1.687969  0  0  0.916995  0  2.133605  0  0  0.975882  0  2.082315  0  0  0.781865  0.875065  0  2.16851  0
H  H2  1  0.00805326  0.98115768  0.15212861  1  0  0.073225  0  0.965917  0  0  0.081517  0  1.033802  0  0  0.083764  0  1.031655  0  0  0.111284  0.079823  0  1.035442  0
H  H3  1  0.99194682  0.01884296  0.84787103  1  0  0.073246  0  0.965893  0  0  0.081542  0  1.03377  0  0  0.083789  0  1.031624  0  0  0.111299  0.079848  0  1.035409  0
H  H4  1  0.85366908  0.16455896  0.96318300  1  0  0.108033  0  0.959539  0  0  0.119783  0  1.018055  0  0  0.122685  0  1.017395  0  0  0.108002  0.11769  0  1.018631  0
H  H5  1  0.14633273  0.83544061  0.03681502  1  0  0.108045  0  0.959515  0  0  0.119797  0  1.018024  0  0  0.122699  0  1.017364  0  0  0.108005  0.117701  0  1.018606  0
H  H6  1  0.86777813  0.48686391  0.10471967  1  0  0.114124  0  0.954798  0  0  0.122641  0  1.018299  0  0  0.125264  0  1.01864  0  0  0.108255  0.120862  0  1.018088  0
H  H7  1  0.13222445  0.51313673  0.89527706  1  0  0.11412  0  0.95484  0  0  0.122637  0  1.018332  0  0  0.125253  0  1.018694  0  0  0.108265  0.120858  0  1.018121  0
H  H8  1  0.01931350  0.29116804  0.28698452  1  0  0.078358  0  0.952243  0  0  0.084853  0  1.022075  0  0  0.08705  0  1.019672  0  0  0.112805  0.083134  0  1.023963  0
H  H9  1  0.98068664  0.70883259  0.71301250  1  0  0.078375  0  0.952223  0  0  0.084866  0  1.022069  0  0  0.087065  0  1.019661  0  0  0.112795  0.083147  0  1.023957  0
H  H10  1  0.71249310  0.56068072  0.92402989  1  0  0.085928  0  0.980028  0  0  0.097744  0  1.051876  0  0  0.099765  0  1.050171  0  0  0.093727  0.096303  0  1.053073  0
H  H11  1  0.28750966  0.43931671  0.07596870  1  0  0.085848  0  0.980008  0  0  0.097688  0  1.051832  0  0  0.099708  0  1.050121  0  0  0.093725  0.096249  0  1.05303  0
H  H12  1  0.87161886  0.46925436  0.82914412  1  0  0.095118  0  0.939035  0  0  0.11452  0  0.998314  0  0  0.115143  0  0.998525  0  0  0.097965  0.114019  0  0.998319  0
H  H13  1  0.12838616  0.53074628  0.17085232  1  0  0.095035  0  0.938946  0  0  0.114443  0  0.99824  0  0  0.115061  0  0.998451  0  0  0.097971  0.113943  0  0.998246  0
H  H14  1  0.53349925  0.40701768  0.92591429  1  0  0.092618  0  0.925031  0  0  0.113467  0  0.981839  0  0  0.113691  0  0.982895  0  0  0.100623  0.113298  0  0.981093  0
H  H15  1  0.46650735  0.59297654  0.07408660  1  0  0.092638  0  0.925057  0  0  0.113458  0  0.981884  0  0  0.113697  0  0.982925  0  0  0.100604  0.113285  0  0.981149  0
H  H16  1  0.68899663  0.33691872  0.81855151  1  0  0.101123  0  0.932642  0  0  0.118241  0  0.992337  0  0  0.12011  0  0.990859  0  0  0.100504  0.116881  0  0.993378  0
H  H17  1  0.31100782  0.66307764  0.18144721  1  0  0.101109  0  0.932595  0  0  0.118213  0  0.992294  0  0  0.120081  0  0.99082  0  0  0.100515  0.1169  0  0.993275  0
H  H18  1  0.46882089  0.41555432  0.67418192  1  0  0.113547  0  0.954616  0  0  0.121803  0  1.017622  0  0  0.124628  0  1.017741  0  0  0.107306  0.120038  0  1.017266  0
H  H19  1  0.53118095  0.58444525  0.32581435  1  0  0.113508  0  0.954597  0  0  0.121774  0  1.017603  0  0  0.124598  0  1.017722  0  0  0.107283  0.120009  0  1.017249  0
H  H20  1  0.29587724  0.61652424  0.50117267  1  0  0.073894  0  0.960997  0  0  0.081491  0  1.028278  0  0  0.083058  0  1.027719  0  0  0.11213  0.080261  0  1.028779  0
H  H21  1  0.70412501  0.38347426  0.49882827  1  0  0.073907  0  0.961017  0  0  0.081507  0  1.028287  0  0  0.083078  0  1.027717  0  0  0.11214  0.080276  0  1.028794  0
H  H22  1  0.38419144  0.91512152  0.61243890  1  0  0.089973  0  0.952101  0  0  0.097747  0  1.016893  0  0  0.100708  0  1.013726  0  0  0.113903  0.095744  0  1.018911  0
H  H23  1  0.61580759  0.08487591  0.38756362  1  0  0.089959  0  0.952052  0  0  0.097724  0  1.016863  0  0  0.100684  0  1.013697  0  0  0.113903  0.095721  0  1.018884  0
H  H24  1  0.55564670  0.73094101  0.78737618  1  0  0.118855  0  0.955962  0  0  0.126871  0  1.01993  0  0  0.130171  0  1.018975  0  0  0.108299  0.124541  0  1.02065  0
H  H25  1  0.44435189  0.26905748  0.21262431  1  0  0.118865  0  0.955949  0  0  0.12686  0  1.01995  0  0  0.130159  0  1.018994  0  0  0.108295  0.124534  0  1.020666  0
H  H26  1  0.32390708  0.19610195  0.55883626  1  0  0.158162  0  0.936508  0  0  0.167597  0  0.99637  0  0  0.170916  0  0.994857  0  0  0.121777  0.165238  0  0.9975  0
H  H27  1  0.67609174  0.80389868  0.44116615  1  0  0.15821  0  0.936456  0  0  0.167636  0  0.996333  0  0  0.170961  0  0.994815  0  0  0.121793  0.165276  0  0.997464  0
H  H28  1  0.19480724  0.33035190  0.43464206  1  0  0.150525  0  0.920492  0  0  0.161679  0  0.978642  0  0  0.164181  0  0.978065  0  0  0.122023  0.159907  0  0.979188  0
H  H29  1  0.80518742  0.66964980  0.56536137  1  0  0.150547  0  0.920483  0  0  0.16169  0  0.978651  0  0  0.164194  0  0.978077  0  0  0.122026  0.15992  0  0.979194  0
H  H30  1  0.64670204  0.01555620  0.07821394  1  0  0.148666  0  0.910109  0  0  0.161395  0  0.967725  0  0  0.16406  0  0.966592  0  0  0.1241  0.159666  0  0.96839  0
H  H31  1  0.35330124  0.98444551  0.92178499  1  0  0.14869  0  0.910116  0  0  0.161414  0  0.967731  0  0  0.16408  0  0.966594  0  0  0.124111  0.15968  0  0.968394  0
H  H32  1  0.77743506  0.85969985  0.18723455  1  0  0.141137  0  0.921084  0  0  0.153783  0  0.979939  0  0  0.155957  0  0.979258  0  0  0.119297  0.152298  0  0.980419  0
H  H33  1  0.22255985  0.14029864  0.81276724  1  0  0.141138  0  0.921094  0  0  0.153774  0  0.979942  0  0  0.155946  0  0.979263  0  0  0.11929  0.152289  0  0.980416  0
C  C34  1  0.97523726  0.09498194  0.13639249  1  0  0.120757  0  3.748879  0  0  0.088254  0  4.002018  0  0  0.095651  0  4.022631  0  0  0.037461  0.083417  0  3.98802  0
C  C35  1  0.02476135  0.90501655  0.86360712  1  0  0.120717  0  3.748955  0  0  0.088203  0  4.002098  0  0  0.0956  0  4.022712  0  0  0.037443  0.083366  0  3.988096  0
C  C36  1  0.89018319  0.19766994  0.03173020  1  0  -0.18472  0  3.712261  0  0  -0.199936  0  3.955923  0  0  -0.209237  0  3.978789  0  0  -0.089612  -0.193898  0  3.940535  0
C  C37  1  0.10981786  0.80232856  0.96826912  1  0  -0.184701  0  3.712254  0  0  -0.199909  0  3.95591  0  0  -0.209209  0  3.978778  0  0  -0.089598  -0.193872  0  3.940523  0
C  C38  1  0.85153533  0.34277923  0.01561970  1  0  0.170027  0  3.69594  0  0  0.187108  0  3.929826  0  0  0.192873  0  3.951888  0  0  0.018268  0.183523  0  3.914719  0
C  C39  1  0.14846943  0.65721927  0.98437657  1  0  0.169978  0  3.696101  0  0  0.187046  0  3.92998  0  0  0.192806  0  3.952044  0  0  0.018233  0.183462  0  3.914873  0
C  C40  1  0.89813455  0.37607684  0.11013759  1  0  -0.162972  0  3.680844  0  0  -0.181341  0  3.930083  0  0  -0.190196  0  3.95215  0  0  -0.078245  -0.175752  0  3.915271  0
C  C41  1  0.10186925  0.62392379  0.88985899  1  0  -0.163064  0  3.681073  0  0  -0.181412  0  3.930303  0  0  -0.190271  0  3.952371  0  0  -0.078282  -0.175823  0  3.915489  0
C  C42  1  0.98276841  0.26736618  0.21233950  1  0  0.152131  0  3.702798  0  0  0.117356  0  3.960584  0  0  0.126402  0  3.978397  0  0  0.05065  0.111488  0  3.948483  0
C  C43  1  0.01722633  0.73263552  0.78765956  1  0  0.152216  0  3.702801  0  0  0.117416  0  3.960599  0  0  0.126464  0  3.978409  0  0  0.050711  0.111548  0  3.948496  0
C  C44  1  0.76721362  0.45904493  0.90203512  1  0  -0.175408  0  3.703744  0  0  -0.219478  0  3.949737  0  0  -0.221237  0  3.961427  0  0  -0.163734  -0.218151  0  3.941511  0
C  C45  1  0.23279163  0.54095250  0.09796055  1  0  -0.175165  0  3.703483  0  0  -0.219258  0  3.949472  0  0  -0.221001  0  3.96115  0  0  -0.163726  -0.21794  0  3.941269  0
C  C46  1  0.62958746  0.43206699  0.85084376  1  0  -0.156095  0  3.67896  0  0  -0.199113  0  3.927088  0  0  -0.200264  0  3.938044  0  0  -0.156719  -0.198124  0  3.919231  0
C  C47  1  0.37041776  0.56793044  0.14915367  1  0  -0.15615  0  3.678896  0  0  -0.199129  0  3.927049  0  0  -0.200297  0  3.938005  0  0  -0.15672  -0.198167  0  3.919191  0
C  C48  1  0.52920504  0.55424908  0.74601836  1  0  0.167409  0  3.691829  0  0  0.183224  0  3.926837  0  0  0.188864  0  3.948967  0  0  0.020561  0.179671  0  3.911687  0
C  C49  1  0.47079529  0.44574835  0.25397964  1  0  0.167493  0  3.69173  0  0  0.183268  0  3.926776  0  0  0.188907  0  3.948913  0  0  0.020576  0.179712  0  3.911641  0
C  C50  1  0.45324677  0.52530621  0.66269605  1  0  -0.173579  0  3.710016  0  0  -0.189951  0  3.957207  0  0  -0.198905  0  3.979361  0  0  -0.086317  -0.184215  0  3.942147  0
C  C51  1  0.54675088  0.47469442  0.33730300  1  0  -0.173575  0  3.709885  0  0  -0.189945  0  3.957105  0  0  -0.198899  0  3.97926  0  0  -0.086287  -0.18421  0  3.942049  0
C  C52  1  0.35707851  0.63617745  0.56667279  1  0  0.123912  0  3.742774  0  0  0.091999  0  3.995976  0  0  0.09949  0  4.016195  0  0  0.038978  0.087243  0  3.982244  0
C  C53  1  0.64292251  0.36382105  0.43332829  1  0  0.123927  0  3.74271  0  0  0.091993  0  3.995928  0  0  0.099486  0  4.016149  0  0  0.038978  0.087235  0  3.982196  0
C  C54  1  0.40418405  0.80347678  0.62862761  1  0  0.136887  0  3.707837  0  0  0.103583  0  3.963838  0  0  0.111884  0  3.981901  0  0  0.042758  0.098129  0  3.95137  0
C  C55  1  0.59581650  0.19652279  0.37137318  1  0  0.136916  0  3.707827  0  0  0.103611  0  3.963818  0  0  0.111913  0  3.981881  0  0  0.042732  0.098157  0  3.951352  0
C  C56  1  0.50198581  0.69795137  0.72734342  1  0  -0.178481  0  3.680797  0  0  -0.194052  0  3.925776  0  0  -0.203017  0  3.947635  0  0  -0.086893  -0.188243  0  3.911014  0
C  C57  1  0.49801449  0.30204606  0.27265633  1  0  -0.178516  0  3.680703  0  0  -0.194064  0  3.925709  0  0  -0.20303  0  3.947568  0  0  -0.086893  -0.188259  0  3.91095  0
C  C58  1  0.06598267  0.19255317  0.56314619  1  0  0.716272  0  3.87384  0  0  0.667238  0  4.173764  0  0  0.7011  0  4.16686  0  0  0.211505  0.644296  0  4.177377  0
C  C59  1  0.93401274  0.80744961  0.43685682  1  0  0.716406  0  3.873808  0  0  0.66733  0  4.173787  0  0  0.701197  0  4.166878  0  0  0.211534  0.644386  0  4.177402  0
C  C60  1  0.19115883  0.27490903  0.53481644  1  0  -0.343008  0  3.740242  0  0  -0.371372  0  3.967618  0  0  -0.378049  0  3.970799  0  0  -0.140023  -0.366757  0  3.965563  0
C  C61  1  0.80884045  0.72509054  0.46518712  1  0  -0.343082  0  3.740359  0  0  -0.37142  0  3.967749  0  0  -0.378111  0  3.970939  0  0  -0.140018  -0.366806  0  3.965693  0
C  C62  1  0.14096716  0.37707731  0.60364002  1  0  0.370274  0  3.69563  0  0  0.35454  0  3.978464  0  0  0.366872  0  3.993416  0  0  0.195696  0.345876  0  3.968863  0
C  C63  1  0.85903043  0.62292868  0.39636522  1  0  0.370178  0  3.695661  0  0  0.354436  0  3.9785  0  0  0.366775  0  3.993456  0  0  0.195586  0.345771  0  3.968899  0
C  C64  1  0.49510061  0.91718546  0.22606207  1  0  0.681242  0  3.914116  0  0  0.63636  0  4.212093  0  0  0.668556  0  4.208635  0  0  0.194389  0.614685  0  4.213609  0
C  C65  1  0.50489145  0.08281945  0.77393804  1  0  0.68126  0  3.914001  0  0  0.63638  0  4.21195  0  0  0.668574  0  4.208491  0  0  0.19432  0.6147  0  4.213465  0
C  C66  1  0.65757102  0.90626538  0.13497424  1  0  -0.322026  0  3.730329  0  0  -0.354078  0  3.961447  0  0  -0.359935  0  3.965697  0  0  -0.134057  -0.350198  0  3.958664  0
C  C67  1  0.34242522  0.09373846  0.86502397  1  0  -0.322023  0  3.730376  0  0  -0.354023  0  3.96141  0  0  -0.35988  0  3.965658  0  0  -0.134004  -0.350132  0  3.958609  0
C  C68  1  0.66998717  0.82312314  0.05444244  1  0  0.364819  0  3.700271  0  0  0.348747  0  3.987744  0  0  0.360374  0  4.003264  0  0  0.191364  0.34072  0  3.977566  0
C  C69  1  0.33001592  0.17688178  0.94555463  1  0  0.364765  0  3.700226  0  0  0.34867  0  3.987707  0  0  0.360296  0  4.003228  0  0  0.191366  0.340641  0  3.977528  0
N  N70  1  0.02199326  0.12862013  0.22537705  1  0  -0.345892  0  3.29288  0  0  -0.263861  0  3.557835  0  0  -0.286593  0  3.578541  0  0  -0.337135  -0.248417  0  3.543487  0
N  N71  1  0.97800318  0.87138050  0.77462214  1  0  -0.34589  0  3.292979  0  0  -0.263836  0  3.557923  0  0  -0.286568  0  3.578629  0  0  -0.337135  -0.248392  0  3.543572  0
N  N72  1  0.33320660  0.77367971  0.54890701  1  0  -0.355913  0  3.302944  0  0  -0.273751  0  3.569285  0  0  -0.29661  0  3.590166  0  0  -0.342347  -0.258158  0  3.554742  0
N  N73  1  0.66679320  0.22631879  0.45109421  1  0  -0.355957  0  3.302986  0  0  -0.273759  0  3.569301  0  0  -0.296616  0  3.590178  0  0  -0.342336  -0.258165  0  3.554759  0
N  N74  1  0.09826909  0.45811310  0.66051993  1  0  -0.438114  0  2.604481  0  0  -0.413241  0  2.832217  0  0  -0.424053  0  2.84396  0  0  -0.308158  -0.406011  0  2.824704  0
N  N75  1  0.90172731  0.54188753  0.33948102  1  0  -0.438036  0  2.604295  0  0  -0.413144  0  2.831995  0  0  -0.423962  0  2.843744  0  0  -0.308076  -0.405914  0  2.82448  0
N  N76  1  0.67232906  0.75762978  0.99047863  1  0  -0.431985  0  2.61388  0  0  -0.409049  0  2.845279  0  0  -0.419366  0  2.857057  0  0  -0.306139  -0.402184  0  2.837515  0
N  N77  1  0.32767260  0.24236445  0.00952545  1  0  -0.431925  0  2.613957  0  0  -0.408977  0  2.845347  0  0  -0.419293  0  2.857124  0  0  -0.306129  -0.402114  0  2.837585  0
O  O78  1  0.09043809  0.11089988  0.49791902  1  0  -0.678213  0  2.040325  0  0  -0.611271  0  2.310743  0  0  -0.641071  0  2.298142  0  0  -0.335347  -0.590173  0  2.318428  0
O  O79  1  0.90955808  0.88910396  0.50208270  1  0  -0.67834  0  2.040396  0  0  -0.611366  0  2.310818  0  0  -0.641167  0  2.298212  0  0  -0.335403  -0.590266  0  2.318503  0
O  O80  1  0.94787876  0.20940283  0.64846047  1  0  -0.630973  0  1.931057  0  0  -0.57272  0  2.164105  0  0  -0.598729  0  2.154583  0  0  -0.323222  -0.554355  0  2.169809  0
O  O81  1  0.05211741  0.79060102  0.35154124  1  0  -0.630956  0  1.931042  0  0  -0.572695  0  2.164118  0  0  -0.598704  0  2.154595  0  0  -0.323172  -0.554326  0  2.169817  0
O  O82  1  0.48004611  0.97988123  0.30575140  1  0  -0.642703  0  1.925384  0  0  -0.585423  0  2.156592  0  0  -0.612734  0  2.148812  0  0  -0.328728  -0.566291  0  2.160923  0
O  O83  1  0.51995566  0.02011834  0.69424925  1  0  -0.642708  0  1.925245  0  0  -0.58545  0  2.156473  0  0  -0.612759  0  2.148689  0  0  -0.32873  -0.56632  0  2.160806  0
O  O84  1  0.38806298  0.86405514  0.21547005  1  0  -0.639775  0  1.94086  0  0  -0.581901  0  2.17748  0  0  -0.609105  0  2.17008  0  0  -0.328834  -0.562891  0  2.181514  0
O  O85  1  0.61193494  0.13594763  0.78452918  1  0  -0.639823  0  1.940756  0  0  -0.581972  0  2.177413  0  0  -0.609176  0  2.170014  0  0  -0.32884  -0.56296  0  2.181442  0
