# generated using pymatgen
data_KNaH30Ru2(C2O)12
_symmetry_space_group_name_H-M   'P 1'
_cell_length_a   9.69581437
_cell_length_b   9.69582017
_cell_length_c   9.69581049
_cell_angle_alpha   62.16884682
_cell_angle_beta   62.16860056
_cell_angle_gamma   62.16853530
_symmetry_Int_Tables_number   1
_chemical_formula_structural   KNaH30Ru2(C2O)12
_chemical_formula_sum   'K1 Na1 H30 Ru2 C24 O12'
_cell_volume   675.74817662
_cell_formula_units_Z   1
loop_
 _symmetry_equiv_pos_site_id
 _symmetry_equiv_pos_as_xyz
  1  'x, y, z'
loop_
 _atom_site_type_symbol
 _atom_site_label
 _atom_site_symmetry_multiplicity
 _atom_site_fract_x
 _atom_site_fract_y
 _atom_site_fract_z
 _atom_site_occupancy
 _atom_site_pbe_bader_spin_density
 _atom_site_pbe_cm5_charge
 _atom_site_pbe_ddec_charge
 _atom_site_pbe_ddec_spin_density
 _atom_site_pbe_ddec_sum_bond_order
 _atom_site_pbe_magmom
K  K0  1  0.50000014  0.49998597  0.50001992  1  0  0.757385  0.855826  0  0.665867  0
Na  Na1  1  0.00000277  0.99999812  0.00000138  1  0  0.767405  0.849897  0  0.627463  0
H  H2  1  0.29802800  0.25431823  0.50659664  1  0  0.095812  0.139425  0  1.031843  0
H  H3  1  0.50660576  0.29801917  0.25431746  1  0  0.095815  0.13944  0  1.03178  0
H  H4  1  0.25431641  0.50659866  0.29802415  1  0  0.095782  0.139381  0  1.03185  0
H  H5  1  0.70196894  0.74569671  0.49339981  1  0  0.095799  0.139429  0  1.03183  0
H  H6  1  0.49339787  0.70197486  0.74568978  1  0  0.095823  0.139454  0  1.031825  0
H  H7  1  0.74568331  0.49340028  0.70197748  1  0  0.095793  0.139415  0  1.03179  0
H  H8  1  0.21314518  0.09110324  0.64986504  1  0  0.100982  0.156001  0  1.013983  0
H  H9  1  0.64987251  0.21313993  0.09110020  1  0  0.10098  0.156013  0  1.013977  0
H  H10  1  0.09110017  0.64987187  0.21314293  1  0  0.100987  0.156029  0  1.013932  0
H  H11  1  0.78685214  0.90891046  0.35012665  1  0  0.101033  0.156083  0  1.013847  0
H  H12  1  0.35012840  0.78685533  0.90890569  1  0  0.100985  0.156027  0  1.013982  0
H  H13  1  0.90889915  0.35012830  0.78685933  1  0  0.100989  0.156016  0  1.013982  0
H  H14  1  0.42264705  0.06206728  0.60584354  1  0  0.102907  0.159412  0  0.995603  0
H  H15  1  0.60584364  0.42264299  0.06206462  1  0  0.102879  0.159365  0  0.995564  0
H  H16  1  0.06206622  0.60584588  0.42264543  1  0  0.102877  0.159332  0  0.995677  0
H  H17  1  0.57734756  0.93794766  0.39415503  1  0  0.102927  0.159404  0  0.995594  0
H  H18  1  0.39415726  0.57735227  0.93794024  1  0  0.102904  0.159411  0  0.995633  0
H  H19  1  0.93793660  0.39415800  0.57735551  1  0  0.102875  0.159376  0  0.995551  0
H  H20  1  0.25005879  0.93305204  0.42685992  1  0  0.118011  0.140557  0  1.021675  0
H  H21  1  0.42686161  0.25005980  0.93305109  1  0  0.117997  0.140533  0  1.021695  0
H  H22  1  0.93305229  0.42686436  0.25005825  1  0  0.117987  0.140539  0  1.021663  0
H  H23  1  0.74994129  0.06695306  0.57313761  1  0  0.118008  0.14053  0  1.021679  0
H  H24  1  0.57313769  0.74994406  0.06694636  1  0  0.118007  0.14055  0  1.021649  0
H  H25  1  0.06694974  0.57314198  0.74993985  1  0  0.118038  0.140604  0  1.021623  0
H  H26  1  0.98069956  0.15665262  0.47516476  1  0  0.115337  0.133522  0  1.018223  0
H  H27  1  0.47516756  0.98070012  0.15664934  1  0  0.115326  0.133519  0  1.018273  0
H  H28  1  0.15665001  0.47516843  0.98070011  1  0  0.115349  0.133519  0  1.018267  0
H  H29  1  0.01930401  0.84335248  0.52483010  1  0  0.115342  0.133532  0  1.018202  0
H  H30  1  0.52483058  0.01930374  0.84334969  1  0  0.115353  0.133556  0  1.018245  0
H  H31  1  0.84334812  0.52483912  0.01929822  1  0  0.115339  0.133523  0  1.018235  0
Ru  Ru32  1  0.13776263  0.13776190  0.13775720  1  0  0.809568  0.807311  0  3.79494  0
Ru  Ru33  1  0.86223745  0.86224319  0.86223930  1  0  0.809547  0.807277  0  3.794869  0
C  C34  1  0.25500685  0.21354697  0.75984525  1  0  0.211609  0.674338  0  4.148745  0
C  C35  1  0.75985644  0.25500141  0.21353699  1  0  0.211676  0.674365  0  4.1487  0
C  C36  1  0.21355356  0.75984285  0.25500731  1  0  0.21151  0.67421  0  4.148934  0
C  C37  1  0.74498888  0.78647905  0.24014553  1  0  0.211676  0.674364  0  4.148525  0
C  C38  1  0.24014447  0.74499385  0.78647095  1  0  0.211662  0.674363  0  4.148597  0
C  C39  1  0.78646370  0.24014506  0.74499745  1  0  0.211655  0.674321  0  4.14872  0
C  C40  1  0.29827457  0.15206670  0.62188265  1  0  -0.240555  -0.523765  0  3.874691  0
C  C41  1  0.62189233  0.29826706  0.15206306  1  0  -0.24055  -0.523744  0  3.874615  0
C  C42  1  0.15206398  0.62188719  0.29827182  1  0  -0.240494  -0.523664  0  3.874698  0
C  C43  1  0.70172432  0.84794577  0.37810992  1  0  -0.24058  -0.523809  0  3.87468  0
C  C44  1  0.37811051  0.70172942  0.84793928  1  0  -0.240543  -0.523777  0  3.874728  0
C  C45  1  0.84793614  0.37811052  0.70173225  1  0  -0.240508  -0.523699  0  3.874604  0
C  C46  1  0.23417653  0.05465229  0.33447423  1  0  -0.124635  -0.101808  0  3.981377  0
C  C47  1  0.33447390  0.23417687  0.05465128  1  0  -0.124614  -0.101827  0  3.981342  0
C  C48  1  0.05465153  0.33447639  0.23417530  1  0  -0.124602  -0.101811  0  3.981313  0
C  C49  1  0.76582396  0.94534789  0.66552645  1  0  -0.12459  -0.101721  0  3.981383  0
C  C50  1  0.66552267  0.76582821  0.94534585  1  0  -0.124563  -0.101755  0  3.98107  0
C  C51  1  0.94534543  0.66553116  0.76582049  1  0  -0.124657  -0.101881  0  3.981515  0
C  C52  1  0.08113696  0.18121921  0.36246866  1  0  -0.140028  -0.153625  0  4.00033  0
C  C53  1  0.36247232  0.08113478  0.18121719  1  0  -0.139987  -0.153569  0  4.000277  0
C  C54  1  0.18121865  0.36247187  0.08113610  1  0  -0.139987  -0.153503  0  4.000332  0
C  C55  1  0.91886235  0.81878465  0.63752981  1  0  -0.139957  -0.153512  0  4.00045  0
C  C56  1  0.63753126  0.91886662  0.81877734  1  0  -0.140034  -0.153659  0  4.000366  0
C  C57  1  0.81878298  0.63753200  0.91886025  1  0  -0.140045  -0.153588  0  4.000095  0
O  O58  1  0.20650326  0.11231143  0.90661828  1  0  -0.391664  -0.593837  0  2.414371  0
O  O59  1  0.90662724  0.20650168  0.11230251  1  0  -0.39167  -0.593855  0  2.414515  0
O  O60  1  0.11231648  0.90662171  0.20649586  1  0  -0.391694  -0.593829  0  2.414148  0
O  O61  1  0.79348707  0.88770226  0.09337979  1  0  -0.39161  -0.593795  0  2.414578  0
O  O62  1  0.09337520  0.79349604  0.88770047  1  0  -0.391641  -0.593831  0  2.414531  0
O  O63  1  0.88769529  0.09337602  0.79350170  1  0  -0.391668  -0.593818  0  2.414511  0
O  O64  1  0.27032346  0.34629599  0.72931618  1  0  -0.37183  -0.583656  0  2.164783  0
O  O65  1  0.72932778  0.27032019  0.34629421  1  0  -0.371856  -0.583695  0  2.16456  0
O  O66  1  0.34629411  0.72931100  0.27032921  1  0  -0.371665  -0.583505  0  2.165052  0
O  O67  1  0.72967354  0.65370048  0.27068479  1  0  -0.371942  -0.583796  0  2.164123  0
O  O68  1  0.27067661  0.72967507  0.65370901  1  0  -0.371893  -0.583741  0  2.164466  0
O  O69  1  0.65370527  0.27067440  0.72967791  1  0  -0.371881  -0.583695  0  2.16457  0
