# generated using pymatgen
data_CoH9C11(NO)4
_symmetry_space_group_name_H-M   'P 1'
_cell_length_a   7.82789562
_cell_length_b   9.60469811
_cell_length_c   9.72901561
_cell_angle_alpha   117.37186559
_cell_angle_beta   96.36161776
_cell_angle_gamma   102.47717833
_symmetry_Int_Tables_number   1
_chemical_formula_structural   CoH9C11(NO)4
_chemical_formula_sum   'Co2 H18 C22 N8 O8'
_cell_volume   615.32802757
_cell_formula_units_Z   2
loop_
 _symmetry_equiv_pos_site_id
 _symmetry_equiv_pos_as_xyz
  1  'x, y, z'
loop_
 _atom_site_type_symbol
 _atom_site_label
 _atom_site_symmetry_multiplicity
 _atom_site_fract_x
 _atom_site_fract_y
 _atom_site_fract_z
 _atom_site_occupancy
 _atom_site_pbe_bader_charge
 _atom_site_pbe_bader_spin_density
 _atom_site_pbe_cm5_charge
 _atom_site_pbe_ddec_charge
 _atom_site_pbe_ddec_spin_density
 _atom_site_pbe_ddec_sum_bond_order
 _atom_site_pbe_magmom
Co  Co0  1  0.19909605  0.74141607  0.36260903  1  1.198823  2.565153  0.681334  0.819639  2.779132  2.511065  2.505
Co  Co1  1  0.80090342  0.25858349  0.63738925  1  1.198827  2.565152  0.681335  0.819645  2.779133  2.511031  2.505
H  H2  1  0.19360622  0.80350321  0.90706104  1  0.116536  0.000262  0.105563  0.11091  3e-05  1.03082  0.0
H  H3  1  0.80639319  0.19650004  0.09293890  1  0.116553  0.000262  0.105567  0.110901  3.1e-05  1.030831  0.0
H  H4  1  0.22114968  0.45852159  0.45465203  1  0.1767  0.000571  0.134575  0.101082  -2.2e-05  1.031028  0.001
H  H5  1  0.77885147  0.54147921  0.54535210  1  0.176742  0.000571  0.134564  0.101039  -2.2e-05  1.031068  0.001
H  H6  1  0.16770524  0.14000094  0.96403098  1  0.131054  0.000824  0.117365  0.111699  0.000266  1.032816  0.0
H  H7  1  0.83229247  0.86000108  0.03596825  1  0.131019  0.000824  0.117375  0.111711  0.000266  1.032834  0.0
H  H8  1  0.16097470  0.44814436  0.01282553  1  0.121272  0.000974  0.116782  0.113936  0.000242  1.026264  0.001
H  H9  1  0.83902552  0.55186136  0.98717868  1  0.121183  0.000974  0.116792  0.113952  0.000242  1.026261  0.001
H  H10  1  0.84570878  0.47900368  0.29184290  1  0.174766  0.001101  0.116694  0.118117  0.000301  1.052464  0.001
H  H11  1  0.15429278  0.52099835  0.70816183  1  0.174773  0.001101  0.116657  0.118051  0.000301  1.052506  0.001
H  H12  1  0.50956626  0.52524835  0.24383739  1  0.143469  0.000762  0.117592  0.110932  0.000203  1.065913  0.0
H  H13  1  0.49043536  0.47474998  0.75616362  1  0.143515  0.000762  0.117591  0.110943  0.000203  1.065893  0.0
H  H14  1  0.91930492  0.95229519  0.34659944  1  0.132645  0.000713  0.136001  0.09919  0.000199  1.022964  0.0
H  H15  1  0.08069285  0.04770314  0.65339711  1  0.132645  0.000713  0.135984  0.099169  0.000199  1.022957  0.0
H  H16  1  0.57518317  0.81293688  0.28492395  1  0.541685  0.000941  0.31762  0.28824  0.000435  0.97479  0.001
H  H17  1  0.42481635  0.18705899  0.71507267  1  0.541719  0.000941  0.317616  0.288239  0.000435  0.974747  0.001
H  H18  1  0.20850969  0.16775685  0.24326843  1  0.557211  0.000443  0.302383  0.278986  0.000227  1.010364  0.001
H  H19  1  0.79148592  0.83224271  0.75672950  1  0.557177  0.000443  0.302362  0.278937  0.000227  1.010439  0.001
C  C20  1  0.31776277  0.93440349  0.21964979  1  1.599181  0.002523  0.220857  0.597582  0.002098  4.197841  0.001
C  C21  1  0.68223758  0.06559484  0.78034802  1  1.599003  0.002524  0.22081  0.59751  0.002098  4.198005  0.001
C  C22  1  0.41874186  0.96937741  0.11003242  1  -0.072958  0.006914  -0.007365  -0.043298  0.003525  3.94515  0.005
C  C23  1  0.58126064  0.03061969  0.88996605  1  -0.072936  0.006914  -0.007367  -0.043385  0.003525  3.945295  0.005
C  C24  1  0.32899185  0.88974821  0.94938399  1  -0.012677  0.003396  -0.081588  -0.122814  0.001659  3.953034  0.002
C  C25  1  0.67100756  0.11025504  0.05061595  1  -0.012731  0.003395  -0.0816  -0.1228  0.001659  3.953103  0.002
C  C26  1  0.59285510  0.08128733  0.16138162  1  -0.014829  0.004516  -0.014707  -0.048942  0.002331  3.96126  0.003
C  C27  1  0.40714647  0.91871469  0.83861899  1  -0.014891  0.004516  -0.014778  -0.04899  0.002331  3.96125  0.003
C  C28  1  0.70060846  0.17122040  0.33067831  1  1.548339  0.002235  0.196095  0.540668  0.001763  4.237537  0.0
C  C29  1  0.29939182  0.82878162  0.66932218  1  1.548318  0.002235  0.196119  0.540725  0.001762  4.237421  0.0
C  C30  1  0.21001723  0.41665543  0.32909973  1  0.962525  0.002151  0.147088  0.164519  0.001125  3.913964  0.002
C  C31  1  0.78998223  0.58334413  0.67090164  1  0.962509  0.00215  0.147107  0.164626  0.001125  3.913915  0.002
C  C32  1  0.17832363  0.25221364  0.07180080  1  0.309572  0.004248  -0.003457  -0.057431  0.00211  3.960267  0.003
C  C33  1  0.82167449  0.74778962  0.92820109  1  0.309519  0.004248  -0.00349  -0.057474  0.00211  3.960262  0.003
C  C34  1  0.17397666  0.40441060  0.09706715  1  0.359953  0.002102  -0.01197  -0.053243  0.001169  3.99408  0.002
C  C35  1  0.82602444  0.59559389  0.90293659  1  0.360035  0.002103  -0.011927  -0.053183  0.001169  3.994112  0.002
C  C36  1  0.81065680  0.58317949  0.29409030  1  0.340798  0.003866  -0.007998  -0.048394  0.002079  3.987836  0.003
C  C37  1  0.18934565  0.41682130  0.70591087  1  0.340833  0.003866  -0.007984  -0.048344  0.002079  3.987838  0.003
C  C38  1  0.64437816  0.60507813  0.27234380  1  0.313148  0.002886  0.002824  -0.039086  0.001541  3.919914  0.002
C  C39  1  0.35562428  0.39492267  0.72765840  1  0.313069  0.002886  0.002773  -0.039126  0.00154  3.919898  0.002
C  C40  1  0.85452386  0.83015468  0.32532846  1  1.011369  0.007871  0.14808  0.151913  0.005122  3.93414  0.006
C  C41  1  0.14547648  0.16984365  0.67466832  1  1.011517  0.007872  0.148072  0.151919  0.005122  3.934174  0.006
N  N42  1  0.19466412  0.50667279  0.25909720  1  -1.228863  0.07316  -0.373459  -0.332718  0.037705  3.655225  0.049
N  N43  1  0.80533914  0.49333046  0.74090618  1  -1.228783  0.073158  -0.373495  -0.332825  0.037706  3.655325  0.049
N  N44  1  0.20164322  0.26303018  0.21927918  1  -1.278666  0.005297  -0.374967  -0.199025  0.002306  3.669266  0.004
N  N45  1  0.79835408  0.73697062  0.78072152  1  -1.278649  0.005297  -0.374968  -0.199025  0.002306  3.669276  0.004
N  N46  1  0.94117996  0.72463504  0.32652562  1  -1.216446  0.070709  -0.376744  -0.338195  0.036583  3.688292  0.042
N  N47  1  0.05882079  0.27536453  0.67347484  1  -1.216409  0.070709  -0.376713  -0.33819  0.036583  3.688252  0.042
N  N48  1  0.67514400  0.76090110  0.29302292  1  -1.300033  0.009181  -0.374629  -0.191802  0.004134  3.685634  0.006
N  N49  1  0.32485635  0.23909723  0.70697591  1  -1.300243  0.009181  -0.374556  -0.191755  0.004134  3.685578  0.006
O  O50  1  0.33302165  0.80894115  0.23158285  1  -1.152155  0.086507  -0.315602  -0.545513  0.04384  2.38525  0.065
O  O51  1  0.66698634  0.19106087  0.76842040  1  -1.152089  0.086507  -0.315605  -0.545478  0.043839  2.385229  0.065
O  O52  1  0.21615625  0.01749585  0.28191148  1  -1.172373  0.010729  -0.296444  -0.524334  0.004972  2.172138  0.008
O  O53  1  0.78383691  0.98249633  0.71808393  1  -1.172274  0.01073  -0.296356  -0.524198  0.004972  2.17221  0.008
O  O54  1  0.64300920  0.11738120  0.42306176  1  -1.128282  0.098043  -0.321584  -0.53567  0.049402  2.345902  0.074
O  O55  1  0.35699109  0.88262082  0.57693874  1  -1.128254  0.098041  -0.321596  -0.535691  0.049401  2.345869  0.074
O  O56  1  0.83921784  0.29041186  0.37802375  1  -1.161723  0.031923  -0.300321  -0.526921  0.015525  2.168557  0.026
O  O57  1  0.16078204  0.70958893  0.62197409  1  -1.16173  0.031923  -0.300309  -0.526929  0.015525  2.168528  0.026
