# generated using pymatgen
data_H16PbC22(NO3)2
_symmetry_space_group_name_H-M   'P 1'
_cell_length_a   7.96654365
_cell_length_b   11.69521257
_cell_length_c   12.04554283
_cell_angle_alpha   119.04273433
_cell_angle_beta   97.27527332
_cell_angle_gamma   89.99984612
_symmetry_Int_Tables_number   1
_chemical_formula_structural   H16PbC22(NO3)2
_chemical_formula_sum   'H32 Pb2 C44 N4 O12'
_cell_volume   970.82176491
_cell_formula_units_Z   2
loop_
 _symmetry_equiv_pos_site_id
 _symmetry_equiv_pos_as_xyz
  1  'x, y, z'
loop_
 _atom_site_type_symbol
 _atom_site_label
 _atom_site_symmetry_multiplicity
 _atom_site_fract_x
 _atom_site_fract_y
 _atom_site_fract_z
 _atom_site_occupancy
 _atom_site_hle17_bader_spin_density
 _atom_site_hle17_ddec_charge
 _atom_site_hle17_ddec_spin_density
 _atom_site_hle17_ddec_sum_bond_order
 _atom_site_hle17_magmom
 _atom_site_hse06_10hf_bader_spin_density
 _atom_site_hse06_10hf_ddec_charge
 _atom_site_hse06_10hf_ddec_spin_density
 _atom_site_hse06_10hf_ddec_sum_bond_order
 _atom_site_hse06_10hf_magmom
 _atom_site_hse06_bader_spin_density
 _atom_site_hse06_ddec_charge
 _atom_site_hse06_ddec_spin_density
 _atom_site_hse06_ddec_sum_bond_order
 _atom_site_hse06_magmom
 _atom_site_pbe_bader_spin_density
 _atom_site_pbe_cm5_charge
 _atom_site_pbe_ddec_charge
 _atom_site_pbe_ddec_spin_density
 _atom_site_pbe_ddec_sum_bond_order
 _atom_site_pbe_magmom
H  H0  1  0.41918500  0.38363604  0.31731748  1  0  0.07534  0  0.941795  0  0  0.088007  0  1.006919  0  0  0.088496  0  1.006859  0  0  0.103968  0.087712  0  1.007012  0
H  H1  1  0.08081415  0.06631593  0.68268154  1  0  0.075278  0  0.941782  0  0  0.087963  0  1.006934  0  0  0.088453  0  1.006874  0  0  0.103967  0.087667  0  1.007036  0
H  H2  1  0.58081568  0.61636578  0.68268051  1  0  0.075344  0  0.941766  0  0  0.088003  0  1.006895  0  0  0.088491  0  1.006833  0  0  0.103978  0.08771  0  1.006993  0
H  H3  1  0.91918515  0.93368489  0.31731918  1  0  0.075336  0  0.941723  0  0  0.087999  0  1.006883  0  0  0.088489  0  1.006821  0  0  0.103976  0.087712  0  1.006977  0
H  H4  1  0.56779530  0.29906980  0.37126242  1  0  0.090722  0  0.924702  0  0  0.103327  0  0.989109  0  0  0.104462  0  0.988217  0  0  0.112101  0.102544  0  0.98985  0
H  H5  1  0.93220546  0.92780757  0.62874012  1  0  0.09066  0  0.924721  0  0  0.103273  0  0.98916  0  0  0.104408  0  0.988273  0  0  0.11209  0.102494  0  0.989898  0
H  H6  1  0.43220516  0.70093003  0.62873875  1  0  0.090708  0  0.924745  0  0  0.103317  0  0.989149  0  0  0.104454  0  0.988255  0  0  0.112088  0.102537  0  0.98989  0
H  H7  1  0.06779112  0.07219130  0.37125860  1  0  0.09066  0  0.924786  0  0  0.10328  0  0.989201  0  0  0.104416  0  0.988309  0  0  0.112071  0.102505  0  0.989944  0
H  H8  1  0.62192468  0.52327275  0.47567776  1  0  0.087946  0  0.996151  0  0  0.097585  0  1.066833  0  0  0.100441  0  1.065397  0  0  0.096403  0.09552  0  1.067946  0
H  H9  1  0.87807757  0.04759629  0.52432320  1  0  0.087929  0  0.996168  0  0  0.097589  0  1.06682  0  0  0.100448  0  1.065379  0  0  0.096407  0.095528  0  1.067933  0
H  H10  1  0.37807305  0.47672512  0.52432307  1  0  0.088008  0  0.996146  0  0  0.097587  0  1.066897  0  0  0.100439  0  1.065471  0  0  0.096407  0.095523  0  1.06801  0
H  H11  1  0.12192290  0.95240355  0.47567631  1  0  0.087914  0  0.996205  0  0  0.097613  0  1.066819  0  0  0.100471  0  1.065378  0  0  0.096417  0.09555  0  1.067931  0
H  H12  1  0.84198534  0.70200273  0.61321717  1  0  0.105112  0  0.954311  0  0  0.113834  0  1.015291  0  0  0.117321  0  1.013591  0  0  0.102371  0.111265  0  1.016672  0
H  H13  1  0.65801811  0.08878679  0.38678433  1  0  0.105124  0  0.954326  0  0  0.113849  0  1.015299  0  0  0.117334  0  1.013606  0  0  0.102358  0.111285  0  1.016681  0
H  H14  1  0.15801891  0.29799708  0.38678515  1  0  0.105118  0  0.954313  0  0  0.11385  0  1.015276  0  0  0.117338  0  1.013576  0  0  0.102367  0.111278  0  1.016668  0
H  H15  1  0.34197993  0.91121404  0.61321627  1  0  0.105105  0  0.954336  0  0  0.113835  0  1.015308  0  0  0.117321  0  1.01361  0  0  0.102356  0.11127  0  1.016691  0
H  H16  1  0.10346584  0.72323533  0.53085471  1  0  0.104219  0  0.971236  0  0  0.110873  0  1.04153  0  0  0.114252  0  1.039964  0  0  0.098201  0.108423  0  1.042742  0
H  H17  1  0.39653752  0.19238233  0.46914587  1  0  0.104188  0  0.971273  0  0  0.110843  0  1.041571  0  0  0.114222  0  1.040006  0  0  0.098181  0.108389  0  1.042795  0
H  H18  1  0.89653581  0.27676353  0.46914444  1  0  0.104225  0  0.971231  0  0  0.110882  0  1.041519  0  0  0.114259  0  1.039957  0  0  0.098199  0.108429  0  1.042735  0
H  H19  1  0.60346449  0.80762043  0.53085683  1  0  0.104167  0  0.971199  0  0  0.110842  0  1.041479  0  0  0.114216  0  1.039925  0  0  0.098185  0.108391  0  1.042685  0
H  H20  1  0.27267287  0.63955468  0.34639759  1  0  0.086331  0  0.999567  0  0  0.095563  0  1.066686  0  0  0.097006  0  1.067931  0  0  0.09781  0.094484  0  1.065906  0
H  H21  1  0.22732791  0.29315810  0.65360216  1  0  0.086362  0  0.999524  0  0  0.095591  0  1.066646  0  0  0.097035  0  1.067891  0  0  0.097799  0.094515  0  1.065861  0
H  H22  1  0.72732878  0.36044419  0.65359990  1  0  0.086326  0  0.999595  0  0  0.095554  0  1.066712  0  0  0.096998  0  1.067957  0  0  0.097808  0.094475  0  1.065941  0
H  H23  1  0.77267410  0.70684466  0.34640137  1  0  0.086328  0  0.999533  0  0  0.09556  0  1.066655  0  0  0.097004  0  1.067899  0  0  0.097803  0.09448  0  1.065877  0
H  H24  1  0.30389353  0.46960731  0.12250284  1  0  0.101735  0  0.952488  0  0  0.113524  0  1.008955  0  0  0.11649  0  1.008485  0  0  0.105159  0.111413  0  1.009411  0
H  H25  1  0.19610483  0.34710222  0.87749564  1  0  0.101778  0  0.952442  0  0  0.113564  0  1.008905  0  0  0.11653  0  1.008437  0  0  0.105179  0.111456  0  1.009362  0
H  H26  1  0.69610822  0.53039254  0.87749513  1  0  0.101746  0  0.952485  0  0  0.113536  0  1.008949  0  0  0.116502  0  1.008479  0  0  0.105174  0.111427  0  1.009408  0
H  H27  1  0.80389817  0.65289761  0.12250492  1  0  0.101769  0  0.952461  0  0  0.113561  0  1.008919  0  0  0.116527  0  1.00845  0  0  0.105175  0.111453  0  1.009377  0
H  H28  1  0.08080946  0.28012784  0.00183984  1  0  0.078229  0  0.962464  0  0  0.081394  0  1.036063  0  0  0.084829  0  1.032418  0  0  0.111733  0.078881  0  1.038702  0
H  H29  1  0.41919127  0.27828777  0.99815683  1  0  0.078142  0  0.962507  0  0  0.081317  0  1.036113  0  0  0.084749  0  1.032465  0  0  0.111693  0.078806  0  1.038743  0
H  H30  1  0.91919217  0.71987101  0.99816096  1  0  0.078255  0  0.962448  0  0  0.081422  0  1.036051  0  0  0.084857  0  1.032402  0  0  0.111746  0.078905  0  1.038689  0
H  H31  1  0.58081048  0.72171208  0.00184114  1  0  0.078258  0  0.96244  0  0  0.081423  0  1.036043  0  0  0.084856  0  1.032395  0  0  0.111734  0.078908  0  1.038678  0
Pb  Pb32  1  0.25000021  0.90410610  0.99999829  1  0  1.340427  0  1.402522  0  0  1.125437  0  1.811763  0  0  1.1933  0  1.765176  0  0  0.640668  1.076512  0  1.84407  0
Pb  Pb33  1  0.74999646  0.09589156  0.99999571  1  0  1.340427  0  1.402542  0  0  1.125434  0  1.811789  0  0  1.193293  0  1.765208  0  0  0.640656  1.076511  0  1.844092  0
C  C34  1  0.41324091  0.17711051  0.18992995  1  0  0.662537  0  3.910928  0  0  0.61298  0  4.208182  0  0  0.646694  0  4.202868  0  0  0.207235  0.590119  0  4.210877  0
C  C35  1  0.08675718  0.98718263  0.81007044  1  0  0.662555  0  3.91085  0  0  0.613033  0  4.208105  0  0  0.646752  0  4.202785  0  0  0.207296  0.590183  0  4.210787  0
C  C36  1  0.58675441  0.82288837  0.81006784  1  0  0.662423  0  3.910863  0  0  0.612856  0  4.208147  0  0  0.646569  0  4.202829  0  0  0.207172  0.590009  0  4.210829  0
C  C37  1  0.91324317  0.01281620  0.18993274  1  0  0.662625  0  3.910836  0  0  0.613083  0  4.208099  0  0  0.646797  0  4.202772  0  0  0.207224  0.590247  0  4.210782  0
C  C38  1  0.51040702  0.30677654  0.28728635  1  0  -0.05654  0  3.61768  0  0  -0.115851  0  3.877955  0  0  -0.111205  0  3.877871  0  0  -0.064321  -0.119352  0  3.878161  0
C  C39  1  0.98959481  0.01949003  0.71271358  1  0  -0.056197  0  3.617563  0  0  -0.115599  0  3.878018  0  0  -0.110958  0  3.877945  0  0  -0.064231  -0.11911  0  3.878243  0
C  C40  1  0.48959219  0.69322330  0.71271306  1  0  -0.056473  0  3.617662  0  0  -0.115759  0  3.877951  0  0  -0.111106  0  3.877864  0  0  -0.064292  -0.119286  0  3.878188  0
C  C41  1  0.01040441  0.98050983  0.28728417  1  0  -0.056401  0  3.617676  0  0  -0.115774  0  3.878101  0  0  -0.111124  0  3.878018  0  0  -0.064293  -0.119316  0  3.878352  0
C  C42  1  0.75485535  0.43825817  0.31233269  1  0  0.211475  0  3.76951  0  0  0.198128  0  4.028312  0  0  0.208165  0  4.044083  0  0  0.092507  0.191053  0  4.017579  0
C  C43  1  0.74514858  0.12592461  0.68766708  1  0  0.211411  0  3.769672  0  0  0.198086  0  4.028495  0  0  0.208122  0  4.044265  0  0  0.092453  0.191013  0  4.017772  0
C  C44  1  0.24514885  0.56174070  0.68766337  1  0  0.211471  0  3.769521  0  0  0.198164  0  4.028302  0  0  0.208204  0  4.044072  0  0  0.092498  0.191094  0  4.017559  0
C  C45  1  0.25485470  0.87407815  0.31233574  1  0  0.211509  0  3.769549  0  0  0.198176  0  4.028389  0  0  0.208217  0  4.044158  0  0  0.092492  0.191113  0  4.017653  0
C  C46  1  0.73535167  0.52971537  0.43686098  1  0  -0.203341  0  3.779725  0  0  -0.228049  0  4.040347  0  0  -0.23412  0  4.061758  0  0  -0.112446  -0.223775  0  4.025813  0
C  C47  1  0.76465072  0.09285634  0.56314270  1  0  -0.203309  0  3.77977  0  0  -0.228015  0  4.040378  0  0  -0.234084  0  4.061788  0  0  -0.112423  -0.223743  0  4.025851  0
C  C48  1  0.26465006  0.47028445  0.56314030  1  0  -0.203395  0  3.779861  0  0  -0.228066  0  4.04047  0  0  -0.234138  0  4.061881  0  0  -0.112452  -0.223799  0  4.02594  0
C  C49  1  0.23535091  0.90714251  0.43685727  1  0  -0.203316  0  3.779818  0  0  -0.228059  0  4.040422  0  0  -0.234129  0  4.061832  0  0  -0.112418  -0.223787  0  4.025891  0
C  C50  1  0.86176746  0.63179319  0.51552212  1  0  -0.042246  0  3.783819  0  0  -0.057043  0  4.042651  0  0  -0.057648  0  4.063211  0  0  -0.090945  -0.056623  0  4.028736  0
C  C51  1  0.63823254  0.11627331  0.48448017  1  0  -0.042276  0  3.783841  0  0  -0.057073  0  4.04267  0  0  -0.057677  0  4.063229  0  0  -0.090931  -0.056655  0  4.028766  0
C  C52  1  0.13823076  0.36820959  0.48448026  1  0  -0.042189  0  3.783926  0  0  -0.056981  0  4.042738  0  0  -0.057585  0  4.0633  0  0  -0.090914  -0.056558  0  4.02882  0
C  C53  1  0.36176958  0.88373045  0.51552135  1  0  -0.042257  0  3.783916  0  0  -0.057062  0  4.042767  0  0  -0.057668  0  4.06333  0  0  -0.09097  -0.056651  0  4.028859  0
C  C54  1  0.00622826  0.64452082  0.46943532  1  0  -0.142568  0  3.758383  0  0  -0.167651  0  4.015277  0  0  -0.170634  0  4.03623  0  0  -0.103838  -0.165533  0  4.001143  0
C  C55  1  0.49377391  0.17508840  0.53056503  1  0  -0.142495  0  3.758329  0  0  -0.167588  0  4.015216  0  0  -0.170573  0  4.03617  0  0  -0.10379  -0.165463  0  4.001077  0
C  C56  1  0.99377455  0.35547705  0.53056346  1  0  -0.142593  0  3.758393  0  0  -0.167693  0  4.015298  0  0  -0.170677  0  4.036252  0  0  -0.103836  -0.165568  0  4.001161  0
C  C57  1  0.50622316  0.82491539  0.46943524  1  0  -0.142489  0  3.758348  0  0  -0.167618  0  4.015251  0  0  -0.1706  0  4.036201  0  0  -0.103786  -0.165487  0  4.001109  0
C  C58  1  0.03007013  0.55271997  0.34206949  1  0  0.025809  0  3.806451  0  0  0.047167  0  4.027543  0  0  0.044887  0  4.052141  0  0  -0.008459  0.048542  0  4.010967  0
C  C59  1  0.46993151  0.21065192  0.65793473  1  0  0.025848  0  3.806383  0  0  0.047245  0  4.027464  0  0  0.044965  0  4.052062  0  0  -0.008472  0.048623  0  4.010888  0
C  C60  1  0.96992915  0.44728084  0.65793370  1  0  0.025781  0  3.806477  0  0  0.047179  0  4.027542  0  0  0.044901  0  4.052141  0  0  -0.008433  0.04856  0  4.010957  0
C  C61  1  0.53006906  0.78934890  0.34206526  1  0  0.025774  0  3.806546  0  0  0.047226  0  4.027551  0  0  0.044947  0  4.052146  0  0  -0.008463  0.048598  0  4.010979  0
C  C62  1  0.17559109  0.55970484  0.28854214  1  0  -0.056055  0  3.713089  0  0  -0.07854  0  3.955846  0  0  -0.076067  0  3.974259  0  0  -0.073144  -0.079969  0  3.943325  0
C  C63  1  0.32440593  0.27116267  0.71146031  1  0  -0.056194  0  3.713204  0  0  -0.078692  0  3.955953  0  0  -0.076218  0  3.974367  0  0  -0.07318  -0.080124  0  3.94343  0
C  C64  1  0.82440431  0.44029501  0.71145860  1  0  -0.056057  0  3.713138  0  0  -0.078539  0  3.955887  0  0  -0.076067  0  3.974299  0  0  -0.073171  -0.079977  0  3.943379  0
C  C65  1  0.67559336  0.72883814  0.28854206  1  0  -0.056073  0  3.713113  0  0  -0.078589  0  3.95586  0  0  -0.076117  0  3.974275  0  0  -0.073178  -0.080015  0  3.943339  0
C  C66  1  0.19317809  0.46540072  0.16545935  1  0  -0.13179  0  3.754967  0  0  -0.14413  0  4.007579  0  0  -0.150252  0  4.026889  0  0  -0.093579  -0.140224  0  3.994586  0
C  C67  1  0.30682610  0.29994173  0.83454154  1  0  -0.131842  0  3.755043  0  0  -0.144166  0  4.007635  0  0  -0.150289  0  4.026944  0  0  -0.093602  -0.140264  0  3.994645  0
C  C68  1  0.80682238  0.53459912  0.83454016  1  0  -0.131794  0  3.754989  0  0  -0.144145  0  4.007616  0  0  -0.150265  0  4.026924  0  0  -0.09359  -0.140243  0  3.994629  0
C  C69  1  0.69317845  0.70006102  0.16546138  1  0  -0.13184  0  3.755039  0  0  -0.144185  0  4.007658  0  0  -0.150308  0  4.026967  0  0  -0.093598  -0.140285  0  3.994669  0
C  C70  1  0.06692469  0.36101860  0.09651061  1  0  0.135623  0  3.724984  0  0  0.104747  0  3.986313  0  0  0.113352  0  4.001081  0  0  0.049865  0.099125  0  3.976192  0
C  C71  1  0.43307786  0.26450478  0.90348605  1  0  0.1357  0  3.725147  0  0  0.104801  0  3.986481  0  0  0.113412  0  4.001239  0  0  0.049859  0.099185  0  3.976347  0
C  C72  1  0.93307327  0.63898127  0.90348539  1  0  0.135498  0  3.725011  0  0  0.104615  0  3.986366  0  0  0.113225  0  4.001126  0  0  0.049761  0.099005  0  3.976231  0
C  C73  1  0.56692739  0.73549211  0.09651164  1  0  0.135577  0  3.724879  0  0  0.104694  0  3.986224  0  0  0.113305  0  4.000985  0  0  0.04984  0.099079  0  3.976091  0
C  C74  1  0.90560044  0.44625204  0.26219247  1  0  0.108715  0  3.759651  0  0  0.106154  0  3.993934  0  0  0.108962  0  4.016029  0  0  0.107924  0.104275  0  3.979093  0
C  C75  1  0.59440030  0.18406014  0.73780818  1  0  0.108678  0  3.75971  0  0  0.106071  0  3.994045  0  0  0.108881  0  4.016138  0  0  0.107939  0.104193  0  3.97921  0
C  C76  1  0.09440149  0.55374976  0.73780810  1  0  0.108723  0  3.759858  0  0  0.106111  0  3.994172  0  0  0.108918  0  4.016267  0  0  0.107915  0.104233  0  3.979319  0
C  C77  1  0.40559628  0.81593873  0.26219054  1  0  0.108788  0  3.759787  0  0  0.106175  0  3.994092  0  0  0.108984  0  4.016182  0  0  0.10797  0.104283  0  3.979268  0
N  N78  1  0.92798991  0.35134448  0.14241689  1  0  -0.355613  0  3.154221  0  0  -0.303007  0  3.413295  0  0  -0.319066  0  3.431123  0  0  -0.298499  -0.29195  0  3.401015  0
N  N79  1  0.57201097  0.20892969  0.85758445  1  0  -0.355508  0  3.154347  0  0  -0.30288  0  3.413417  0  0  -0.318935  0  3.43124  0  0  -0.298422  -0.291823  0  3.401134  0
N  N80  1  0.07201398  0.64865142  0.85758105  1  0  -0.355474  0  3.154325  0  0  -0.302848  0  3.413399  0  0  -0.318905  0  3.431224  0  0  -0.298398  -0.291795  0  3.401111  0
N  N81  1  0.42798473  0.79107311  0.14241606  1  0  -0.355573  0  3.154075  0  0  -0.302949  0  3.413157  0  0  -0.319006  0  3.430979  0  0  -0.298459  -0.291887  0  3.400873  0
O  O82  1  0.43989639  0.12341953  0.07372514  1  0  -0.661634  0  2.042355  0  0  -0.584484  0  2.277571  0  0  -0.617609  0  2.272567  0  0  -0.288877  -0.561103  0  2.280021  0
O  O83  1  0.06010586  0.04969449  0.92627739  1  0  -0.661662  0  2.042256  0  0  -0.584533  0  2.277487  0  0  -0.617644  0  2.272453  0  0  -0.28892  -0.56116  0  2.279939  0
O  O84  1  0.56010933  0.87658226  0.92627575  1  0  -0.661601  0  2.042306  0  0  -0.584447  0  2.277522  0  0  -0.617571  0  2.27252  0  0  -0.288872  -0.561066  0  2.279956  0
O  O85  1  0.93989342  0.95030632  0.07372497  1  0  -0.661719  0  2.042298  0  0  -0.584537  0  2.277453  0  0  -0.61768  0  2.272489  0  0  -0.288881  -0.561162  0  2.279898  0
O  O86  1  0.30895851  0.13193152  0.23218414  1  0  -0.629129  0  1.899881  0  0  -0.569916  0  2.120497  0  0  -0.598431  0  2.11461  0  0  -0.311391  -0.549832  0  2.123787  0
O  O87  1  0.19104202  0.89975043  0.76781893  1  0  -0.629203  0  1.899947  0  0  -0.569963  0  2.120531  0  0  -0.598481  0  2.114638  0  0  -0.311435  -0.549882  0  2.123808  0
O  O88  1  0.69103844  0.86807127  0.76781813  1  0  -0.629108  0  1.899888  0  0  -0.569876  0  2.120495  0  0  -0.598392  0  2.114606  0  0  -0.311377  -0.549796  0  2.123772  0
O  O89  1  0.80895310  0.10024648  0.23217955  1  0  -0.629217  0  1.899819  0  0  -0.569984  0  2.120406  0  0  -0.598498  0  2.114513  0  0  -0.311423  -0.549905  0  2.123684  0
O  O90  1  0.63933065  0.33714320  0.23116894  1  0  -0.265097  0  2.420292  0  0  -0.18734  0  2.650653  0  0  -0.206984  0  2.655538  0  0  -0.16012  -0.173261  0  2.646775  0
O  O91  1  0.86067164  0.10597314  0.76883021  1  0  -0.265163  0  2.420448  0  0  -0.187431  0  2.650886  0  0  -0.207083  0  2.65578  0  0  -0.160132  -0.173356  0  2.647022  0
O  O92  1  0.36067001  0.66285860  0.76883235  1  0  -0.265134  0  2.420304  0  0  -0.187424  0  2.650685  0  0  -0.207078  0  2.655577  0  0  -0.160117  -0.173344  0  2.646815  0
O  O93  1  0.13932876  0.89402574  0.23116635  1  0  -0.265166  0  2.420184  0  0  -0.187441  0  2.650605  0  0  -0.207096  0  2.6555  0  0  -0.160101  -0.173359  0  2.646744  0
