# generated using pymatgen
data_FeNiH6C12(N4F)2
_symmetry_space_group_name_H-M   'P 1'
_cell_length_a   6.85230710
_cell_length_b   6.93791820
_cell_length_c   15.04752603
_cell_angle_alpha   90.00167292
_cell_angle_beta   89.92459748
_cell_angle_gamma   90.00011187
_symmetry_Int_Tables_number   1
_chemical_formula_structural   FeNiH6C12(N4F)2
_chemical_formula_sum   'Fe2 Ni2 H12 C24 N16 F4'
_cell_volume   715.36999529
_cell_formula_units_Z   2
loop_
 _symmetry_equiv_pos_site_id
 _symmetry_equiv_pos_as_xyz
  1  'x, y, z'
loop_
 _atom_site_type_symbol
 _atom_site_label
 _atom_site_symmetry_multiplicity
 _atom_site_fract_x
 _atom_site_fract_y
 _atom_site_fract_z
 _atom_site_occupancy
 _atom_site_hle17_bader_spin_density
 _atom_site_hle17_ddec_charge
 _atom_site_hle17_ddec_spin_density
 _atom_site_hle17_ddec_sum_bond_order
 _atom_site_hle17_magmom
 _atom_site_hse06_10hf_bader_spin_density
 _atom_site_hse06_10hf_ddec_charge
 _atom_site_hse06_10hf_ddec_spin_density
 _atom_site_hse06_10hf_ddec_sum_bond_order
 _atom_site_hse06_10hf_magmom
 _atom_site_hse06_bader_spin_density
 _atom_site_hse06_ddec_charge
 _atom_site_hse06_ddec_spin_density
 _atom_site_hse06_ddec_sum_bond_order
 _atom_site_hse06_magmom
 _atom_site_pbe_bader_spin_density
 _atom_site_pbe_cm5_charge
 _atom_site_pbe_ddec_charge
 _atom_site_pbe_ddec_spin_density
 _atom_site_pbe_ddec_sum_bond_order
 _atom_site_pbe_magmom
Fe  Fe0  1  0.01259478  0.99998804  0.51148747  1  0  0.642941  0  3.171584  0  0  0.609003  0  3.667505  0  0  0.651616  0  3.608481  0  0  0.814831  0.5867  0  3.700619  0
Fe  Fe1  1  0.01307463  0.50000203  0.98850643  1  0  0.642154  0  3.17205  0  0  0.607582  0  3.668175  0  0  0.650148  0  3.60909  0  0  0.814671  0.585346  0  3.701286  0
Ni  Ni2  1  0.51064364  0.49998443  0.50193598  1  0  0.169352  0  3.352751  0  0  0.149862  0  3.871793  0  0  0.165566  0  3.806143  0  0  0.394077  0.14639  0  3.914875  0
Ni  Ni3  1  0.51107908  0.00000619  0.99814550  1  0  0.170431  0  3.350177  0  0  0.150887  0  3.869159  0  0  0.16661  0  3.803809  0  0  0.394062  0.147767  0  3.911838  0
H  H4  1  0.59694777  0.99999743  0.39436966  1  0  0.132449  0  0.918515  0  0  0.138384  0  0.979283  0  0  0.139546  0  0.980298  0  0  0.133999  0.137726  0  0.978675  0
H  H5  1  0.40165429  0.49999447  0.89831391  1  0  0.14022  0  0.925326  0  0  0.145095  0  0.984735  0  0  0.147638  0  0.983592  0  0  0.136839  0.143331  0  0.985792  0
H  H6  1  0.40077106  0.99998871  0.60177860  1  0  0.140063  0  0.925671  0  0  0.144868  0  0.985099  0  0  0.147405  0  0.983936  0  0  0.136792  0.143114  0  0.986167  0
H  H7  1  0.59680413  0.50002190  0.10559367  1  0  0.132709  0  0.918487  0  0  0.138541  0  0.979472  0  0  0.139674  0  0.980455  0  0  0.13381  0.137907  0  0.978892  0
H  H8  1  0.17130252  0.99998514  0.30395518  1  0  0.104746  0  0.958961  0  0  0.106175  0  1.029233  0  0  0.108858  0  1.026689  0  0  0.119013  0.104309  0  1.031237  0
H  H9  1  0.82038359  0.50003328  0.81389710  1  0  0.111274  0  0.959639  0  0  0.110851  0  1.032111  0  0  0.113965  0  1.028432  0  0  0.122761  0.108671  0  1.03494  0
H  H10  1  0.81883238  0.00001495  0.68593406  1  0  0.111817  0  0.95936  0  0  0.111047  0  1.032135  0  0  0.11417  0  1.028411  0  0  0.122662  0.108886  0  1.034878  0
H  H11  1  0.17061343  0.49998470  0.19602973  1  0  0.104816  0  0.958493  0  0  0.105392  0  1.029781  0  0  0.108324  0  1.026919  0  0  0.11892  0.103312  0  1.032042  0
H  H12  1  0.05092347  0.00001012  0.14330156  1  0  0.107564  0  0.918597  0  0  0.115658  0  0.974826  0  0  0.116558  0  0.975601  0  0  0.128272  0.115164  0  0.974236  0
H  H13  1  0.93431363  0.50005044  0.65429150  1  0  0.108189  0  0.926086  0  0  0.113748  0  0.985085  0  0  0.115612  0  0.985062  0  0  0.125944  0.112484  0  0.985236  0
H  H14  1  0.93147273  0.00002569  0.84558938  1  0  0.107208  0  0.927315  0  0  0.11278  0  0.986564  0  0  0.114633  0  0.986531  0  0  0.125237  0.111536  0  0.986716  0
H  H15  1  0.04930631  0.49997332  0.35667764  1  0  0.107808  0  0.917963  0  0  0.115725  0  0.974328  0  0  0.11667  0  0.975027  0  0  0.128166  0.115182  0  0.973826  0
C  C16  1  0.69581240  0.68647512  0.52239918  1  0  0.067345  0  3.431262  0  0  0.04103  0  3.781189  0  0  0.050448  0  3.78108  0  0  0.022968  0.032528  0  3.781592  0
C  C17  1  0.32418840  0.81366743  0.01457401  1  0  0.066069  0  3.434763  0  0  0.037564  0  3.788817  0  0  0.047525  0  3.786724  0  0  0.020853  0.028356  0  3.791158  0
C  C18  1  0.32383173  0.68631895  0.48547197  1  0  0.067074  0  3.435386  0  0  0.038622  0  3.789319  0  0  0.048643  0  3.787092  0  0  0.021392  0.02948  0  3.791598  0
C  C19  1  0.69635318  0.81349211  0.97766556  1  0  0.065941  0  3.43234  0  0  0.039646  0  3.782125  0  0  0.049039  0  3.782022  0  0  0.022403  0.030993  0  3.782787  0
C  C20  1  0.32384501  0.31364520  0.48546797  1  0  0.067063  0  3.435335  0  0  0.03862  0  3.789272  0  0  0.048651  0  3.787036  0  0  0.021368  0.029475  0  3.791551  0
C  C21  1  0.69633590  0.18652882  0.97766239  1  0  0.065982  0  3.432191  0  0  0.039675  0  3.782007  0  0  0.049076  0  3.781899  0  0  0.022441  0.031005  0  3.78269  0
C  C22  1  0.69582567  0.31349580  0.52240249  1  0  0.067221  0  3.431806  0  0  0.04089  0  3.781736  0  0  0.050295  0  3.781634  0  0  0.02298  0.032396  0  3.782132  0
C  C23  1  0.32416383  0.18633228  0.01456287  1  0  0.066158  0  3.434943  0  0  0.03767  0  3.788961  0  0  0.047625  0  3.786868  0  0  0.020946  0.028489  0  3.791269  0
C  C24  1  0.69938084  0.99999314  0.33892362  1  0  -0.026656  0  3.652807  0  0  -0.062214  0  3.914214  0  0  -0.063315  0  3.933668  0  0  0.059583  -0.062023  0  3.901434  0
C  C25  1  0.29550521  0.49999986  0.84480895  1  0  -0.035467  0  3.601523  0  0  -0.075546  0  3.861623  0  0  -0.068903  0  3.872434  0  0  0.047456  -0.081077  0  3.855747  0
C  C26  1  0.29414365  0.99999437  0.65523225  1  0  -0.034597  0  3.600035  0  0  -0.073901  0  3.860189  0  0  -0.067135  0  3.871009  0  0  0.048206  -0.079615  0  3.85431  0
C  C27  1  0.69887740  0.50000936  0.16104905  1  0  -0.026713  0  3.653674  0  0  -0.062252  0  3.915268  0  0  -0.063137  0  3.934437  0  0  0.059353  -0.062247  0  3.902818  0
C  C28  1  0.01703023  0.99999151  0.28739141  1  0  0.037541  0  3.684683  0  0  0.000555  0  3.958503  0  0  0.001944  0  3.976944  0  0  0.048235  -0.000851  0  3.946336  0
C  C29  1  0.97412241  0.50002015  0.79668205  1  0  0.039222  0  3.630627  0  0  -0.003044  0  3.905932  0  0  0.003707  0  3.917471  0  0  0.042152  -0.008274  0  3.899289  0
C  C30  1  0.97239438  0.00000860  0.70323904  1  0  0.036713  0  3.632162  0  0  -0.00409  0  3.907382  0  0  0.002753  0  3.918854  0  0  0.041668  -0.009402  0  3.900747  0
C  C31  1  0.01624945  0.49999204  0.21259170  1  0  0.038424  0  3.684417  0  0  0.002499  0  3.95728  0  0  0.004034  0  3.97545  0  0  0.048292  0.000967  0  3.945411  0
C  C32  1  0.64058933  0.99998461  0.25018496  1  0  0.403315  0  3.833432  0  0  0.372118  0  4.133777  0  0  0.385724  0  4.141707  0  0  0.231584  0.362495  0  4.128987  0
C  C33  1  0.34895668  0.50000743  0.75573395  1  0  0.409359  0  3.839768  0  0  0.376664  0  4.145457  0  0  0.389228  0  4.148866  0  0  0.229681  0.367477  0  4.144418  0
C  C34  1  0.34690198  0.00000119  0.74435437  1  0  0.407972  0  3.83722  0  0  0.376154  0  4.141752  0  0  0.388659  0  4.145179  0  0  0.22952  0.366981  0  4.140742  0
C  C35  1  0.63957291  0.49999888  0.24977630  1  0  0.401798  0  3.835683  0  0  0.36979  0  4.1372  0  0  0.384016  0  4.144143  0  0  0.229921  0.359625  0  4.13317  0
C  C36  1  0.95061270  0.99999824  0.19971823  1  0  0.10807  0  3.65732  0  0  0.086246  0  3.916026  0  0  0.088882  0  3.935946  0  0  0.065336  0.084421  0  3.902622  0
C  C37  1  0.03829164  0.50002841  0.70908522  1  0  0.103826  0  3.670319  0  0  0.082417  0  3.934698  0  0  0.085323  0  3.948659  0  0  0.058824  0.079939  0  3.926197  0
C  C38  1  0.03583490  0.00001340  0.79084203  1  0  0.103491  0  3.671653  0  0  0.081822  0  3.935754  0  0  0.084755  0  3.9496  0  0  0.058522  0.079293  0  3.927363  0
C  C39  1  0.94930734  0.49998090  0.30026050  1  0  0.107904  0  3.658839  0  0  0.086375  0  3.917162  0  0  0.088994  0  3.937013  0  0  0.06575  0.084526  0  3.90384  0
N  N40  1  0.81741502  0.80485980  0.52879148  1  0  -0.35869  0  3.257982  0  0  -0.323997  0  3.574091  0  0  -0.344602  0  3.585748  0  0  -0.386113  -0.310559  0  3.565185  0
N  N41  1  0.20206943  0.69496875  0.01527872  1  0  -0.356054  0  3.259366  0  0  -0.322715  0  3.578325  0  0  -0.342274  0  3.587919  0  0  -0.387217  -0.310116  0  3.57109  0
N  N42  1  0.20171326  0.80499547  0.48471967  1  0  -0.357217  0  3.260826  0  0  -0.323915  0  3.579652  0  0  -0.34349  0  3.589224  0  0  -0.387965  -0.311367  0  3.572512  0
N  N43  1  0.81797824  0.69512960  0.97123809  1  0  -0.357116  0  3.258235  0  0  -0.322297  0  3.574223  0  0  -0.342883  0  3.585882  0  0  -0.385169  -0.308783  0  3.565214  0
N  N44  1  0.20171932  0.19495945  0.48471928  1  0  -0.357349  0  3.260678  0  0  -0.324059  0  3.579534  0  0  -0.343634  0  3.589095  0  0  -0.38805  -0.311512  0  3.5724  0
N  N45  1  0.81796963  0.30489871  0.97123397  1  0  -0.357197  0  3.258246  0  0  -0.322384  0  3.574259  0  0  -0.34297  0  3.585916  0  0  -0.385262  -0.308867  0  3.565252  0
N  N46  1  0.81741670  0.19513079  0.52879508  1  0  -0.358503  0  3.258492  0  0  -0.323789  0  3.57456  0  0  -0.344391  0  3.586226  0  0  -0.386055  -0.310351  0  3.565646  0
N  N47  1  0.20205499  0.30502324  0.01526928  1  0  -0.356136  0  3.259725  0  0  -0.322802  0  3.578692  0  0  -0.342359  0  3.588283  0  0  -0.387299  -0.310213  0  3.57146  0
N  N48  1  0.89083193  0.99998829  0.35543937  1  0  -0.169585  0  3.178809  0  0  -0.12381  0  3.446052  0  0  -0.140115  0  3.466754  0  0  -0.259098  -0.111531  0  3.431313  0
N  N49  1  0.10280853  0.50000579  0.86526578  1  0  -0.13421  0  3.347375  0  0  -0.082873  0  3.620174  0  0  -0.10259  0  3.638573  0  0  -0.304367  -0.069638  0  3.606396  0
N  N50  1  0.10161974  0.99999477  0.63469158  1  0  -0.132626  0  3.346641  0  0  -0.083665  0  3.621537  0  0  -0.103553  0  3.640101  0  0  -0.30471  -0.070151  0  3.607449  0
N  N51  1  0.89043608  0.50000354  0.14454140  1  0  -0.169707  0  3.178724  0  0  -0.12367  0  3.445315  0  0  -0.140206  0  3.466171  0  0  -0.258321  -0.111316  0  3.430554  0
N  N52  1  0.75868231  0.99999582  0.18157777  1  0  -0.326925  0  3.085466  0  0  -0.30039  0  3.361204  0  0  -0.313081  0  3.375377  0  0  -0.287921  -0.292024  0  3.352325  0
N  N53  1  0.22920315  0.50002100  0.68785407  1  0  -0.323843  0  3.058216  0  0  -0.30162  0  3.335084  0  0  -0.306993  0  3.344513  0  0  -0.294938  -0.298474  0  3.329853  0
N  N54  1  0.22661231  0.00000869  0.81217274  1  0  -0.322034  0  3.05351  0  0  -0.299968  0  3.329757  0  0  -0.305279  0  3.339227  0  0  -0.294394  -0.296881  0  3.324525  0
N  N55  1  0.75725458  0.49998532  0.31838917  1  0  -0.325899  0  3.088507  0  0  -0.299203  0  3.364256  0  0  -0.311695  0  3.37791  0  0  -0.286981  -0.291068  0  3.3559  0
F  F56  1  0.44666796  0.99997352  0.23129350  1  0  -0.220271  0  1.215238  0  0  -0.160912  0  1.374828  0  0  -0.171337  0  1.363005  0  0  -0.076148  -0.153156  0  1.383098  0
F  F57  1  0.54267683  0.50000296  0.73599253  1  0  -0.21836  0  1.206189  0  0  -0.159571  0  1.366148  0  0  -0.169478  0  1.354068  0  0  -0.07686  -0.152299  0  1.374686  0
F  F58  1  0.54047908  0.00001087  0.76419360  1  0  -0.21857  0  1.206201  0  0  -0.159832  0  1.365725  0  0  -0.169713  0  1.353612  0  0  -0.077051  -0.152584  0  1.374281  0
F  F59  1  0.44555772  0.50001053  0.26865255  1  0  -0.220504  0  1.215958  0  0  -0.161437  0  1.376751  0  0  -0.173184  0  1.366122  0  0  -0.075569  -0.151887  0  1.383268  0
