# generated using pymatgen
data_AgH14C10S2NO3
_symmetry_space_group_name_H-M   'P 1'
_cell_length_a   7.67052351
_cell_length_b   9.28894002
_cell_length_c   9.28891245
_cell_angle_alpha   109.54666928
_cell_angle_beta   89.99930313
_cell_angle_gamma   90.00025034
_symmetry_Int_Tables_number   1
_chemical_formula_structural   AgH14C10S2NO3
_chemical_formula_sum   'Ag2 H28 C20 S4 N2 O6'
_cell_volume   623.70202619
_cell_formula_units_Z   2
loop_
 _symmetry_equiv_pos_site_id
 _symmetry_equiv_pos_as_xyz
  1  'x, y, z'
loop_
 _atom_site_type_symbol
 _atom_site_label
 _atom_site_symmetry_multiplicity
 _atom_site_fract_x
 _atom_site_fract_y
 _atom_site_fract_z
 _atom_site_occupancy
 _atom_site_hle17_bader_spin_density
 _atom_site_hle17_ddec_charge
 _atom_site_hle17_ddec_spin_density
 _atom_site_hle17_ddec_sum_bond_order
 _atom_site_hle17_magmom
 _atom_site_hse06_10hf_bader_spin_density
 _atom_site_hse06_10hf_ddec_charge
 _atom_site_hse06_10hf_ddec_spin_density
 _atom_site_hse06_10hf_ddec_sum_bond_order
 _atom_site_hse06_10hf_magmom
 _atom_site_hse06_bader_spin_density
 _atom_site_hse06_ddec_charge
 _atom_site_hse06_ddec_spin_density
 _atom_site_hse06_ddec_sum_bond_order
 _atom_site_hse06_magmom
 _atom_site_pbe_bader_spin_density
 _atom_site_pbe_cm5_charge
 _atom_site_pbe_ddec_charge
 _atom_site_pbe_ddec_spin_density
 _atom_site_pbe_ddec_sum_bond_order
 _atom_site_pbe_magmom
Ag  Ag0  1  0.50045546  0.41447383  0.58552656  1  0  0.403241  0  1.577963  0  0  0.278791  0  2.046968  0  0  0.305058  0  2.000472  0  0  0.367606  0.258184  0  2.080877  0
Ag  Ag1  1  0.00045348  0.58552083  0.41447732  1  0  0.403214  0  1.577906  0  0  0.278742  0  2.046918  0  0  0.305006  0  2.000421  0  0  0.367585  0.258132  0  2.080824  0
H  H2  1  0.49262238  0.91217409  0.29875471  1  0  0.131652  0  0.973021  0  0  0.146403  0  1.038352  0  0  0.148583  0  1.037581  0  0  0.091119  0.144561  0  1.040494  0
H  H3  1  0.99262616  0.08782300  0.70124396  1  0  0.131668  0  0.973013  0  0  0.146438  0  1.038322  0  0  0.148618  0  1.037551  0  0  0.091144  0.144595  0  1.040464  0
H  H4  1  0.99262777  0.29875689  0.91217398  1  0  0.131652  0  0.973039  0  0  0.146432  0  1.038338  0  0  0.148612  0  1.037566  0  0  0.091115  0.144584  0  1.040485  0
H  H5  1  0.49262076  0.70124477  0.08782623  1  0  0.131635  0  0.973042  0  0  0.146391  0  1.038372  0  0  0.148569  0  1.037603  0  0  0.091111  0.144548  0  1.040514  0
H  H6  1  0.64385123  0.02629321  0.43600602  1  0  0.119939  0  0.98273  0  0  0.132908  0  1.056231  0  0  0.134295  0  1.056616  0  0  0.090041  0.132471  0  1.055126  0
H  H7  1  0.14385300  0.97370153  0.56398675  1  0  0.119905  0  0.982727  0  0  0.132875  0  1.056226  0  0  0.134262  0  1.05661  0  0  0.090021  0.132439  0  1.05512  0
H  H8  1  0.14385293  0.43601262  0.02629537  1  0  0.119942  0  0.982699  0  0  0.132899  0  1.056214  0  0  0.134286  0  1.056598  0  0  0.090045  0.132462  0  1.055107  0
H  H9  1  0.64385260  0.56399237  0.97370842  1  0  0.119907  0  0.982738  0  0  0.132879  0  1.056242  0  0  0.134266  0  1.056626  0  0  0.090029  0.132442  0  1.055136  0
H  H10  1  0.60742745  0.06641424  0.26264352  1  0  0.119452  0  0.969261  0  0  0.140661  0  1.028342  0  0  0.141071  0  1.03056  0  0  0.090504  0.140597  0  1.026279  0
H  H11  1  0.10742777  0.93358162  0.73735323  1  0  0.119467  0  0.969242  0  0  0.140672  0  1.028328  0  0  0.141083  0  1.030547  0  0  0.090515  0.140608  0  1.026264  0
H  H12  1  0.10743094  0.26264616  0.06641435  1  0  0.119453  0  0.969255  0  0  0.140679  0  1.028319  0  0  0.141091  0  1.030537  0  0  0.090515  0.140615  0  1.026255  0
H  H13  1  0.60742819  0.73735427  0.93358502  1  0  0.119458  0  0.969257  0  0  0.140672  0  1.028331  0  0  0.141083  0  1.03055  0  0  0.090518  0.140608  0  1.026268  0
H  H14  1  0.15298898  0.26442421  0.35002711  1  0  0.110755  0  0.949524  0  0  0.121859  0  1.021076  0  0  0.124011  0  1.018636  0  0  0.099398  0.120341  0  1.022966  0
H  H15  1  0.65298909  0.73557506  0.64997680  1  0  0.110727  0  0.949502  0  0  0.121841  0  1.021055  0  0  0.123996  0  1.018617  0  0  0.099377  0.120326  0  1.022943  0
H  H16  1  0.65298700  0.35002773  0.26442843  1  0  0.110731  0  0.949505  0  0  0.121822  0  1.021066  0  0  0.123978  0  1.018627  0  0  0.099386  0.120306  0  1.022954  0
H  H17  1  0.15299759  0.64997841  0.73557458  1  0  0.110756  0  0.949571  0  0  0.121871  0  1.021097  0  0  0.124026  0  1.01866  0  0  0.099392  0.120351  0  1.02299  0
H  H18  1  0.33391358  0.22021632  0.22195163  1  0  0.095015  0  0.956866  0  0  0.108834  0  1.022469  0  0  0.109699  0  1.023072  0  0  0.096096  0.108636  0  1.021192  0
H  H19  1  0.83391334  0.77978641  0.77805593  1  0  0.095027  0  0.956757  0  0  0.108857  0  1.022387  0  0  0.109722  0  1.022995  0  0  0.096096  0.10866  0  1.021107  0
H  H20  1  0.83391336  0.22194796  0.22021338  1  0  0.095045  0  0.956845  0  0  0.108858  0  1.022447  0  0  0.109725  0  1.023053  0  0  0.096099  0.108663  0  1.021169  0
H  H21  1  0.33392267  0.77805253  0.77978481  1  0  0.094972  0  0.956841  0  0  0.108793  0  1.022437  0  0  0.109661  0  1.023047  0  0  0.096097  0.108597  0  1.021157  0
H  H22  1  0.95895026  0.04097721  0.36110300  1  0  0.094127  0  0.954856  0  0  0.108409  0  1.011697  0  0  0.11064  0  1.01168  0  0  0.098997  0.106907  0  1.01096  0
H  H23  1  0.45895216  0.95902445  0.63889540  1  0  0.094173  0  0.95486  0  0  0.108452  0  1.011677  0  0  0.110684  0  1.01166  0  0  0.099012  0.106951  0  1.01094  0
H  H24  1  0.45895237  0.36110889  0.04097654  1  0  0.094169  0  0.954879  0  0  0.108449  0  1.011692  0  0  0.11068  0  1.011676  0  0  0.099016  0.106947  0  1.010956  0
H  H25  1  0.95895526  0.63889621  0.95901981  1  0  0.094074  0  0.954873  0  0  0.108343  0  1.011728  0  0  0.110574  0  1.011713  0  0  0.098952  0.106832  0  1.011003  0
H  H26  1  0.82507072  0.79382535  0.20617277  1  0  0.089072  0  0.968327  0  0  0.099958  0  1.030739  0  0  0.102072  0  1.03064  0  0  0.09827  0.09818  0  1.032048  0
H  H27  1  0.32507422  0.20617973  0.79382169  1  0  0.089028  0  0.968349  0  0  0.099908  0  1.030777  0  0  0.102024  0  1.030676  0  0  0.098235  0.09813  0  1.032085  0
H  H28  1  0.35412561  0.98282507  0.01717778  1  0  0.093239  0  0.979293  0  0  0.102617  0  1.04632  0  0  0.104317  0  1.048231  0  0  0.095794  0.101143  0  1.045994  0
H  H29  1  0.85410793  0.01717425  0.98282627  1  0  0.093119  0  0.979522  0  0  0.102602  0  1.046403  0  0  0.104289  0  1.048326  0  0  0.095775  0.101091  0  1.046128  0
C  C30  1  0.54662643  0.02749387  0.34981169  1  0  -0.341727  0  3.6318  0  0  -0.413394  0  3.878839  0  0  -0.415019  0  3.887407  0  0  -0.238496  -0.412675  0  3.872938  0
C  C31  1  0.04662693  0.97250425  0.65018859  1  0  -0.341713  0  3.631704  0  0  -0.413391  0  3.878749  0  0  -0.415021  0  3.88732  0  0  -0.238501  -0.412671  0  3.872847  0
C  C32  1  0.04662856  0.34981272  0.02749363  1  0  -0.341719  0  3.631745  0  0  -0.413407  0  3.878774  0  0  -0.415035  0  3.887342  0  0  -0.238505  -0.412682  0  3.872876  0
C  C33  1  0.54662740  0.65018769  0.97250635  1  0  -0.341672  0  3.631774  0  0  -0.413343  0  3.878798  0  0  -0.41497  0  3.88737  0  0  -0.238482  -0.412624  0  3.872898  0
C  C34  1  0.24877794  0.17595788  0.29236290  1  0  -0.203093  0  3.678038  0  0  -0.244902  0  3.926526  0  0  -0.244351  0  3.937172  0  0  -0.149699  -0.245233  0  3.918751  0
C  C35  1  0.74877376  0.82403915  0.70763605  1  0  -0.203094  0  3.677711  0  0  -0.244961  0  3.926392  0  0  -0.24439  0  3.936978  0  0  -0.149725  -0.245294  0  3.918617  0
C  C36  1  0.74877366  0.29236322  0.17595939  1  0  -0.203198  0  3.67791  0  0  -0.244936  0  3.926417  0  0  -0.244359  0  3.936985  0  0  -0.149719  -0.24527  0  3.918645  0
C  C37  1  0.24878586  0.70763725  0.82403965  1  0  -0.203074  0  3.678074  0  0  -0.244838  0  3.926502  0  0  -0.244263  0  3.937072  0  0  -0.14968  -0.24517  0  3.918724  0
C  C38  1  0.16521810  0.02834967  0.19933094  1  0  0.100783  0  3.786582  0  0  0.125122  0  4.017424  0  0  0.12545  0  4.041969  0  0  -0.017358  0.125233  0  4.000674  0
C  C39  1  0.66521332  0.97165075  0.80067323  1  0  0.100844  0  3.786353  0  0  0.125062  0  4.017377  0  0  0.125389  0  4.041924  0  0  -0.01736  0.125174  0  4.00062  0
C  C40  1  0.66521176  0.19932891  0.02834949  1  0  0.100895  0  3.786458  0  0  0.125056  0  4.017501  0  0  0.125385  0  4.042049  0  0  -0.017366  0.125167  0  4.000745  0
C  C41  1  0.16522489  0.80067039  0.97164892  1  0  0.100759  0  3.786499  0  0  0.125027  0  4.017428  0  0  0.125354  0  4.041983  0  0  -0.01746  0.125139  0  4.000672  0
C  C42  1  0.01591618  0.97405188  0.25147805  1  0  -0.128115  0  3.737373  0  0  -0.151213  0  3.985365  0  0  -0.154417  0  4.00677  0  0  -0.094908  -0.14589  0  3.968468  0
C  C43  1  0.51591242  0.02595310  0.74852056  1  0  -0.128191  0  3.73733  0  0  -0.151204  0  3.985325  0  0  -0.154408  0  4.006732  0  0  -0.094923  -0.145881  0  3.968431  0
C  C44  1  0.51591136  0.25148117  0.97404696  1  0  -0.128169  0  3.737406  0  0  -0.151177  0  3.985418  0  0  -0.154382  0  4.006825  0  0  -0.094909  -0.145853  0  3.968523  0
C  C45  1  0.01592246  0.74852155  0.02594658  1  0  -0.128066  0  3.737266  0  0  -0.151126  0  3.98525  0  0  -0.154332  0  4.006661  0  0  -0.094809  -0.145793  0  3.968351  0
C  C46  1  0.94140348  0.83501292  0.16498711  1  0  -0.064256  0  3.803167  0  0  -0.077242  0  4.060678  0  0  -0.07799  0  4.081869  0  0  -0.093251  -0.079801  0  4.048012  0
C  C47  1  0.44140485  0.16498873  0.83501361  1  0  -0.064208  0  3.803396  0  0  -0.077218  0  4.060911  0  0  -0.07797  0  4.082101  0  0  -0.093199  -0.079779  0  4.048253  0
C  C48  1  0.23857766  0.94068832  0.05931389  1  0  -0.165342  0  3.680164  0  0  -0.185807  0  3.912323  0  0  -0.190029  0  3.934899  0  0  -0.093195  -0.186037  0  3.900107  0
C  C49  1  0.73855822  0.05931212  0.94068954  1  0  -0.165276  0  3.680555  0  0  -0.185712  0  3.912684  0  0  -0.189924  0  3.935269  0  0  -0.093142  -0.18592  0  3.90048  0
S  S50  1  0.37745895  0.15683015  0.45040425  1  0  0.078856  0  2.688386  0  0  0.121061  0  3.115096  0  0  0.114616  0  3.107723  0  0  -0.001583  0.127043  0  3.120802  0
S  S51  1  0.87746110  0.84316920  0.54959634  1  0  0.078818  0  2.688324  0  0  0.121045  0  3.11507  0  0  0.114604  0  3.107688  0  0  -0.001583  0.127029  0  3.120774  0
S  S52  1  0.87746035  0.45040447  0.15682904  1  0  0.078871  0  2.688325  0  0  0.121069  0  3.11503  0  0  0.114623  0  3.107655  0  0  -0.001575  0.127054  0  3.120731  0
S  S53  1  0.37746362  0.54959831  0.84316949  1  0  0.0789  0  2.68844  0  0  0.12108  0  3.11515  0  0  0.114633  0  3.107776  0  0  -0.001559  0.127062  0  3.120855  0
N  N54  1  0.89412572  0.37509379  0.62490600  1  0  0.678822  0  4.138872  0  0  0.71248  0  4.415667  0  0  0.740188  0  4.424553  0  0  0.090811  0.69338  0  4.410212  0
N  N55  1  0.39412974  0.62490440  0.37509619  1  0  0.678607  0  4.13929  0  0  0.71225  0  4.416103  0  0  0.739957  0  4.424997  0  0  0.090662  0.693151  0  4.410647  0
O  O56  1  0.81604949  0.30226225  0.69773665  1  0  -0.444209  0  1.753463  0  0  -0.430118  0  1.963866  0  0  -0.444424  0  1.95955  0  0  -0.182289  -0.421413  0  1.967993  0
O  O57  1  0.31604844  0.69773363  0.30226661  1  0  -0.444089  0  1.753546  0  0  -0.42996  0  1.963926  0  0  -0.444267  0  1.959611  0  0  -0.182208  -0.421255  0  1.96805  0
O  O58  1  0.05780867  0.38098436  0.61901642  1  0  -0.457066  0  1.763827  0  0  -0.446693  0  1.988927  0  0  -0.461049  0  1.982235  0  0  -0.189892  -0.437237  0  1.993631  0
O  O59  1  0.55781343  0.61901835  0.38098207  1  0  -0.457032  0  1.764116  0  0  -0.446678  0  1.98925  0  0  -0.461039  0  1.982563  0  0  -0.189859  -0.437225  0  1.993953  0
O  O60  1  0.80312352  0.44744325  0.55255535  1  0  -0.488749  0  1.896052  0  0  -0.445437  0  2.166449  0  0  -0.467284  0  2.154533  0  0  -0.222063  -0.430332  0  2.174025  0
O  O61  1  0.30313132  0.55255149  0.44744658  1  0  -0.488711  0  1.896083  0  0  -0.445412  0  2.166478  0  0  -0.467256  0  2.154567  0  0  -0.222033  -0.430304  0  2.174047  0
