# generated using pymatgen
data_Zn4H6C18N6O13
_symmetry_space_group_name_H-M   'P 1'
_cell_length_a   18.17495910
_cell_length_b   18.20318691
_cell_length_c   18.26399412
_cell_angle_alpha   119.85497770
_cell_angle_beta   90.06075852
_cell_angle_gamma   119.90064283
_symmetry_Int_Tables_number   1
_chemical_formula_structural   Zn4H6C18N6O13
_chemical_formula_sum   'Zn8 H12 C36 N12 O26'
_cell_volume   4286.17988175
_cell_formula_units_Z   2
loop_
 _symmetry_equiv_pos_site_id
 _symmetry_equiv_pos_as_xyz
  1  'x, y, z'
loop_
 _atom_site_type_symbol
 _atom_site_label
 _atom_site_symmetry_multiplicity
 _atom_site_fract_x
 _atom_site_fract_y
 _atom_site_fract_z
 _atom_site_occupancy
 _atom_site_pbe_bader_charge
 _atom_site_pbe_bader_spin_density
 _atom_site_pbe_cm5_charge
 _atom_site_pbe_ddec_charge
 _atom_site_pbe_ddec_spin_density
 _atom_site_pbe_ddec_sum_bond_order
 _atom_site_pbe_magmom
Zn  Zn0  1  0.03969254  0.09257734  0.94028215  1  1.328439  0  0.691268  0.987533  0  2.296101  0
Zn  Zn1  1  0.85895226  0.90940467  0.93812535  1  1.316441  0  0.681923  0.974921  0  2.333013  0
Zn  Zn2  1  0.03596561  0.08540174  0.11101992  1  1.306056  0  0.666277  0.951939  0  2.413489  0
Zn  Zn3  1  0.03515551  0.91022799  0.93820112  1  1.30946  0  0.67358  0.9629  0  2.372934  0
Zn  Zn4  1  0.44991207  0.91397682  0.52659489  1  1.297002  0  0.666429  0.953271  0  2.406316  0
Zn  Zn5  1  0.62426066  0.08678723  0.52598756  1  1.299819  0  0.673529  0.962633  0  2.374155  0
Zn  Zn6  1  0.44709153  0.08761850  0.52673289  1  1.325795  0  0.681937  0.975022  0  2.333674  0
Zn  Zn7  1  0.44810558  0.90875003  0.34816026  1  1.325542  0  0.691107  0.987041  0  2.304374  0
H  H8  1  0.67266950  0.88380603  0.78673129  1  0.103092  0  0.125918  0.139324  0  0.967668  0
H  H9  1  0.57321153  0.88321262  0.68645290  1  0.160166  0  0.121019  0.131428  0  0.974665  0
H  H10  1  0.19555693  0.39991659  0.30900533  1  0.110656  0  0.119927  0.130357  0  0.975473  0
H  H11  1  0.29475966  0.59847350  0.40863108  1  0.133474  0  0.119984  0.129887  0  0.976486  0
H  H12  1  0.19686771  0.88105169  0.78655798  1  0.111609  0  0.122983  0.134793  0  0.970868  0
H  H13  1  0.29538340  0.88032215  0.68616368  1  0.125606  0  0.120593  0.131118  0  0.976277  0
H  H14  1  0.91557939  0.11305907  0.30326860  1  0.136311  0  0.120357  0.130515  0  0.97639  0
H  H15  1  0.81725311  0.11325259  0.40383441  1  0.154942  0  0.123425  0.135428  0  0.971715  0
H  H16  1  0.91194676  0.59695703  0.78925398  1  0.116479  0  0.123872  0.135393  0  0.969403  0
H  H17  1  0.81244304  0.39848524  0.68941257  1  0.119503  0  0.123903  0.136192  0  0.971215  0
H  H18  1  0.18371136  0.10998973  0.30015731  1  0.12382  0  0.120966  0.131158  0  0.975475  0
H  H19  1  0.28224871  0.10976104  0.40054941  1  0.125831  0  0.126002  0.139202  0  0.967569  0
C  C20  1  0.85519465  0.00243203  0.84399117  1  1.603125  0  0.237125  0.586847  0  4.160111  0
C  C21  1  0.79318675  0.99826347  0.78448895  1  0.484064  0  0.120067  0.070971  0  3.941468  0
C  C22  1  0.69996679  0.93202645  0.76188303  1  0.027311  0  -0.054439  -0.084611  0  3.91769  0
C  C23  1  0.64636439  0.93171354  0.70780385  1  -0.066701  0  -0.057189  -0.084302  0  3.924778  0
C  C24  1  0.69013832  0.99758072  0.68059527  1  0.489603  0  0.116589  0.067491  0  3.952308  0
C  C25  1  0.63495711  0.00121253  0.62221063  1  1.571557  0  0.234386  0.585885  0  4.158832  0
C  C26  1  0.13417584  0.28071440  0.12673864  1  1.560231  0  0.236105  0.585039  0  4.158776  0
C  C27  1  0.19297999  0.39755037  0.18939824  1  0.497648  0  0.118718  0.069221  0  3.945733  0
C  C28  1  0.21808611  0.44611643  0.28207737  1  0.059563  0  -0.058223  -0.087729  0  3.928305  0
C  C29  1  0.27162571  0.55325431  0.33584743  1  -0.093925  0  -0.058513  -0.087269  0  3.928594  0
C  C30  1  0.29578872  0.60319146  0.29259501  1  0.52866  0  0.11851  0.069102  0  3.946323  0
C  C31  1  0.35383517  0.72002987  0.34708544  1  1.597704  0  0.235422  0.585154  0  4.161847  0
C  C32  1  0.13323646  0.00025115  0.84405167  1  1.599356  0  0.236149  0.584868  0  4.160801  0
C  C33  1  0.19107707  0.99598856  0.78475906  1  0.512619  0  0.119549  0.070808  0  3.945424  0
C  C34  1  0.21778916  0.92942451  0.76184972  1  -0.005403  0  -0.056525  -0.086691  0  3.923985  0
C  C35  1  0.27093240  0.92907160  0.70773205  1  -0.038108  0  -0.057922  -0.085534  0  3.927425  0
C  C36  1  0.29309838  0.99519941  0.68076978  1  0.496636  0  0.117459  0.067326  0  3.948834  0
C  C37  1  0.35185276  0.99910955  0.62244218  1  1.585139  0  0.235544  0.586361  0  4.158382  0
C  C38  1  0.85257621  0.99701331  0.12190137  1  1.614754  0  0.235798  0.585858  0  4.162314  0
C  C39  1  0.79804337  0.99993872  0.18437071  1  0.434657  0  0.117286  0.06788  0  3.951879  0
C  C40  1  0.84239278  0.06514598  0.27689935  1  0.030995  0  -0.057549  -0.085262  0  3.927028  0
C  C41  1  0.78933045  0.06526498  0.33112719  1  -0.052556  0  -0.056311  -0.086429  0  3.921434  0
C  C42  1  0.69604390  0.00023628  0.28838568  1  0.478863  0  0.119476  0.071122  0  3.943546  0
C  C43  1  0.63418851  0.99792968  0.34369327  1  1.587214  0  0.236636  0.584974  0  4.161881  0
C  C44  1  0.85027641  0.71791221  0.84195835  1  1.57174  0  0.235884  0.584904  0  4.159792  0
C  C45  1  0.79522423  0.60098030  0.78300143  1  0.483467  0  0.118669  0.069265  0  3.947412  0
C  C46  1  0.83890331  0.55147761  0.76280590  1  -0.008915  0  -0.055441  -0.082622  0  3.917772  0
C  C47  1  0.78521823  0.44438584  0.70894729  1  -0.03804  0  -0.055585  -0.085812  0  3.920595  0
C  C48  1  0.69217684  0.39535836  0.67952009  1  0.550218  0  0.118556  0.070944  0  3.944734  0
C  C49  1  0.63023756  0.27848116  0.62104094  1  1.543857  0  0.234907  0.584121  0  4.162537  0
C  C50  1  0.13140266  0.99534034  0.11911224  1  1.566192  0  0.234917  0.585083  0  4.160483  0
C  C51  1  0.18894088  0.99794398  0.18127493  1  0.537432  0  0.116612  0.068111  0  3.952632  0
C  C52  1  0.20938871  0.06250438  0.27377972  1  -0.023305  0  -0.057074  -0.084246  0  3.925577  0
C  C53  1  0.26250901  0.06236743  0.32787108  1  -0.0239  0  -0.054184  -0.08413  0  3.916697  0
C  C54  1  0.29124759  0.99786267  0.28508505  1  0.521406  0  0.119721  0.072085  0  3.941376  0
C  C55  1  0.35055191  0.99549725  0.34077118  1  1.589119  0  0.236683  0.584367  0  4.162795  0
N  N56  1  0.78028111  0.05922081  0.70381028  1  -0.566322  0  -0.17209  -0.126749  0  3.236489  0
N  N57  1  0.83182899  0.05957630  0.75581182  1  -0.530191  0  -0.168735  -0.119723  0  3.229018  0
N  N58  1  0.26978243  0.55241876  0.20296949  1  -0.562294  0  -0.165173  -0.115657  0  3.225148  0
N  N59  1  0.21839161  0.44964893  0.15138958  1  -0.578197  0  -0.164509  -0.113985  0  3.224175  0
N  N60  1  0.26475052  0.05703064  0.70419380  1  -0.558288  0  -0.168602  -0.120566  0  3.229693  0
N  N61  1  0.21377503  0.05747880  0.75625743  1  -0.540257  0  -0.166839  -0.117672  0  3.226656  0
N  N62  1  0.65688556  0.93879859  0.19885397  1  -0.515958  0  -0.166886  -0.117673  0  3.226369  0
N  N63  1  0.70787285  0.93857705  0.14681499  1  -0.557692  0  -0.168315  -0.120803  0  3.230072  0
N  N64  1  0.65369251  0.44693396  0.70042190  1  -0.536961  0  -0.170286  -0.123928  0  3.231  0
N  N65  1  0.70527052  0.54983053  0.75221073  1  -0.533814  0  -0.17102  -0.123276  0  3.233088  0
N  N66  1  0.26943053  0.93705297  0.19558168  1  -0.562953  0  -0.16874  -0.119936  0  3.23008  0
N  N67  1  0.21812331  0.93695812  0.14361053  1  -0.588753  0  -0.171951  -0.127156  0  3.236324  0
O  O68  1  0.99183945  0.99913599  0.98028441  1  -1.217815  0  -0.569496  -1.033853  0  2.514701  0
O  O69  1  0.81466950  0.93849283  0.86488477  1  -1.172897  0  -0.310102  -0.541309  0  2.34727  0
O  O70  1  0.93914635  0.06701198  0.86741168  1  -1.14691  0  -0.294534  -0.510915  0  2.346171  0
O  O71  1  0.67595557  0.06331091  0.60029064  1  -1.148182  0  -0.299519  -0.516689  0  2.350467  0
O  O72  1  0.54990640  0.93946615  0.60047572  1  -1.156157  0  -0.314233  -0.547163  0  2.34886  0
O  O73  1  0.11087937  0.23465804  0.16589230  1  -1.167727  0  -0.316088  -0.5465  0  2.344154  0
O  O74  1  0.11337068  0.23919937  0.04343375  1  -1.131675  0  -0.291659  -0.508703  0  2.347349  0
O  O75  1  0.37512716  0.76237769  0.30574306  1  -1.147569  0  -0.29258  -0.509227  0  2.355016  0
O  O76  1  0.37591787  0.76506393  0.43185988  1  -1.152982  0  -0.315656  -0.546713  0  2.342835  0
O  O77  1  0.10681435  0.93361243  0.86225412  1  -1.165052  0  -0.312846  -0.543537  0  2.346453  0
O  O78  1  0.11658784  0.06734207  0.86999533  1  -1.154794  0  -0.293158  -0.508825  0  2.34806  0
O  O79  1  0.37144697  0.06000192  0.59946486  1  -1.141001  0  -0.295644  -0.512692  0  2.34765  0
O  O80  1  0.37658634  0.93868944  0.60192505  1  -1.176684  0  -0.315695  -0.548238  0  2.348052  0
O  O81  1  0.93772758  0.05936826  0.16131900  1  -1.186804  0  -0.315888  -0.547796  0  2.352756  0
O  O82  1  0.81113000  0.93528190  0.03844012  1  -1.154624  0  -0.295877  -0.512674  0  2.348446  0
O  O83  1  0.55027134  0.93349671  0.30308060  1  -1.153393  0  -0.29373  -0.510173  0  2.350998  0
O  O84  1  0.67458355  0.06346272  0.42815385  1  -1.164927  0  -0.312565  -0.542534  0  2.341897  0
O  O85  1  0.93530547  0.76254616  0.86471487  1  -1.143256  0  -0.311797  -0.542827  0  2.3444  0
O  O86  1  0.80909334  0.76085335  0.86351416  1  -1.151428  0  -0.296827  -0.513033  0  2.347596  0
O  O87  1  0.54616185  0.23576841  0.59983424  1  -1.142376  0  -0.296303  -0.512446  0  2.348332  0
O  O88  1  0.67065779  0.23386007  0.59883636  1  -1.178003  0  -0.311636  -0.54276  0  2.351977  0
O  O89  1  0.11052622  0.05947998  0.15871773  1  -1.171123  0  -0.315179  -0.547456  0  2.353401  0
O  O90  1  0.10896641  0.93189475  0.03550363  1  -1.144988  0  -0.29945  -0.516001  0  2.348723  0
O  O91  1  0.37369232  0.93457071  0.30031148  1  -1.13932  0  -0.294229  -0.509937  0  2.348414  0
O  O92  1  0.37163943  0.05733764  0.42515488  1  -1.158168  0  -0.309482  -0.539856  0  2.344003  0
O  O93  1  0.49210149  0.99973546  0.48092933  1  -1.20278  0  -0.569493  -1.034225  0  2.516013  0
