# generated using pymatgen
data_Al4H22C47O26
_symmetry_space_group_name_H-M   'P 1'
_cell_length_a   6.69633211
_cell_length_b   20.52524993
_cell_length_c   22.79893390
_cell_angle_alpha   93.02113902
_cell_angle_beta   89.43571942
_cell_angle_gamma   89.30588531
_symmetry_Int_Tables_number   1
_chemical_formula_structural   Al4H22C47O26
_chemical_formula_sum   'Al4 H22 C47 O26'
_cell_volume   3128.81680481
_cell_formula_units_Z   1
loop_
 _symmetry_equiv_pos_site_id
 _symmetry_equiv_pos_as_xyz
  1  'x, y, z'
loop_
 _atom_site_type_symbol
 _atom_site_label
 _atom_site_symmetry_multiplicity
 _atom_site_fract_x
 _atom_site_fract_y
 _atom_site_fract_z
 _atom_site_occupancy
 _atom_site_pbe_bader_charge
 _atom_site_pbe_bader_spin_density
 _atom_site_pbe_cm5_charge
 _atom_site_pbe_ddec_charge
 _atom_site_pbe_ddec_spin_density
 _atom_site_pbe_ddec_sum_bond_order
 _atom_site_pbe_magmom
Al  Al0  1  0.85731060  0.48820088  0.49107009  1  2.502864  0  0.40523  1.647515  0  2.579366  0
Al  Al1  1  0.35745874  0.48824381  0.48984438  1  2.501207  0  0.405188  1.649516  0  2.571858  0
Al  Al2  1  0.35969109  0.01960815  0.01432061  1  2.501886  0  0.405156  1.642241  0  2.57757  0
Al  Al3  1  0.85861300  0.02027250  0.01565450  1  2.500482  0  0.405289  1.644027  0  2.576981  0
H  H4  1  0.90864221  0.74589601  0.32025783  1  0.081862  0  0.105671  0.120184  0  0.996605  0
H  H5  1  0.31283614  0.82117671  0.77599601  1  0.106991  0  0.11664  0.143885  0  0.981552  0
H  H6  1  0.93004160  0.77280167  0.81207494  1  0.097082  0  0.113121  0.138372  0  0.990558  0
H  H7  1  0.38306100  0.14393300  0.80408791  1  0.628346  0  0.334342  0.377756  0  0.87228  0
H  H8  1  0.07418711  0.69709059  0.73059995  1  0.633527  0  0.309736  0.348122  0  0.972501  0
H  H9  1  0.50716858  0.21122318  0.68942078  1  0.625607  0  0.341122  0.376274  0  0.866522  0
H  H10  1  0.83603066  0.40030215  0.73918318  1  0.059208  0  0.098085  0.13805  0  0.978912  0
H  H11  1  0.72114251  0.34444851  0.68913566  1  0.043492  0  0.097191  0.140235  0  0.995181  0
H  H12  1  0.64937274  0.34748942  0.76442539  1  0.033333  0  0.092705  0.130186  0  1.01373  0
H  H13  1  0.61473379  0.26163061  0.81771020  1  0.021409  0  0.088919  0.124169  0  1.032053  0
H  H14  1  0.77562659  0.23074998  0.87120859  1  0.0622  0  0.094055  0.137226  0  1.004985  0
H  H15  1  0.75957366  0.31597899  0.86206443  1  0.052455  0  0.097256  0.134861  0  0.980262  0
H  H16  1  0.31580295  0.64043481  0.29017902  1  0.627349  0  0.336839  0.375978  0  0.872211  0
H  H17  1  0.20433422  0.72799577  0.18742844  1  0.618123  0  0.342145  0.377461  0  0.86607  0
H  H18  1  0.00810459  0.84915737  0.20346727  1  0.075577  0  0.097121  0.140806  0  1.00064  0
H  H19  1  0.88929717  0.89689811  0.26055804  1  0.067324  0  0.098922  0.14031  0  0.977617  0
H  H20  1  0.06567702  0.83543569  0.27790699  1  0.04798  0  0.092341  0.130601  0  0.995304  0
H  H21  1  0.30273629  0.69569729  0.66152346  1  0.610047  0  0.334424  0.366425  0  0.881401  0
H  H22  1  0.60894143  0.40647689  0.50623629  1  0.639684  0  0.36174  0.443268  0  0.835086  0
H  H23  1  0.10383744  0.57436129  0.49225566  1  0.599955  0  0.359799  0.441007  0  0.836717  0
H  H24  1  0.60288285  0.10051525  0.04202952  1  0.62989  0  0.356046  0.437018  0  0.845313  0
H  H25  1  0.11138110  0.94031080  0.03552859  1  0.632165  0  0.357914  0.438909  0  0.842151  0
C  C26  1  0.60547079  0.56614790  0.41476468  1  1.697152  0  0.27333  0.7155  0  4.171101  0
C  C27  1  0.60278096  0.56895630  0.57204916  1  1.685203  0  0.270646  0.71292  0  4.173323  0
C  C28  1  0.11124702  0.41194755  0.56762101  1  1.670703  0  0.276814  0.725235  0  4.153658  0
C  C29  1  0.10937210  0.40903853  0.40830871  1  1.704844  0  0.276317  0.69708  0  4.186513  0
C  C30  1  0.11163054  0.36241343  0.35875292  1  0.243828  0  0.005141  -0.127021  0  3.818064  0
C  C31  1  0.11117650  0.32150957  0.31755119  1  -0.351189  0  -0.007426  0.024753  0  4.252702  0
C  C32  1  0.11029085  0.27654839  0.27269811  1  -0.032417  0  0.002842  0.003058  0  4.186381  0
C  C33  1  0.10883694  0.23493566  0.23163021  1  0.053535  0  -0.00105  -0.007156  0  4.18925  0
C  C34  1  0.10699148  0.18986366  0.18687486  1  -0.245898  0  -0.007203  0.030796  0  4.258697  0
C  C35  1  0.10490016  0.14875573  0.14583240  1  0.117737  0  -0.003306  -0.141327  0  3.831948  0
C  C36  1  0.25862265  0.24968631  0.71426917  1  0.525349  0  0.079275  0.162715  0  4.096297  0
C  C37  1  0.10194021  0.29453739  0.70560450  1  0.135556  0  -0.010006  -0.034642  0  4.089392  0
C  C38  1  0.93619755  0.30071477  0.74550422  1  0.006236  0  -0.006997  0.064782  0  3.939729  0
C  C39  1  0.92854373  0.26183025  0.79401568  1  0.060593  0  -0.010091  0.07052  0  3.940563  0
C  C40  1  0.08660355  0.21622095  0.80210800  1  0.144229  0  -0.019572  -0.047334  0  4.150813  0
C  C41  1  0.24947432  0.21051364  0.76248813  1  0.49465  0  0.069143  0.129398  0  4.134043  0
C  C42  1  0.11073031  0.33420005  0.65697670  1  -0.503422  0  -0.008262  0.034919  0  4.081763  0
C  C43  1  0.09001251  0.17467970  0.84947601  1  -0.304087  0  -0.021949  -0.017779  0  4.153752  0
C  C44  1  0.10456500  0.13714999  0.88910784  1  -0.047077  0  -0.035193  -0.205411  0  3.939275  0
C  C45  1  0.11135823  0.36957300  0.61565777  1  0.224155  0  -0.036321  -0.211841  0  3.924978  0
C  C46  1  0.45486069  0.75840186  0.21554198  1  0.478436  0  0.084919  0.172725  0  4.071617  0
C  C47  1  0.61382848  0.80259105  0.21206618  1  0.153469  0  -0.007416  -0.031101  0  4.060273  0
C  C48  1  0.77991933  0.79872476  0.25063156  1  0.027745  0  -0.006344  0.130918  0  3.993656  0
C  C49  1  0.78271731  0.75030717  0.29078126  1  -0.028179  0  -0.09696  -0.20435  0  3.977542  0
C  C50  1  0.62287870  0.70628234  0.29519059  1  0.169943  0  -0.019501  0.020987  0  4.190945  0
C  C51  1  0.45809320  0.71120030  0.25779473  1  0.539575  0  0.072328  0.132427  0  4.099968  0
C  C52  1  0.60737113  0.85058943  0.17010491  1  -0.350001  0  -0.012733  0.024129  0  4.089558  0
C  C53  1  0.62087031  0.65732303  0.33626292  1  -0.517023  0  -0.026668  -0.029698  0  4.136818  0
C  C54  1  0.60974216  0.61416694  0.37099055  1  0.143344  0  -0.037693  -0.201875  0  3.951566  0
C  C55  1  0.60737125  0.89256843  0.13422233  1  0.089763  0  -0.035623  -0.205  0  3.926741  0
C  C56  1  0.44565486  0.79110609  0.76693428  1  0.027282  0  -0.102868  -0.277889  0  3.933555  0
C  C57  1  0.62276268  0.80246064  0.79865055  1  0.050794  0  0.010258  0.184593  0  4.141244  0
C  C58  1  0.79554066  0.76401188  0.78649919  1  -0.012707  0  -0.103677  -0.29575  0  3.932834  0
C  C59  1  0.79155957  0.71349019  0.74313511  1  0.58696  0  0.098977  0.325212  0  4.071881  0
C  C60  1  0.61517244  0.70171755  0.71058789  1  0.124261  0  -0.024895  -0.116191  0  4.110833  0
C  C61  1  0.44472214  0.74138404  0.72340800  1  0.466208  0  0.090208  0.288322  0  4.087065  0
C  C62  1  0.62437336  0.85212061  0.84416773  1  -0.282553  0  -0.018295  -0.027548  0  4.064117  0
C  C63  1  0.60908229  0.65400499  0.66410700  1  -0.364417  0  -0.02647  -0.011804  0  4.162037  0
C  C64  1  0.59898143  0.61453006  0.62228065  1  0.064539  0  -0.032709  -0.192217  0  3.933211  0
C  C65  1  0.62217266  0.89408017  0.88396933  1  0.033777  0  -0.031821  -0.183943  0  3.936219  0
C  C66  1  0.61762492  0.94149609  0.93286049  1  1.691617  0  0.27737  0.71419  0  4.165863  0
C  C67  1  0.60771644  0.94018400  0.09027245  1  1.668095  0  0.274224  0.721634  0  4.157754  0
C  C68  1  0.10392439  0.10158654  0.09680580  1  1.692361  0  0.274491  0.702533  0  4.180475  0
C  C69  1  0.10959101  0.09474057  0.93741950  1  1.695127  0  0.274508  0.714655  0  4.174021  0
C  C70  1  0.77658774  0.35055205  0.73427414  1  -0.040459  0  -0.238545  -0.408116  0  3.980464  0
C  C71  1  0.76092847  0.26778090  0.83852546  1  -0.04788  0  -0.238557  -0.400968  0  3.974028  0
C  C72  1  0.94487578  0.84740594  0.24798636  1  -0.082442  0  -0.237377  -0.414936  0  3.97966  0
O  O73  1  0.43487767  0.55431230  0.54923446  1  -1.235603  0  -0.236235  -0.598464  0  2.282523  0
O  O74  1  0.77364144  0.55044143  0.43580483  1  -1.239252  0  -0.227038  -0.579957  0  2.28822  0
O  O75  1  0.93791328  0.42886421  0.42651031  1  -1.225968  0  -0.221743  -0.567511  0  2.283358  0
O  O76  1  0.77546570  0.54874030  0.55500008  1  -1.229504  0  -0.22877  -0.580431  0  2.277732  0
O  O77  1  0.94119503  0.42710854  0.54699045  1  -1.24277  0  -0.231111  -0.59529  0  2.278926  0
O  O78  1  0.43477295  0.54489416  0.42902286  1  -1.234096  0  -0.230236  -0.583651  0  2.281786  0
O  O79  1  0.60874062  0.44933163  0.49022678  1  -1.437875  0  -0.445273  -0.995142  0  2.185276  0
O  O80  1  0.28115379  0.43052037  0.54943610  1  -1.244864  0  -0.230805  -0.593382  0  2.282484  0
O  O81  1  0.27849627  0.42485895  0.42920766  1  -1.229244  0  -0.222329  -0.569848  0  2.285103  0
O  O82  1  0.10596767  0.52717027  0.49144825  1  -1.400524  0  -0.446631  -1.000918  0  2.2079  0
O  O83  1  0.77859514  0.95836184  0.07235765  1  -1.236657  0  -0.2338  -0.598639  0  2.277835  0
O  O84  1  0.44578045  0.95848011  0.95300792  1  -1.235719  0  -0.224539  -0.574614  0  2.28933  0
O  O85  1  0.28086675  0.07603668  0.95402260  1  -1.234266  0  -0.227779  -0.577552  0  2.285309  0
O  O86  1  0.43727550  0.95917939  0.07270772  1  -1.241227  0  -0.23284  -0.596375  0  2.282192  0
O  O87  1  0.27442987  0.08459029  0.07536645  1  -1.224477  0  -0.227554  -0.58521  0  2.284225  0
O  O88  1  0.78543079  0.96123074  0.95199539  1  -1.235895  0  -0.22495  -0.575499  0  2.286129  0
O  O89  1  0.60718816  0.05970172  0.01852358  1  -1.430358  0  -0.446605  -0.99256  0  2.179325  0
O  O90  1  0.93326303  0.08225535  0.07943636  1  -1.226529  0  -0.227184  -0.582222  0  2.277476  0
O  O91  1  0.94105377  0.08070798  0.95939987  1  -1.234054  0  -0.225339  -0.574427  0  2.287524  0
O  O92  1  0.11026569  0.98118003  0.01597136  1  -1.432109  0  -0.446106  -0.991987  0  2.181593  0
O  O93  1  0.40451829  0.16737455  0.76817666  1  -1.150039  0  -0.348731  -0.444782  0  2.299558  0
O  O94  1  0.94783177  0.67275079  0.73027287  1  -1.152085  0  -0.358586  -0.449953  0  2.295165  0
O  O95  1  0.41535568  0.24448111  0.67578363  1  -1.116209  0  -0.336935  -0.409077  0  2.271062  0
O  O96  1  0.29630283  0.67137874  0.25934836  1  -1.144546  0  -0.348434  -0.441773  0  2.299446  0
O  O97  1  0.29985106  0.76161558  0.17776712  1  -1.113313  0  -0.332769  -0.407281  0  2.285533  0
O  O98  1  0.27404397  0.73074269  0.69176849  1  -1.130186  0  -0.329943  -0.427958  0  2.323783  0
