# generated using pymatgen
data_ZnH6(CN2)4
_symmetry_space_group_name_H-M   'P 1'
_cell_length_a   9.48951045
_cell_length_b   9.48943307
_cell_length_c   9.58149101
_cell_angle_alpha   115.47837901
_cell_angle_beta   115.47865157
_cell_angle_gamma   90.66858651
_symmetry_Int_Tables_number   1
_chemical_formula_structural   ZnH6(CN2)4
_chemical_formula_sum   'Zn2 H12 C8 N16'
_cell_volume   682.35893272
_cell_formula_units_Z   2
loop_
 _symmetry_equiv_pos_site_id
 _symmetry_equiv_pos_as_xyz
  1  'x, y, z'
loop_
 _atom_site_type_symbol
 _atom_site_label
 _atom_site_symmetry_multiplicity
 _atom_site_fract_x
 _atom_site_fract_y
 _atom_site_fract_z
 _atom_site_occupancy
 _atom_site_hle17_bader_spin_density
 _atom_site_hle17_ddec_charge
 _atom_site_hle17_ddec_spin_density
 _atom_site_hle17_ddec_sum_bond_order
 _atom_site_hle17_magmom
 _atom_site_hse06_10hf_bader_spin_density
 _atom_site_hse06_10hf_ddec_charge
 _atom_site_hse06_10hf_ddec_spin_density
 _atom_site_hse06_10hf_ddec_sum_bond_order
 _atom_site_hse06_10hf_magmom
 _atom_site_hse06_bader_spin_density
 _atom_site_hse06_ddec_charge
 _atom_site_hse06_ddec_spin_density
 _atom_site_hse06_ddec_sum_bond_order
 _atom_site_hse06_magmom
 _atom_site_pbe_bader_spin_density
 _atom_site_pbe_cm5_charge
 _atom_site_pbe_ddec_charge
 _atom_site_pbe_ddec_spin_density
 _atom_site_pbe_ddec_sum_bond_order
 _atom_site_pbe_magmom
Zn  Zn0  1  0.47930276  0.19597863  0.12156962  1  0  0.890001  0  1.983621  0  0  0.682369  0  2.462711  0  0  0.721033  0  2.419724  0  0  0.761791  0.655769  0  2.492331  0
Zn  Zn1  1  0.19598109  0.47929831  0.62156513  1  0  0.889974  0  1.983624  0  0  0.682299  0  2.462745  0  0  0.720968  0  2.41976  0  0  0.761743  0.655699  0  2.492365  0
H  H2  1  0.63406969  0.34742552  0.53840098  1  0  0.130197  0  0.95082  0  0  0.149712  0  1.007346  0  0  0.151121  0  1.007799  0  0  0.099499  0.148665  0  1.00709  0
H  H3  1  0.34741990  0.63407337  0.03841204  1  0  0.130181  0  0.950989  0  0  0.149725  0  1.007464  0  0  0.151135  0  1.007916  0  0  0.099494  0.148681  0  1.00721  0
H  H4  1  0.52535294  0.30569900  0.63416415  1  0  0.141728  0  0.926542  0  0  0.160874  0  0.982455  0  0  0.162384  0  0.982502  0  0  0.1058  0.159797  0  0.982445  0
H  H5  1  0.30569459  0.52535502  0.13417218  1  0  0.141831  0  0.92662  0  0  0.16094  0  0.982574  0  0  0.162453  0  0.98262  0  0  0.10583  0.159866  0  0.982563  0
H  H6  1  0.57806011  0.50546520  0.67698571  1  0  0.141694  0  0.945985  0  0  0.15444  0  1.013982  0  0  0.156984  0  1.012103  0  0  0.1038  0.152595  0  1.015347  0
H  H7  1  0.50546234  0.57806625  0.17699667  1  0  0.14171  0  0.946028  0  0  0.154488  0  1.013988  0  0  0.157034  0  1.012107  0  0  0.103826  0.152647  0  1.015348  0
H  H8  1  0.13949523  0.00985900  0.91434473  1  0  0.135798  0  0.974316  0  0  0.14695  0  1.046245  0  0  0.149907  0  1.044281  0  0  0.09852  0.144785  0  1.047691  0
H  H9  1  0.00986133  0.13949247  0.41435077  1  0  0.135814  0  0.97428  0  0  0.146974  0  1.046206  0  0  0.149931  0  1.044241  0  0  0.098532  0.144808  0  1.04765  0
H  H10  1  0.06461282  0.81163302  0.86451307  1  0  0.137798  0  0.913808  0  0  0.160089  0  0.964878  0  0  0.161604  0  0.964792  0  0  0.106482  0.159024  0  0.964938  0
H  H11  1  0.81163587  0.06461327  0.36451782  1  0  0.137778  0  0.913823  0  0  0.160076  0  0.964883  0  0  0.161591  0  0.964796  0  0  0.106484  0.159012  0  0.96494  0
H  H12  1  0.05703731  0.84504222  0.69478289  1  0  0.145626  0  0.933711  0  0  0.160753  0  0.995801  0  0  0.163072  0  0.994384  0  0  0.106456  0.159095  0  0.996827  0
H  H13  1  0.84504609  0.05703474  0.19478695  1  0  0.145658  0  0.933672  0  0  0.160786  0  0.995757  0  0  0.163105  0  0.99434  0  0  0.106467  0.159112  0  0.996797  0
C  C14  1  0.54023271  0.37841928  0.57573318  1  0  -0.392522  0  3.693111  0  0  -0.465715  0  3.923377  0  0  -0.469489  0  3.929264  0  0  -0.228469  -0.462906  0  3.919219  0
C  C15  1  0.37841531  0.54024346  0.07574631  1  0  -0.392651  0  3.69301  0  0  -0.46589  0  3.923225  0  0  -0.469664  0  3.929112  0  0  -0.228537  -0.463078  0  3.919069  0
C  C16  1  0.29098790  0.84905644  0.87275736  1  0  0.417888  0  3.729052  0  0  0.394137  0  3.996039  0  0  0.408889  0  4.011893  0  0  0.234043  0.384328  0  3.985096  0
C  C17  1  0.84906303  0.29098005  0.37275737  1  0  0.417886  0  3.729012  0  0  0.394153  0  3.995977  0  0  0.408908  0  4.011826  0  0  0.233975  0.384348  0  3.985021  0
C  C18  1  0.38530767  0.34758160  0.41980532  1  0  0.417041  0  3.72423  0  0  0.39451  0  3.988027  0  0  0.408889  0  4.00442  0  0  0.233677  0.384972  0  3.976672  0
C  C19  1  0.34758029  0.38530050  0.91980322  1  0  0.417224  0  3.724422  0  0  0.394748  0  3.988152  0  0  0.409117  0  4.004559  0  0  0.233826  0.385205  0  3.976805  0
C  C20  1  0.12998964  0.88201216  0.83542460  1  0  -0.398935  0  3.702765  0  0  -0.474162  0  3.937749  0  0  -0.478247  0  3.943067  0  0  -0.230946  -0.471134  0  3.933955  0
C  C21  1  0.88201457  0.12998981  0.33542907  1  0  -0.398929  0  3.702941  0  0  -0.474168  0  3.937916  0  0  -0.478254  0  3.943232  0  0  -0.23093  -0.471129  0  3.934127  0
N  N22  1  0.32098768  0.70608904  0.79378869  1  0  -0.370315  0  3.211708  0  0  -0.29423  0  3.518212  0  0  -0.313853  0  3.527845  0  0  -0.255912  -0.281129  0  3.511651  0
N  N23  1  0.70608716  0.32098849  0.29378915  1  0  -0.370407  0  3.211616  0  0  -0.294325  0  3.518114  0  0  -0.313949  0  3.527741  0  0  -0.255944  -0.281223  0  3.511552  0
N  N24  1  0.43331427  0.95691022  0.99086579  1  0  -0.363423  0  3.218621  0  0  -0.290033  0  3.528635  0  0  -0.309226  0  3.537821  0  0  -0.253367  -0.277209  0  3.522309  0
N  N25  1  0.95691608  0.43331657  0.49086441  1  0  -0.363513  0  3.21861  0  0  -0.290144  0  3.528645  0  0  -0.30934  0  3.537833  0  0  -0.253307  -0.277322  0  3.52232  0
N  N26  1  0.35240013  0.27571379  0.25047096  1  0  -0.374636  0  3.208386  0  0  -0.299021  0  3.509188  0  0  -0.318799  0  3.520824  0  0  -0.254948  -0.285759  0  3.501202  0
N  N27  1  0.27571917  0.35240808  0.75048624  1  0  -0.374799  0  3.208751  0  0  -0.299162  0  3.509491  0  0  -0.318941  0  3.521131  0  0  -0.255057  -0.285899  0  3.501505  0
N  N28  1  0.25110540  0.38564846  0.42499897  1  0  -0.356727  0  3.200607  0  0  -0.282194  0  3.503969  0  0  -0.30201  0  3.515285  0  0  -0.250442  -0.268926  0  3.496172  0
N  N29  1  0.38565148  0.25111856  0.92501001  1  0  -0.356672  0  3.200863  0  0  -0.282218  0  3.504262  0  0  -0.30203  0  3.515579  0  0  -0.250466  -0.268955  0  3.496477  0
N  N30  1  0.13482578  0.33571777  0.25630768  1  0  -0.070658  0  2.950342  0  0  -0.074581  0  3.24208  0  0  -0.071968  0  3.252727  0  0  -0.099223  -0.076138  0  3.234901  0
N  N31  1  0.33572700  0.13483392  0.75632262  1  0  -0.070873  0  2.950427  0  0  -0.07479  0  3.242196  0  0  -0.072178  0  3.252842  0  0  -0.099312  -0.076352  0  3.235018  0
N  N32  1  0.48404728  0.72856111  0.86465655  1  0  -0.076649  0  2.960616  0  0  -0.075676  0  3.256335  0  0  -0.074163  0  3.266417  0  0  -0.092403  -0.076524  0  3.249564  0
N  N33  1  0.72856568  0.48404796  0.36465913  1  0  -0.076652  0  2.960535  0  0  -0.075685  0  3.256264  0  0  -0.07417  0  3.266344  0  0  -0.092403  -0.076538  0  3.249502  0
N  N34  1  0.19523611  0.27035536  0.15188480  1  0  -0.0869  0  2.98939  0  0  -0.082946  0  3.286588  0  0  -0.082404  0  3.297308  0  0  -0.097679  -0.083153  0  3.279365  0
N  N35  1  0.27036220  0.19524284  0.65189556  1  0  -0.086696  0  2.989269  0  0  -0.08273  0  3.28643  0  0  -0.082188  0  3.297149  0  0  -0.097565  -0.082934  0  3.2792  0
N  N36  1  0.55080711  0.87842072  0.98179017  1  0  -0.067008  0  2.966477  0  0  -0.065254  0  3.260621  0  0  -0.063703  0  3.270661  0  0  -0.086671  -0.066127  0  3.253884  0
N  N37  1  0.87842386  0.55080592  0.48178647  1  0  -0.06686  0  2.966411  0  0  -0.0651  0  3.260554  0  0  -0.063551  0  3.270594  0  0  -0.086663  -0.065972  0  3.253824  0
