# generated using pymatgen
data_CuH6C5IN2
_symmetry_space_group_name_H-M   'P 1'
_cell_length_a   4.05786999
_cell_length_b   10.04340938
_cell_length_c   17.48244225
_cell_angle_alpha   90.00112623
_cell_angle_beta   87.49513360
_cell_angle_gamma   89.99884321
_symmetry_Int_Tables_number   1
_chemical_formula_structural   CuH6C5IN2
_chemical_formula_sum   'Cu4 H24 C20 I4 N8'
_cell_volume   711.81352413
_cell_formula_units_Z   4
loop_
 _symmetry_equiv_pos_site_id
 _symmetry_equiv_pos_as_xyz
  1  'x, y, z'
loop_
 _atom_site_type_symbol
 _atom_site_label
 _atom_site_symmetry_multiplicity
 _atom_site_fract_x
 _atom_site_fract_y
 _atom_site_fract_z
 _atom_site_occupancy
 _atom_site_pbe_bader_spin_density
 _atom_site_pbe_cm5_charge
 _atom_site_pbe_ddec_charge
 _atom_site_pbe_ddec_spin_density
 _atom_site_pbe_ddec_sum_bond_order
 _atom_site_pbe_magmom
Cu  Cu0  1  0.74868094  0.08260084  0.50191485  1  0  0.231738  0.127497  0  2.766952  0
Cu  Cu1  1  0.24865793  0.41740814  0.00192850  1  0  0.231778  0.127509  0  2.76714  0
Cu  Cu2  1  0.25130006  0.91740584  0.49807499  1  0  0.231733  0.127471  0  2.767051  0
Cu  Cu3  1  0.75131092  0.58259655  0.99809740  1  0  0.231763  0.127487  0  2.767263  0
H  H4  1  0.60057606  0.37664900  0.50429730  1  0  0.108113  0.075691  0  1.016981  0
H  H5  1  0.10054429  0.12336517  0.00430960  1  0  0.108127  0.075673  0  1.017104  0
H  H6  1  0.39937022  0.62334474  0.49569366  1  0  0.108105  0.075721  0  1.017046  0
H  H7  1  0.89944152  0.87664151  0.99570543  1  0  0.108145  0.075714  0  1.017178  0
H  H8  1  0.78876350  0.57422490  0.58233019  1  0  0.094026  0.113316  0  1.051444  0
H  H9  1  0.28874776  0.92579443  0.08231762  1  0  0.094052  0.113416  0  1.051472  0
H  H10  1  0.21121773  0.42577581  0.41765850  1  0  0.09408  0.113345  0  1.051534  0
H  H11  1  0.71128482  0.07421822  0.91768542  1  0  0.09406  0.113391  0  1.051411  0
H  H12  1  0.07781018  0.12069544  0.64754532  1  0  0.109828  0.052116  0  1.049074  0
H  H13  1  0.57783260  0.37933555  0.14754619  1  0  0.109733  0.052072  0  1.048905  0
H  H14  1  0.92219867  0.87930825  0.35245312  1  0  0.109763  0.052006  0  1.048953  0
H  H15  1  0.42211499  0.62065620  0.85247511  1  0  0.109768  0.0521  0  1.048776  0
H  H16  1  0.20151479  0.64857798  0.67911433  1  0  0.083976  0.137944  0  1.029853  0
H  H17  1  0.70160524  0.85145416  0.17907825  1  0  0.083919  0.137715  0  1.029885  0
H  H18  1  0.79842845  0.35142970  0.32087949  1  0  0.083985  0.137851  0  1.029857  0
H  H19  1  0.29850836  0.14853858  0.82091396  1  0  0.083935  0.137841  0  1.029852  0
H  H20  1  0.39241600  0.52308395  0.73588955  1  0  0.093626  0.142228  0  1.016224  0
H  H21  1  0.89244664  0.97694860  0.23587274  1  0  0.093618  0.142228  0  1.016162  0
H  H22  1  0.60758174  0.47692572  0.26409056  1  0  0.093646  0.142251  0  1.016078  0
H  H23  1  0.10758783  0.02304713  0.76413316  1  0  0.093627  0.142232  0  1.016189  0
H  H24  1  0.98252490  0.57414041  0.75770256  1  0  0.094614  0.147757  0  1.006654  0
H  H25  1  0.48258371  0.92586527  0.25767457  1  0  0.094547  0.147586  0  1.006598  0
H  H26  1  0.01746366  0.42585233  0.24229873  1  0  0.094599  0.147688  0  1.006686  0
H  H27  1  0.51747591  0.07409859  0.74231646  1  0  0.094584  0.147671  0  1.006571  0
C  C28  1  0.74808979  0.36495702  0.55459797  1  0  0.048222  0.123197  0  3.944345  0
C  C29  1  0.24805663  0.13505668  0.05460183  1  0  0.048153  0.123332  0  3.944135  0
C  C30  1  0.25189064  0.63503970  0.44539473  1  0  0.048248  0.123156  0  3.944231  0
C  C31  1  0.75196145  0.86494104  0.94541208  1  0  0.048284  0.123434  0  3.943784  0
C  C32  1  0.85148491  0.47212113  0.59728756  1  0  -0.090294  -0.233116  0  3.915819  0
C  C33  1  0.35148722  0.02789019  0.09727810  1  0  -0.090208  -0.2331  0  3.915959  0
C  C34  1  0.14845913  0.52786065  0.40270225  1  0  -0.09041  -0.233108  0  3.915418  0
C  C35  1  0.64855744  0.97211151  0.90272610  1  0  -0.090175  -0.233066  0  3.915873  0
C  C36  1  0.04160930  0.44605045  0.66072624  1  0  0.136676  0.349908  0  3.944871  0
C  C37  1  0.54156683  0.05397726  0.16071904  1  0  0.136567  0.349656  0  3.945448  0
C  C38  1  0.95843560  0.55395524  0.33925218  1  0  0.136678  0.349962  0  3.944964  0
C  C39  1  0.45841337  0.94602742  0.83929942  1  0  0.136571  0.349617  0  3.945157  0
C  C40  1  0.01064005  0.22314276  0.63426400  1  0  0.169522  0.236396  0  3.96691  0
C  C41  1  0.51068914  0.27687934  0.13425732  1  0  0.169513  0.236474  0  3.966664  0
C  C42  1  0.98932353  0.77683704  0.36573900  1  0  0.169557  0.236547  0  3.967294  0
C  C43  1  0.48937105  0.72312037  0.86575547  1  0  0.169495  0.23655  0  3.966973  0
C  C44  1  0.16360588  0.55464539  0.71025412  1  0  -0.242885  -0.460964  0  3.923623  0
C  C45  1  0.66363821  0.94539502  0.21022489  1  0  -0.242697  -0.460446  0  3.923917  0
C  C46  1  0.83637409  0.44536826  0.28974087  1  0  -0.242889  -0.460867  0  3.92355  0
C  C47  1  0.33639064  0.05461564  0.78975982  1  0  -0.242766  -0.460636  0  3.92346  0
I  I48  1  0.71481228  0.87524269  0.59470888  1  0  -0.158821  -0.252815  0  2.162802  0
I  I49  1  0.21485412  0.62478459  0.09472240  1  0  -0.158747  -0.252667  0  2.162897  0
I  I50  1  0.28515193  0.12475503  0.40527865  1  0  -0.158784  -0.252728  0  2.162805  0
I  I51  1  0.78512630  0.37523105  0.90529492  1  0  -0.158839  -0.252831  0  2.162704  0
N  N52  1  0.82718573  0.23880164  0.57241860  1  0  -0.363606  -0.230187  0  3.621616  0
N  N53  1  0.32715014  0.26122299  0.07242574  1  0  -0.363567  -0.230344  0  3.621524  0
N  N54  1  0.17283538  0.76119807  0.42756783  1  0  -0.363493  -0.230092  0  3.621974  0
N  N55  1  0.67278392  0.73878270  0.92758926  1  0  -0.36378  -0.230541  0  3.621936  0
N  N56  1  0.11962534  0.31948586  0.67880786  1  0  -0.31473  -0.328947  0  3.221414  0
N  N57  1  0.61962604  0.18054683  0.17879767  1  0  -0.314752  -0.329012  0  3.221533  0
N  N58  1  0.88039319  0.68052281  0.32117914  1  0  -0.314825  -0.329207  0  3.221834  0
N  N59  1  0.38037725  0.81945089  0.82121623  1  0  -0.314705  -0.329074  0  3.221481  0
