# generated using pymatgen
data_Mn3H40C62N4O15
_symmetry_space_group_name_H-M   'P 1'
_cell_length_a   10.94185177
_cell_length_b   10.94181124
_cell_length_c   25.95202291
_cell_angle_alpha   91.88346448
_cell_angle_beta   91.88339463
_cell_angle_gamma   100.18587202
_symmetry_Int_Tables_number   1
_chemical_formula_structural   Mn3H40C62N4O15
_chemical_formula_sum   'Mn6 H80 C124 N8 O30'
_cell_volume   3054.08619785
_cell_formula_units_Z   2
loop_
 _symmetry_equiv_pos_site_id
 _symmetry_equiv_pos_as_xyz
  1  'x, y, z'
loop_
 _atom_site_type_symbol
 _atom_site_label
 _atom_site_symmetry_multiplicity
 _atom_site_fract_x
 _atom_site_fract_y
 _atom_site_fract_z
 _atom_site_occupancy
 _atom_site_pbe_bader_charge
 _atom_site_pbe_bader_spin_density
 _atom_site_pbe_cm5_charge
 _atom_site_pbe_ddec_charge
 _atom_site_pbe_ddec_spin_density
 _atom_site_pbe_ddec_sum_bond_order
 _atom_site_pbe_magmom
Mn  Mn0  1  0.82761362  0.18004478  0.49269229  1  1.483057  4.48996  0.61514  0.869403  4.623835  2.468191  4.407
Mn  Mn1  1  0.81995025  0.17239456  0.00730735  1  1.483154  4.489904  0.615147  0.869436  4.623776  2.468215  4.407
Mn  Mn2  1  0.17239198  0.81995850  0.50730813  1  1.483132  4.48994  0.615209  0.869553  4.623829  2.468039  4.407
Mn  Mn3  1  0.18004606  0.82761072  0.99269258  1  1.483186  4.489906  0.615201  0.86954  4.623792  2.468116  4.407
Mn  Mn4  1  0.99999756  0.49999709  0.49999991  1  1.575446  4.547298  0.61051  1.10194  4.690113  2.273619  4.484
Mn  Mn5  1  0.50000071  0.99999146  0.00000023  1  1.575499  4.547327  0.610504  1.101854  4.690154  2.273749  4.484
H  H6  1  0.07052935  0.03343953  0.59841600  1  0.141236  0.000416  0.10561  0.114465  -0.000406  1.053418  0.0
H  H7  1  0.96655959  0.92946938  0.90158403  1  0.141251  0.000416  0.1056  0.114458  -0.000406  1.053414  0.0
H  H8  1  0.92947068  0.96656002  0.40158429  1  0.141259  0.000416  0.10558  0.11442  -0.000406  1.053365  0.0
H  H9  1  0.03344137  0.07053216  0.09841515  1  0.141275  0.000416  0.105561  0.114401  -0.000406  1.053332  0.0
H  H10  1  0.22042108  0.97895000  0.66380788  1  0.068755  0.000138  0.108045  0.126824  -6.1e-05  0.986203  0.0
H  H11  1  0.02104927  0.77957817  0.83619158  1  0.068793  0.000138  0.10805  0.126823  -6.1e-05  0.986209  0.0
H  H12  1  0.77957710  0.02104830  0.33619237  1  0.068817  0.000138  0.108052  0.126811  -6.1e-05  0.986211  0.0
H  H13  1  0.97895262  0.22042353  0.16380799  1  0.068795  0.000138  0.108044  0.126797  -6.1e-05  0.986234  0.0
H  H14  1  0.36681337  0.36755853  0.69368948  1  0.097948  0.000108  0.101535  0.118196  5.6e-05  1.040483  0.0
H  H15  1  0.63244029  0.63318970  0.80631023  1  0.097957  0.000108  0.101544  0.118246  5.6e-05  1.040453  0.0
H  H16  1  0.63318573  0.63243719  0.30631305  1  0.097684  0.000108  0.10155  0.118245  5.6e-05  1.040475  0.0
H  H17  1  0.36755881  0.36681608  0.19368975  1  0.097938  0.000108  0.101534  0.118218  5.6e-05  1.040464  0.0
H  H18  1  0.21846247  0.42188937  0.62558891  1  0.100104  0.000282  0.105851  0.109658  -0.000139  1.00172  0.0
H  H19  1  0.57811230  0.78154130  0.87441167  1  0.100126  0.000282  0.105837  0.109632  -0.000139  1.001711  0.0
H  H20  1  0.78154034  0.57810975  0.37441411  1  0.100044  0.000282  0.105854  0.109667  -0.000139  1.001829  0.0
H  H21  1  0.42188866  0.21846664  0.12558721  1  0.100104  0.000282  0.105856  0.109622  -0.000139  1.001759  0.0
H  H22  1  0.29073353  0.77127594  0.37075953  1  0.076163  0.000205  0.104172  0.103705  -0.000197  1.011299  0.0
H  H23  1  0.22872422  0.70926368  0.12923953  1  0.076214  0.000205  0.104114  0.103628  -0.000197  1.011249  0.0
H  H24  1  0.70926000  0.22871970  0.62923946  1  0.076186  0.000205  0.104121  0.10363  -0.000197  1.011261  0.0
H  H25  1  0.77127024  0.29073395  0.87076104  1  0.076279  0.000205  0.104087  0.103549  -0.000197  1.011261  0.0
H  H26  1  0.38594844  0.75201109  0.28546681  1  0.096612  0.00017  0.105501  0.120171  7.8e-05  1.024551  0.0
H  H27  1  0.24799324  0.61405131  0.21453348  1  0.096658  0.00017  0.105522  0.120189  7.8e-05  1.024524  0.0
H  H28  1  0.61404787  0.24798962  0.71453344  1  0.096646  0.00017  0.105475  0.120102  7.8e-05  1.024552  0.0
H  H29  1  0.75200494  0.38594882  0.78546718  1  0.0967  0.00017  0.105473  0.120071  7.8e-05  1.024558  0.0
H  H30  1  0.38632366  0.36591777  0.30950545  1  0.063754  0.000183  0.105043  0.115904  8.9e-05  1.005512  0.0
H  H31  1  0.63408371  0.61367697  0.19049433  1  0.063898  0.000183  0.105021  0.115876  8.9e-05  1.005545  0.0
H  H32  1  0.61366987  0.63408061  0.69049281  1  0.063627  0.000183  0.105038  0.115884  8.9e-05  1.005557  0.0
H  H33  1  0.36591446  0.38632590  0.80950521  1  0.064373  0.000183  0.105077  0.115988  8.9e-05  1.005478  0.0
H  H34  1  0.29265368  0.38611055  0.39602949  1  0.095136  0.00031  0.101371  0.096205  6.1e-05  1.03846  0.0
H  H35  1  0.61388617  0.70733718  0.10396934  1  0.095119  0.00031  0.101385  0.096182  6.1e-05  1.03853  0.0
H  H36  1  0.70733427  0.61388501  0.60396903  1  0.095043  0.00031  0.101381  0.096166  6.1e-05  1.038523  0.0
H  H37  1  0.38610922  0.29266062  0.89602931  1  0.095196  0.00031  0.101361  0.096149  6.1e-05  1.03852  0.0
H  H38  1  0.67682299  0.32075509  0.41529833  1  0.118748  0.001848  0.126191  0.100224  0.000661  0.978537  0.001
H  H39  1  0.67924506  0.32318054  0.08470486  1  0.117348  0.001848  0.126199  0.100285  0.000661  0.978483  0.001
H  H40  1  0.32318076  0.67924329  0.58470085  1  0.118542  0.001849  0.126191  0.100344  0.000661  0.978414  0.001
H  H41  1  0.32075868  0.67681783  0.91529970  1  0.118497  0.001848  0.126147  0.100238  0.000661  0.978473  0.001
H  H42  1  0.47564314  0.28116580  0.36325317  1  0.074153  0.000709  0.103713  0.104946  0.000378  1.04441  0.0
H  H43  1  0.71883537  0.52436153  0.13674932  1  0.074502  0.000709  0.103722  0.104935  0.000378  1.044408  0.0
H  H44  1  0.52436154  0.71882817  0.63674480  1  0.074271  0.000709  0.103733  0.104901  0.000378  1.044442  0.0
H  H45  1  0.28116838  0.47564051  0.86325337  1  0.074164  0.000709  0.103724  0.104899  0.000378  1.04438  0.0
H  H46  1  0.34220991  0.06797594  0.36369410  1  0.084124  9.6e-05  0.112886  0.108872  -1e-05  0.97049  0.0
H  H47  1  0.93202254  0.65779460  0.13630717  1  0.084044  9.5e-05  0.112851  0.108828  -1e-05  0.970471  0.0
H  H48  1  0.65779756  0.93201671  0.63630273  1  0.084051  9.6e-05  0.112904  0.108825  -1e-05  0.97059  0.0
H  H49  1  0.06798028  0.34221001  0.86369246  1  0.084097  9.6e-05  0.112845  0.108816  -1e-05  0.97052  0.0
H  H50  1  0.41704942  0.90513978  0.41532535  1  0.106487  0.000901  0.110825  0.114437  0.000406  1.037704  0.0
H  H51  1  0.09485707  0.58295827  0.08467497  1  0.107135  0.000901  0.110807  0.114455  0.000406  1.037744  0.0
H  H52  1  0.58296549  0.09485328  0.58467043  1  0.107383  0.000901  0.110827  0.114511  0.000406  1.037645  0.0
H  H53  1  0.90514296  0.41704493  0.91532460  1  0.107043  0.000901  0.110796  0.114438  0.000407  1.037761  0.0
H  H54  1  0.50525372  0.77209193  0.44626336  1  0.124133  0.000899  0.108429  0.117656  0.000174  1.025686  0.0
H  H55  1  0.22790669  0.49475022  0.05373688  1  0.124123  0.000899  0.108438  0.117679  0.000174  1.025614  0.0
H  H56  1  0.49475561  0.22790836  0.55373514  1  0.124046  0.000899  0.108432  0.117676  0.000174  1.025701  0.0
H  H57  1  0.77209891  0.50524483  0.94626612  1  0.12399  0.000899  0.108437  0.117678  0.000174  1.025688  0.0
H  H58  1  0.61657191  0.62715869  0.49377428  1  0.113638  0.000166  0.113517  0.110907  -2.1e-05  0.968968  0.0
H  H59  1  0.37283554  0.38342400  0.00622495  1  0.113369  0.000166  0.113497  0.110891  -2.1e-05  0.969039  0.0
H  H60  1  0.38343370  0.37284550  0.50622692  1  0.113673  0.000166  0.113511  0.11088  -2.1e-05  0.968958  0.0
H  H61  1  0.62716542  0.61656748  0.99377562  1  0.113662  0.000166  0.113494  0.110942  -2.1e-05  0.969012  0.0
H  H62  1  0.81537339  0.71211372  0.54261107  1  0.106961  0.000682  0.111631  0.11954  -0.000153  1.03637  0.0
H  H63  1  0.28787594  0.18462140  0.95739068  1  0.10745  0.000682  0.111657  0.119624  -0.000153  1.036293  0.0
H  H64  1  0.18462570  0.28789297  0.45739316  1  0.106852  0.000682  0.111656  0.119638  -0.000153  1.036185  0.0
H  H65  1  0.71211851  0.81537440  0.04260910  1  0.10692  0.000682  0.11164  0.119579  -0.000153  1.036335  0.0
H  H66  1  0.89371161  0.94257876  0.54441758  1  0.147873  0.001276  0.122907  0.098189  0.000258  1.023431  0.001
H  H67  1  0.05741374  0.10628646  0.95558468  1  0.147862  0.001276  0.122871  0.098214  0.000258  1.023401  0.001
H  H68  1  0.10628842  0.05742627  0.45558510  1  0.147998  0.001276  0.122874  0.098149  0.000258  1.023489  0.001
H  H69  1  0.94257978  0.89371557  0.04441594  1  0.147877  0.001276  0.122915  0.098222  0.000258  1.023397  0.001
H  H70  1  0.16812278  0.12773167  0.75970379  1  0.079013  4.3e-05  0.102266  0.117313  -1e-05  1.012769  0.0
H  H71  1  0.87227600  0.83188273  0.74029568  1  0.079033  4.3e-05  0.102283  0.117388  -1e-05  1.012683  0.0
H  H72  1  0.83188190  0.87226779  0.24029618  1  0.079046  4.3e-05  0.102251  0.117271  -1e-05  1.012701  0.0
H  H73  1  0.12772589  0.16812355  0.25970280  1  0.079091  4.3e-05  0.102271  0.117347  -1e-05  1.012647  0.0
H  H74  1  0.12239563  0.04551976  0.84694927  1  0.063442  0.0005  0.104173  0.105049  0.000112  1.011355  0.0
H  H75  1  0.95448382  0.87760094  0.65304962  1  0.063519  0.0005  0.104202  0.105104  0.000112  1.011313  0.0
H  H76  1  0.87760254  0.95448586  0.15305146  1  0.0635  0.0005  0.104222  0.105112  0.000112  1.011311  0.0
H  H77  1  0.04551528  0.12240575  0.34694883  1  0.063645  0.0005  0.104253  0.105111  0.000112  1.011263  0.0
H  H78  1  0.49391819  0.97201718  0.86472058  1  0.110278  0.000243  0.107434  0.112129  -0.000467  1.021423  0.0
H  H79  1  0.02797956  0.50607296  0.63528020  1  0.110155  0.000243  0.107473  0.112191  -0.000467  1.021383  0.0
H  H80  1  0.50607720  0.02798245  0.13528003  1  0.110237  0.000243  0.107462  0.112183  -0.000467  1.021309  0.0
H  H81  1  0.97201396  0.49393274  0.36472009  1  0.110175  0.000243  0.107447  0.112179  -0.000467  1.021361  0.0
H  H82  1  0.54001388  0.05084675  0.77635914  1  0.07714  6e-05  0.104827  0.118441  9e-06  0.991303  0.0
H  H83  1  0.94914795  0.45998034  0.72364180  1  0.07706  6e-05  0.104818  0.118395  9e-06  0.99118  0.0
H  H84  1  0.45998337  0.94914224  0.22364096  1  0.076974  6e-05  0.104793  0.11832  9e-06  0.991196  0.0
H  H85  1  0.05084650  0.54002369  0.27635770  1  0.076991  6e-05  0.104831  0.118395  9e-06  0.991272  0.0
C  C86  1  0.04507603  0.26161522  0.56744192  1  1.572314  0.018182  0.221158  0.588886  0.017863  4.194554  0.017
C  C87  1  0.73837842  0.95492422  0.93255850  1  1.572588  0.018179  0.221101  0.588821  0.017861  4.194687  0.017
C  C88  1  0.95492866  0.73837876  0.43255643  1  1.572397  0.01818  0.221151  0.588893  0.01786  4.19443  0.017
C  C89  1  0.26162068  0.04507972  0.06744107  1  1.572116  0.01818  0.221037  0.588823  0.017859  4.194543  0.017
C  C90  1  0.13374175  0.23138646  0.60842839  1  0.012795  0.002436  -0.026117  -0.057166  0.0013  3.989817  0.001
C  C91  1  0.76861285  0.86626198  0.89157251  1  0.012846  0.002435  -0.026047  -0.056973  0.001299  3.98965  0.001
C  C92  1  0.86626107  0.76861175  0.39157230  1  0.012665  0.002436  -0.026103  -0.05713  0.0013  3.98984  0.001
C  C93  1  0.23138904  0.13374429  0.10842751  1  0.012836  0.002436  -0.026033  -0.057042  0.001299  3.989658  0.001
C  C94  1  0.13417922  0.10699224  0.61956022  1  -0.049288  0.003389  -0.08689  -0.081064  0.002197  3.978845  0.002
C  C95  1  0.89301091  0.86581757  0.88044022  1  -0.049366  0.003389  -0.086877  -0.081065  0.002197  3.978956  0.002
C  C96  1  0.86581895  0.89300697  0.38044004  1  -0.049325  0.003389  -0.086835  -0.080983  0.002197  3.978917  0.002
C  C97  1  0.10699284  0.13418446  0.11956016  1  -0.049303  0.003389  -0.086794  -0.080916  0.002197  3.978718  0.002
C  C98  1  0.21850267  0.07590863  0.65599358  1  -0.020287  -0.000338  -0.098859  -0.19578  -0.000503  3.998364  0.0
C  C99  1  0.92408718  0.78149836  0.84400757  1  -0.020209  -0.000338  -0.098949  -0.195862  -0.000502  3.998801  0.0
C  C100  1  0.78149736  0.92408542  0.34400702  1  -0.020121  -0.000338  -0.098883  -0.195774  -0.000502  3.998611  0.0
C  C101  1  0.07591192  0.21850375  0.15599390  1  -0.020231  -0.000338  -0.098879  -0.195797  -0.000502  3.998611  0.0
C  C102  1  0.30170793  0.29558157  0.67229149  1  -0.058325  -0.000392  -0.104849  -0.201563  -0.00039  3.992369  0.0
C  C103  1  0.70441735  0.69829524  0.82770899  1  -0.058248  -0.000393  -0.10494  -0.201698  -0.00039  3.992309  0.0
C  C104  1  0.69829117  0.70441414  0.32770989  1  -0.058038  -0.000392  -0.104855  -0.201584  -0.00039  3.992154  0.0
C  C105  1  0.29558176  0.30170871  0.17229096  1  -0.05833  -0.000392  -0.104847  -0.201549  -0.00039  3.992288  0.0
C  C106  1  0.21843865  0.32540078  0.63489840  1  -0.070845  0.003553  -0.08311  -0.07266  0.002549  3.98115  0.002
C  C107  1  0.67460285  0.78156274  0.86510254  1  -0.070859  0.003552  -0.083059  -0.072637  0.002549  3.981372  0.002
C  C108  1  0.78156324  0.67459818  0.36510345  1  -0.070708  0.003552  -0.083089  -0.072673  0.002549  3.98122  0.002
C  C109  1  0.32540089  0.21844295  0.13489789  1  -0.070837  0.003552  -0.083178  -0.072715  0.002549  3.981201  0.002
C  C110  1  0.23736084  0.59948204  0.44118891  1  1.564835  0.030038  0.222294  0.595435  0.028684  4.182883  0.026
C  C111  1  0.40051918  0.76263359  0.05880856  1  1.564795  0.030043  0.222355  0.59543  0.02869  4.182648  0.026
C  C112  1  0.76263734  0.40051992  0.55880869  1  1.56503  0.03004  0.22236  0.595458  0.028687  4.182675  0.026
C  C113  1  0.59947342  0.23735915  0.94118999  1  1.564782  0.030036  0.222367  0.59541  0.028684  4.182877  0.026
C  C114  1  0.28987570  0.58160765  0.38958175  1  0.009414  0.002259  -0.023774  -0.055281  0.000838  3.991417  0.0
C  C115  1  0.41839403  0.71011748  0.11041800  1  0.009419  0.002258  -0.023725  -0.055177  0.000837  3.991422  0.0
C  C116  1  0.71011503  0.41839481  0.61041729  1  0.009205  0.002258  -0.023709  -0.055087  0.000837  3.991233  0.0
C  C117  1  0.58159764  0.28988239  0.88958218  1  0.009712  0.002256  -0.023714  -0.055166  0.000837  3.991615  0.0
C  C118  1  0.31366788  0.68295055  0.35745699  1  -0.054764  0.005509  -0.084469  -0.075017  0.004031  3.99612  0.003
C  C119  1  0.31705230  0.68632794  0.14254284  1  -0.05501  0.00551  -0.084439  -0.075027  0.004032  3.996146  0.003
C  C120  1  0.68632565  0.31704966  0.64254360  1  -0.054947  0.00551  -0.08449  -0.075171  0.004032  3.99619  0.003
C  C121  1  0.68294309  0.31366986  0.85745814  1  -0.055048  0.005509  -0.084399  -0.074888  0.004031  3.995882  0.003
C  C122  1  0.36463463  0.67220519  0.30954793  1  0.025298  -0.000842  -0.104855  -0.207846  -0.000864  4.017027  -0.001
C  C123  1  0.32779717  0.63536599  0.19045271  1  0.025356  -0.000842  -0.104834  -0.207769  -0.000864  4.016965  -0.001
C  C124  1  0.63535889  0.32779776  0.69045155  1  0.025273  -0.000842  -0.104862  -0.207719  -0.000864  4.017266  -0.001
C  C125  1  0.67219821  0.36464004  0.80954683  1  0.025388  -0.000842  -0.104874  -0.207758  -0.000864  4.017135  -0.001
C  C126  1  0.39345871  0.55770824  0.29384964  1  0.353833  0.005503  0.083834  0.259444  0.004502  4.047714  0.004
C  C127  1  0.44229070  0.60654217  0.20615093  1  0.353882  0.005503  0.083786  0.259416  0.004502  4.04767  0.004
C  C128  1  0.60653668  0.44228956  0.70614979  1  0.353663  0.005503  0.083911  0.259522  0.004502  4.047782  0.004
C  C129  1  0.55770561  0.39346128  0.79384937  1  0.353657  0.005501  0.083775  0.259372  0.004501  4.048012  0.004
C  C130  1  0.36683351  0.45447634  0.32441388  1  0.01007  -0.001212  -0.103308  -0.20573  -0.001245  4.011705  -0.001
C  C131  1  0.54552643  0.63316593  0.17558670  1  0.009889  -0.001212  -0.103263  -0.205733  -0.001246  4.011639  -0.001
C  C132  1  0.63315909  0.54552645  0.67558481  1  0.010346  -0.001212  -0.103279  -0.205707  -0.001245  4.011813  -0.001
C  C133  1  0.45446895  0.36683736  0.82441358  1  0.009512  -0.001212  -0.103341  -0.205922  -0.001245  4.01162  -0.001
C  C134  1  0.31484159  0.46636492  0.37210073  1  -0.075036  0.006344  -0.084103  -0.074548  0.004743  3.999297  0.004
C  C135  1  0.53363580  0.68515384  0.12789823  1  -0.074919  0.006343  -0.084169  -0.074545  0.004743  3.999579  0.004
C  C136  1  0.68515008  0.53363496  0.62789867  1  -0.074762  0.006342  -0.084187  -0.074576  0.004742  3.99968  0.004
C  C137  1  0.46635866  0.31484379  0.87210157  1  -0.075026  0.006342  -0.084116  -0.07444  0.004742  3.999519  0.004
C  C138  1  0.61675348  0.22949329  0.41321536  1  0.458464  0.009408  0.059153  0.103254  0.007317  3.944165  0.006
C  C139  1  0.77050417  0.38324685  0.08678427  1  0.460116  0.009411  0.059146  0.103182  0.007319  3.944166  0.006
C  C140  1  0.38325213  0.77050634  0.58678231  1  0.459423  0.00941  0.059088  0.103031  0.007319  3.944347  0.006
C  C141  1  0.22949864  0.61675045  0.91321795  1  0.459561  0.00941  0.05915  0.103166  0.007318  3.944212  0.006
C  C142  1  0.50468868  0.20672542  0.38459418  1  -0.005743  0.001671  -0.084418  -0.134076  0.000948  3.988097  0.001
C  C143  1  0.79327694  0.49532165  0.11540800  1  -0.006391  0.001674  -0.084508  -0.134146  0.00095  3.988148  0.001
C  C144  1  0.49531972  0.79327288  0.61540313  1  -0.006251  0.001671  -0.084481  -0.134045  0.000947  3.988155  0.001
C  C145  1  0.20672773  0.50468420  0.88459553  1  -0.006365  0.001672  -0.084351  -0.133844  0.000949  3.988099  0.001
C  C146  1  0.43165442  0.08848134  0.38491476  1  -0.023039  0.009268  -0.066911  -0.024164  0.007114  3.976424  0.005
C  C147  1  0.91151645  0.56834960  0.11508456  1  -0.022825  0.009267  -0.066894  -0.024079  0.007113  3.976684  0.005
C  C148  1  0.56835584  0.91151546  0.61508179  1  -0.023435  0.009269  -0.06687  -0.023974  0.007115  3.976421  0.005
C  C149  1  0.08848916  0.43165186  0.88491584  1  -0.023163  0.009268  -0.066985  -0.024264  0.007114  3.976604  0.005
C  C150  1  0.47345835  0.99721598  0.41328833  1  0.003549  -0.00017  -0.074188  -0.147858  -0.000657  3.925631  -0.001
C  C151  1  0.00278283  0.52655113  0.08671282  1  0.002846  -0.000169  -0.074166  -0.147968  -0.000656  3.925572  -0.001
C  C152  1  0.52655283  0.00278191  0.58670901  1  0.003024  -0.00017  -0.074255  -0.148132  -0.000657  3.925662  -0.001
C  C153  1  0.99721906  0.47345331  0.91328833  1  0.003044  -0.000169  -0.074142  -0.147903  -0.000656  3.925582  -0.001
C  C154  1  0.58884099  0.02603759  0.44002845  1  0.455432  0.01097  0.127047  0.170778  0.008526  3.982262  0.007
C  C155  1  0.97395863  0.41116214  0.05997039  1  0.455674  0.010975  0.127054  0.170839  0.008529  3.982077  0.007
C  C156  1  0.41116647  0.97396329  0.55997042  1  0.455726  0.010973  0.127095  0.170921  0.008528  3.982265  0.007
C  C157  1  0.02604325  0.58883774  0.94003071  1  0.455621  0.010972  0.127052  0.170821  0.008527  3.982144  0.007
C  C158  1  0.64326310  0.93407347  0.46955120  1  0.466189  0.013001  0.122702  0.160268  0.010126  3.997354  0.009
C  C159  1  0.06592334  0.35674087  0.03044941  1  0.465899  0.013008  0.122802  0.16045  0.01013  3.997117  0.009
C  C160  1  0.35674622  0.06592865  0.53044887  1  0.466047  0.013001  0.122728  0.1604  0.010126  3.997337  0.009
C  C161  1  0.93407762  0.64325975  0.96955130  1  0.465936  0.013007  0.122792  0.16049  0.010129  3.997066  0.009
C  C162  1  0.59148954  0.80747013  0.46820688  1  -0.016228  -0.000909  -0.074866  -0.145823  -0.001573  3.918535  -0.001
C  C163  1  0.19252887  0.40850985  0.03179290  1  -0.016326  -0.000908  -0.074875  -0.145843  -0.001573  3.918566  -0.001
C  C164  1  0.40851793  0.19253257  0.53179279  1  -0.016111  -0.000909  -0.074837  -0.145835  -0.001573  3.918657  -0.001
C  C165  1  0.80747395  0.59148745  0.96820855  1  -0.016411  -0.000909  -0.074877  -0.14588  -0.001573  3.91868  -0.001
C  C166  1  0.65301787  0.72668322  0.49505835  1  -0.087863  0.012701  -0.060762  -0.016348  0.009768  3.956683  0.007
C  C167  1  0.27331031  0.34698207  0.00494210  1  -0.087661  0.012703  -0.060815  -0.016488  0.009769  3.956874  0.007
C  C168  1  0.34699052  0.27331872  0.50494325  1  -0.08821  0.0127  -0.060794  -0.01634  0.009767  3.956827  0.007
C  C169  1  0.72668972  0.65301199  0.99505811  1  -0.087518  0.012703  -0.060828  -0.016556  0.009769  3.956849  0.007
C  C170  1  0.76340834  0.77380573  0.52278914  1  0.076035  -0.000204  -0.078198  -0.125075  -0.001118  3.952299  -0.001
C  C171  1  0.22618637  0.23658538  0.97721150  1  0.075932  -0.000203  -0.07817  -0.125012  -0.001117  3.95203  -0.001
C  C172  1  0.23659633  0.22619921  0.47721437  1  0.076465  -0.000204  -0.078233  -0.125189  -0.001118  3.952344  -0.001
C  C173  1  0.77380901  0.76341151  0.02278907  1  0.076141  -0.000204  -0.078177  -0.125009  -0.001118  3.952035  -0.001
C  C174  1  0.80780842  0.90132498  0.52331989  1  0.402801  0.013354  0.059329  0.108373  0.010579  3.916938  0.009
C  C175  1  0.09866580  0.19219234  0.97668163  1  0.402771  0.013354  0.05932  0.108255  0.010579  3.91733  0.009
C  C176  1  0.19219625  0.09867813  0.47668283  1  0.402619  0.013356  0.059323  0.108414  0.01058  3.917321  0.009
C  C177  1  0.90133051  0.80780837  0.02331863  1  0.402811  0.013354  0.059323  0.108286  0.010579  3.91722  0.009
C  C178  1  0.30157522  0.17086697  0.68214033  1  0.402282  0.002605  0.07902  0.250094  0.002153  4.050831  0.002
C  C179  1  0.82913827  0.69842608  0.81786095  1  0.402138  0.002605  0.079081  0.250091  0.002153  4.050703  0.002
C  C180  1  0.69842388  0.82913241  0.31786110  1  0.402116  0.002604  0.079017  0.250045  0.002153  4.050679  0.002
C  C181  1  0.17086640  0.30157886  0.18214025  1  0.402225  0.002605  0.079058  0.250089  0.002153  4.05079  0.002
C  C182  1  0.35699220  0.09346246  0.76321038  1  0.363364  0.004868  0.089234  0.273279  0.003969  4.051575  0.003
C  C183  1  0.90653669  0.64300436  0.73678995  1  0.363293  0.004871  0.089229  0.273313  0.003971  4.051418  0.003
C  C184  1  0.64300783  0.90652976  0.23679020  1  0.363304  0.004871  0.089209  0.273048  0.003971  4.051586  0.003
C  C185  1  0.09346148  0.35699760  0.26320803  1  0.363763  0.004872  0.089217  0.273341  0.003972  4.051257  0.003
C  C186  1  0.23888065  0.09287337  0.78259378  1  -0.000752  -0.001026  -0.115062  -0.230079  -0.001034  4.027356  -0.001
C  C187  1  0.90713060  0.76112005  0.71740362  1  -0.000558  -0.001027  -0.115001  -0.230122  -0.001034  4.027359  -0.001
C  C188  1  0.76112217  0.90712851  0.21740235  1  -0.000685  -0.001026  -0.115022  -0.229895  -0.001034  4.027634  -0.001
C  C189  1  0.09286664  0.23888723  0.28259635  1  -0.000606  -0.001027  -0.114993  -0.230128  -0.001034  4.027361  -0.001
C  C190  1  0.21390558  0.04740324  0.83129221  1  0.013659  0.006412  -0.082781  -0.065183  0.004815  3.992526  0.004
C  C191  1  0.95259874  0.78608954  0.66870739  1  0.013573  0.006412  -0.082857  -0.065333  0.004815  3.992561  0.004
C  C192  1  0.78609259  0.95259505  0.16870996  1  0.013458  0.006411  -0.082836  -0.065271  0.004814  3.992878  0.004
C  C193  1  0.04740036  0.21391625  0.33129105  1  0.012893  0.006414  -0.082951  -0.065335  0.004816  3.992464  0.004
C  C194  1  0.30504546  0.00332632  0.86115185  1  -0.046367  -0.001174  -0.032867  -0.07501  -0.002497  4.014939  -0.002
C  C195  1  0.99667387  0.69495219  0.63884734  1  -0.046166  -0.001175  -0.032757  -0.07468  -0.002498  4.014519  -0.002
C  C196  1  0.69496014  0.99667422  0.13884853  1  -0.045823  -0.001176  -0.032821  -0.07493  -0.002497  4.014816  -0.002
C  C197  1  0.00332151  0.30505201  0.36115372  1  -0.045934  -0.001176  -0.0328  -0.074827  -0.002499  4.014582  -0.002
C  C198  1  0.42295520  0.00482402  0.84109716  1  -0.057578  0.005257  -0.076166  -0.057218  0.003698  3.966956  0.003
C  C199  1  0.99517354  0.57703768  0.65890421  1  -0.057351  0.005259  -0.07627  -0.057441  0.0037  3.966964  0.003
C  C200  1  0.57704390  0.99517078  0.15890497  1  -0.057726  0.005258  -0.076293  -0.057398  0.003699  3.966969  0.003
C  C201  1  0.00482184  0.42296378  0.34109450  1  -0.057576  0.00526  -0.076205  -0.057346  0.0037  3.966927  0.003
C  C202  1  0.44868952  0.04856168  0.79227595  1  0.02864  -0.001273  -0.105067  -0.20751  -0.001273  4.000033  -0.001
C  C203  1  0.95143690  0.55130726  0.70772395  1  0.028577  -0.001273  -0.105012  -0.207392  -0.001273  3.999942  -0.001
C  C204  1  0.55131238  0.95143454  0.20772278  1  0.028851  -0.001273  -0.104936  -0.20719  -0.001273  3.99982  -0.001
C  C205  1  0.04855756  0.44869494  0.29227514  1  0.02818  -0.001274  -0.105037  -0.207414  -0.001273  3.999885  -0.001
C  C206  1  0.27414135  0.95293379  0.91237285  1  1.503282  0.024587  0.213614  0.565561  0.024858  4.188395  0.02
C  C207  1  0.04706713  0.72585123  0.58762767  1  1.502474  0.024598  0.213465  0.565245  0.024864  4.188664  0.02
C  C208  1  0.72585496  0.04706692  0.08762817  1  1.503043  0.024587  0.213468  0.565285  0.024859  4.188699  0.02
C  C209  1  0.95293290  0.27414740  0.41237261  1  1.50367  0.02459  0.213519  0.565385  0.024863  4.188669  0.02
N  N210  1  0.65820335  0.14120719  0.43985509  1  -1.244088  0.051619  -0.310719  -0.26742  0.034112  3.489793  0.018
N  N211  1  0.85879322  0.34180147  0.06014577  1  -1.24434  0.051628  -0.310701  -0.267421  0.034117  3.48997  0.018
N  N212  1  0.34180133  0.85879501  0.56014377  1  -1.244304  0.051621  -0.310719  -0.267495  0.034115  3.489929  0.018
N  N213  1  0.14120960  0.65820131  0.93985653  1  -1.244372  0.051623  -0.310702  -0.26746  0.034117  3.489844  0.018
N  N214  1  0.74925516  0.97971180  0.49746296  1  -1.262725  0.059555  -0.315467  -0.277468  0.039861  3.490823  0.019
N  N215  1  0.02028180  0.25074425  0.00253752  1  -1.262641  0.059558  -0.315483  -0.277501  0.039865  3.491155  0.019
N  N216  1  0.25074951  0.02029040  0.50253897  1  -1.26293  0.05956  -0.315398  -0.277508  0.039864  3.491027  0.019
N  N217  1  0.97971637  0.74925861  0.99746317  1  -1.262631  0.059562  -0.315472  -0.277474  0.039864  3.490964  0.019
O  O218  1  0.96446314  0.17055888  0.54863758  1  -1.201116  0.071204  -0.31766  -0.551281  0.047832  2.347391  0.03
O  O219  1  0.82944034  0.03554017  0.95136425  1  -1.20106  0.071203  -0.317653  -0.551309  0.047834  2.347205  0.03
O  O220  1  0.03553689  0.82943701  0.45136381  1  -1.20104  0.071202  -0.317595  -0.551249  0.047831  2.347281  0.03
O  O221  1  0.17056248  0.96446444  0.04863692  1  -1.201011  0.0712  -0.317574  -0.551248  0.047832  2.347248  0.03
O  O222  1  0.26232395  0.71048815  0.46088271  1  -1.211361  0.07685  -0.323479  -0.575307  0.053008  2.376798  0.033
O  O223  1  0.28950786  0.73766927  0.03911623  1  -1.211335  0.076856  -0.323544  -0.575341  0.053011  2.376653  0.033
O  O224  1  0.73767237  0.28950616  0.53911629  1  -1.211266  0.076849  -0.323533  -0.575352  0.05301  2.376664  0.033
O  O225  1  0.71048474  0.26232621  0.96088236  1  -1.211225  0.076848  -0.32347  -0.575284  0.053004  2.376721  0.033
O  O226  1  0.05632830  0.37345479  0.55416588  1  -1.201164  0.060516  -0.301116  -0.571653  0.044471  2.341692  0.028
O  O227  1  0.62654723  0.94368060  0.94583057  1  -1.201557  0.060514  -0.301043  -0.571541  0.044463  2.341878  0.028
O  O228  1  0.94368197  0.62654018  0.44582833  1  -1.201382  0.06051  -0.301185  -0.571694  0.044466  2.34159  0.028
O  O229  1  0.37345652  0.05632967  0.05416684  1  -1.201095  0.060515  -0.301111  -0.571669  0.044468  2.341728  0.028
O  O230  1  0.17338724  0.50668598  0.46171303  1  -1.195941  0.061742  -0.303189  -0.564156  0.043842  2.302996  0.028
O  O231  1  0.49331250  0.82660007  0.03828391  1  -1.196024  0.061759  -0.303207  -0.56415  0.043842  2.30312  0.028
O  O232  1  0.82660257  0.49331540  0.53828522  1  -1.19603  0.061745  -0.303225  -0.564175  0.043839  2.303108  0.028
O  O233  1  0.50667917  0.17339524  0.96171581  1  -1.196266  0.061735  -0.303263  -0.564166  0.043838  2.303149  0.028
O  O234  1  0.45834437  0.54165766  0.25000049  1  -1.110512  0.002546  -0.152705  -0.222957  0.001678  2.591099  0.002
O  O235  1  0.54165287  0.45834413  0.74999902  1  -1.110546  0.002546  -0.152634  -0.222876  0.001678  2.591098  0.002
O  O236  1  0.39194220  0.14177961  0.71656433  1  -1.104983  0.002107  -0.153781  -0.225153  0.001452  2.587119  0.001
O  O237  1  0.85821813  0.60805617  0.78343639  1  -1.104984  0.002107  -0.153814  -0.225158  0.001452  2.587112  0.001
O  O238  1  0.60805783  0.85821536  0.28343667  1  -1.104991  0.002107  -0.153798  -0.225122  0.001452  2.587128  0.001
O  O239  1  0.14177911  0.39195019  0.21656318  1  -1.105136  0.002108  -0.153843  -0.225233  0.001453  2.587127  0.001
O  O240  1  0.35616193  0.91317074  0.94091664  1  -1.217004  0.087106  -0.305525  -0.591074  0.06499  2.343158  0.039
O  O241  1  0.08682514  0.64382908  0.55908338  1  -1.216506  0.087088  -0.305519  -0.591051  0.064979  2.343235  0.039
O  O242  1  0.64383532  0.08682647  0.05908320  1  -1.217046  0.087112  -0.305502  -0.590964  0.064981  2.343259  0.039
O  O243  1  0.91316931  0.35616581  0.44091715  1  -1.217093  0.087103  -0.305515  -0.59107  0.064984  2.343253  0.039
O  O244  1  0.16271747  0.94463780  0.92700467  1  -1.179058  0.071427  -0.304804  -0.538672  0.050467  2.286078  0.039
O  O245  1  0.05536370  0.83727838  0.57299516  1  -1.179004  0.071432  -0.304743  -0.538538  0.05047  2.286095  0.039
O  O246  1  0.83727977  0.05536673  0.07299527  1  -1.179054  0.071423  -0.304737  -0.538564  0.050468  2.28617  0.039
O  O247  1  0.94464191  0.16272124  0.42700328  1  -1.178992  0.071408  -0.304721  -0.538526  0.050464  2.286141  0.039
