# generated using pymatgen
data_SmH14C11NO8
_symmetry_space_group_name_H-M   'P 1'
_cell_length_a   8.44557955
_cell_length_b   11.81387813
_cell_length_c   13.41356902
_cell_angle_alpha   90.00003654
_cell_angle_beta   89.99996630
_cell_angle_gamma   95.76307202
_symmetry_Int_Tables_number   1
_chemical_formula_structural   SmH14C11NO8
_chemical_formula_sum   'Sm4 H56 C44 N4 O32'
_cell_volume   1331.57502860
_cell_formula_units_Z   4
loop_
 _symmetry_equiv_pos_site_id
 _symmetry_equiv_pos_as_xyz
  1  'x, y, z'
loop_
 _atom_site_type_symbol
 _atom_site_label
 _atom_site_symmetry_multiplicity
 _atom_site_fract_x
 _atom_site_fract_y
 _atom_site_fract_z
 _atom_site_occupancy
 _atom_site_hle17_bader_spin_density
 _atom_site_hle17_ddec_charge
 _atom_site_hle17_ddec_spin_density
 _atom_site_hle17_ddec_sum_bond_order
 _atom_site_hle17_magmom
 _atom_site_hse06_10hf_bader_spin_density
 _atom_site_hse06_10hf_ddec_charge
 _atom_site_hse06_10hf_ddec_spin_density
 _atom_site_hse06_10hf_ddec_sum_bond_order
 _atom_site_hse06_10hf_magmom
 _atom_site_hse06_bader_spin_density
 _atom_site_hse06_ddec_charge
 _atom_site_hse06_ddec_spin_density
 _atom_site_hse06_ddec_sum_bond_order
 _atom_site_hse06_magmom
 _atom_site_pbe_bader_spin_density
 _atom_site_pbe_cm5_charge
 _atom_site_pbe_ddec_charge
 _atom_site_pbe_ddec_spin_density
 _atom_site_pbe_ddec_sum_bond_order
 _atom_site_pbe_magmom
Sm  Sm0  1  0.00683889  0.83487877  0.40437956  1  0  2.274909  0  1.621568  0  0  2.104266  0  2.096606  0  0  2.214519  0  1.931944  0  0  1.497837  2.070081  0  2.129817  0
Sm  Sm1  1  0.49316104  0.16512214  0.90437969  1  0  2.274909  0  1.621562  0  0  2.104267  0  2.0966  0  0  2.214523  0  1.931935  0  0  1.497834  2.070084  0  2.129806  0
Sm  Sm2  1  0.99316093  0.16512144  0.59561986  1  0  2.2749  0  1.621573  0  0  2.104266  0  2.096597  0  0  2.214511  0  1.931951  0  0  1.497833  2.070085  0  2.129794  0
Sm  Sm3  1  0.50683878  0.83487808  0.09562048  1  0  2.274914  0  1.621556  0  0  2.10427  0  2.09659  0  0  2.214524  0  1.931927  0  0  1.497837  2.070087  0  2.129798  0
H  H4  1  0.79960244  0.02625043  0.38625127  1  0  0.445413  0  0.852328  0  0  0.413694  0  0.918  0  0  0.424705  0  0.901918  0  0  0.302259  0.405904  0  0.929553  0
H  H5  1  0.70039821  0.97374928  0.88625197  1  0  0.445401  0  0.852339  0  0  0.413683  0  0.918008  0  0  0.424694  0  0.901927  0  0  0.302248  0.405893  0  0.929564  0
H  H6  1  0.20039844  0.97374893  0.61374815  1  0  0.445406  0  0.852333  0  0  0.413684  0  0.91801  0  0  0.424696  0  0.901928  0  0  0.302246  0.405894  0  0.929566  0
H  H7  1  0.29960279  0.02625093  0.11374820  1  0  0.445435  0  0.852288  0  0  0.413723  0  0.917948  0  0  0.424733  0  0.901867  0  0  0.302264  0.405931  0  0.929507  0
H  H8  1  0.77926029  0.97278593  0.27556884  1  0  0.450277  0  0.847799  0  0  0.420447  0  0.908478  0  0  0.432056  0  0.891816  0  0  0.300984  0.412447  0  0.920044  0
H  H9  1  0.72073940  0.02721457  0.77556975  1  0  0.450296  0  0.847773  0  0  0.420467  0  0.90845  0  0  0.432075  0  0.891788  0  0  0.301004  0.412463  0  0.920023  0
H  H10  1  0.22074084  0.02721514  0.72443058  1  0  0.450306  0  0.84778  0  0  0.420476  0  0.908459  0  0  0.432085  0  0.891796  0  0  0.300991  0.412474  0  0.920028  0
H  H11  1  0.27926042  0.97278565  0.22443042  1  0  0.450261  0  0.847825  0  0  0.42042  0  0.908517  0  0  0.432039  0  0.891841  0  0  0.300992  0.412422  0  0.920077  0
H  H12  1  0.93950231  0.76227819  0.18986822  1  0  0.446967  0  0.843171  0  0  0.419412  0  0.899946  0  0  0.430447  0  0.884043  0  0  0.303981  0.411848  0  0.910899  0
H  H13  1  0.56049733  0.23772140  0.68986856  1  0  0.44696  0  0.843196  0  0  0.419403  0  0.899975  0  0  0.430438  0  0.884071  0  0  0.30398  0.411837  0  0.910932  0
H  H14  1  0.06049739  0.23772118  0.81013194  1  0  0.446967  0  0.843183  0  0  0.419409  0  0.899961  0  0  0.430444  0  0.884058  0  0  0.303981  0.411842  0  0.910919  0
H  H15  1  0.43950249  0.76227882  0.31013161  1  0  0.44695  0  0.843207  0  0  0.419395  0  0.899981  0  0  0.430431  0  0.884078  0  0  0.303991  0.411831  0  0.910936  0
H  H16  1  0.12665188  0.75029998  0.20037937  1  0  0.447511  0  0.84998  0  0  0.416639  0  0.913062  0  0  0.428241  0  0.896319  0  0  0.301567  0.408619  0  0.924725  0
H  H17  1  0.37334809  0.24969994  0.70037885  1  0  0.447523  0  0.849962  0  0  0.416651  0  0.913046  0  0  0.428253  0  0.896302  0  0  0.301573  0.408635  0  0.924701  0
H  H18  1  0.87334807  0.24970109  0.79962005  1  0  0.447513  0  0.849976  0  0  0.416642  0  0.913056  0  0  0.428242  0  0.896316  0  0  0.301572  0.408623  0  0.924717  0
H  H19  1  0.62665173  0.75030028  0.29962132  1  0  0.447529  0  0.849956  0  0  0.416656  0  0.913044  0  0  0.428258  0  0.896301  0  0  0.301565  0.408638  0  0.924702  0
H  H20  1  0.64913070  0.45809316  0.55749667  1  0  0.127909  0  0.961755  0  0  0.132171  0  1.028705  0  0  0.136473  0  1.025725  0  0  0.111156  0.129096  0  1.030828  0
H  H21  1  0.85087141  0.54190633  0.05749774  1  0  0.127918  0  0.961775  0  0  0.132178  0  1.028716  0  0  0.13648  0  1.025741  0  0  0.111147  0.129106  0  1.030828  0
H  H22  1  0.35086806  0.54190791  0.44250349  1  0  0.127884  0  0.961774  0  0  0.132166  0  1.028701  0  0  0.136471  0  1.025715  0  0  0.111157  0.129095  0  1.030819  0
H  H23  1  0.14912947  0.45809303  0.94250317  1  0  0.127898  0  0.961759  0  0  0.132155  0  1.028709  0  0  0.136459  0  1.025726  0  0  0.111151  0.129083  0  1.030826  0
H  H24  1  0.80122467  0.42722226  0.71638723  1  0  0.111219  0  0.953678  0  0  0.1196  0  1.014904  0  0  0.123299  0  1.011791  0  0  0.116178  0.116796  0  1.017405  0
H  H25  1  0.69877625  0.57277819  0.21638838  1  0  0.111228  0  0.953635  0  0  0.119623  0  1.014847  0  0  0.123323  0  1.011734  0  0  0.116171  0.11682  0  1.017347  0
H  H26  1  0.19877396  0.57277796  0.28361219  1  0  0.111255  0  0.953626  0  0  0.119598  0  1.014898  0  0  0.123297  0  1.011788  0  0  0.116177  0.116798  0  1.017401  0
H  H27  1  0.30122463  0.42722117  0.78361328  1  0  0.111228  0  0.95367  0  0  0.119618  0  1.014884  0  0  0.123317  0  1.011771  0  0  0.116183  0.116813  0  1.017385  0
H  H28  1  0.05387043  0.54938039  0.74769377  1  0  0.114209  0  0.953242  0  0  0.125621  0  1.009738  0  0  0.128613  0  1.009242  0  0  0.111004  0.123508  0  1.010319  0
H  H29  1  0.44613174  0.45061870  0.24769475  1  0  0.114203  0  0.953283  0  0  0.125617  0  1.009772  0  0  0.128609  0  1.009276  0  0  0.11101  0.123508  0  1.010358  0
H  H30  1  0.94612808  0.45061898  0.25230566  1  0  0.114208  0  0.953242  0  0  0.125617  0  1.009742  0  0  0.12861  0  1.009243  0  0  0.111005  0.123505  0  1.010321  0
H  H31  1  0.55387019  0.54937981  0.75230766  1  0  0.114177  0  0.953227  0  0  0.125581  0  1.009743  0  0  0.128574  0  1.009246  0  0  0.110986  0.123467  0  1.010326  0
H  H32  1  0.15065982  0.69514620  0.61935211  1  0  0.070886  0  0.960562  0  0  0.080133  0  1.024815  0  0  0.082678  0  1.022827  0  0  0.114982  0.078297  0  1.026257  0
H  H33  1  0.34934165  0.30485537  0.11935230  1  0  0.070849  0  0.960604  0  0  0.080088  0  1.024866  0  0  0.082633  0  1.022878  0  0  0.114948  0.07825  0  1.026306  0
H  H34  1  0.84933894  0.30485487  0.38064881  1  0  0.070892  0  0.96054  0  0  0.080137  0  1.024799  0  0  0.082682  0  1.02281  0  0  0.114982  0.078302  0  1.026236  0
H  H35  1  0.65065842  0.69514655  0.88064862  1  0  0.070832  0  0.960572  0  0  0.080066  0  1.024856  0  0  0.082612  0  1.022862  0  0  0.11494  0.078223  0  1.026299  0
H  H36  1  0.27852433  0.26348031  0.35943009  1  0  0.103276  0  0.954482  0  0  0.116089  0  1.015672  0  0  0.117255  0  1.017627  0  0  0.098764  0.115415  0  1.0141  0
H  H37  1  0.22147445  0.73652057  0.85942990  1  0  0.103295  0  0.954473  0  0  0.116105  0  1.015666  0  0  0.117258  0  1.017636  0  0  0.098766  0.115432  0  1.014092  0
H  H38  1  0.72147667  0.73651990  0.64056933  1  0  0.103261  0  0.954497  0  0  0.116072  0  1.015691  0  0  0.117225  0  1.017658  0  0  0.098755  0.115397  0  1.014116  0
H  H39  1  0.77852550  0.26348050  0.14057027  1  0  0.103273  0  0.954491  0  0  0.116082  0  1.015684  0  0  0.117235  0  1.017653  0  0  0.098765  0.11541  0  1.014109  0
H  H40  1  0.31206665  0.17826828  0.25323237  1  0  0.102432  0  0.945888  0  0  0.115018  0  1.010429  0  0  0.117518  0  1.008786  0  0  0.102155  0.113179  0  1.011455  0
H  H41  1  0.18793458  0.82173252  0.75323224  1  0  0.102447  0  0.945861  0  0  0.115029  0  1.010406  0  0  0.11753  0  1.008761  0  0  0.102166  0.113193  0  1.011433  0
H  H42  1  0.68793435  0.82173193  0.74676705  1  0  0.102463  0  0.945862  0  0  0.115042  0  1.010412  0  0  0.117541  0  1.008767  0  0  0.102166  0.1132  0  1.01144  0
H  H43  1  0.81206642  0.17826769  0.24676793  1  0  0.10246  0  0.945838  0  0  0.115032  0  1.010394  0  0  0.117532  0  1.008751  0  0  0.102166  0.113193  0  1.011422  0
H  H44  1  0.52245812  0.08699199  0.34710591  1  0  0.076122  0  0.925642  0  0  0.095878  0  0.981936  0  0  0.097332  0  0.981701  0  0  0.098073  0.094629  0  0.982326  0
H  H45  1  0.97754269  0.91300854  0.84710572  1  0  0.076146  0  0.925652  0  0  0.095904  0  0.981939  0  0  0.097358  0  0.981705  0  0  0.098096  0.094652  0  0.982335  0
H  H46  1  0.47754288  0.91300822  0.65289426  1  0  0.076137  0  0.925636  0  0  0.095893  0  0.981935  0  0  0.097348  0  0.981701  0  0  0.098074  0.094642  0  0.982329  0
H  H47  1  0.02245713  0.08699167  0.15289371  1  0  0.076129  0  0.925644  0  0  0.095885  0  0.981943  0  0  0.09734  0  0.981708  0  0  0.098071  0.094634  0  0.982338  0
H  H48  1  0.56668015  0.23506044  0.32922330  1  0  0.067028  0  0.929855  0  0  0.087535  0  0.988751  0  0  0.08802  0  0.989717  0  0  0.093634  0.087098  0  0.988088  0
H  H49  1  0.93332068  0.76494009  0.82922305  1  0  0.067046  0  0.929858  0  0  0.087555  0  0.98875  0  0  0.08804  0  0.989717  0  0  0.09364  0.08712  0  0.988085  0
H  H50  1  0.43332073  0.76493892  0.67077612  1  0  0.067031  0  0.929886  0  0  0.087537  0  0.988786  0  0  0.088022  0  0.989753  0  0  0.093635  0.087099  0  0.988125  0
H  H51  1  0.06668020  0.23505927  0.17077638  1  0  0.067041  0  0.929878  0  0  0.08755  0  0.988774  0  0  0.088035  0  0.98974  0  0  0.093648  0.087113  0  0.988112  0
H  H52  1  0.47302113  0.27261035  0.50296903  1  0  0.114773  0  0.935552  0  0  0.13221  0  0.989575  0  0  0.134036  0  0.989548  0  0  0.109283  0.130635  0  0.989977  0
H  H53  1  0.02697913  0.72739029  0.00296809  1  0  0.1148  0  0.935546  0  0  0.132234  0  0.989567  0  0  0.13407  0  0.989527  0  0  0.109281  0.130659  0  0.989966  0
H  H54  1  0.52697869  0.72738986  0.49703039  1  0  0.114801  0  0.935551  0  0  0.132207  0  0.989583  0  0  0.134035  0  0.989553  0  0  0.10928  0.130632  0  0.989984  0
H  H55  1  0.97302187  0.27260992  0.99703208  1  0  0.114794  0  0.935555  0  0  0.13221  0  0.989569  0  0  0.134047  0  0.989528  0  0  0.109279  0.130634  0  0.989971  0
H  H56  1  0.43012848  0.12651055  0.52441519  1  0  0.122284  0  0.912531  0  0  0.13979  0  0.965465  0  0  0.142417  0  0.964415  0  0  0.114763  0.137794  0  0.966589  0
H  H57  1  0.06987164  0.87348926  0.02441506  1  0  0.122304  0  0.912534  0  0  0.139808  0  0.96547  0  0  0.142435  0  0.964418  0  0  0.114762  0.137809  0  0.966598  0
H  H58  1  0.56987147  0.87349052  0.47558423  1  0  0.122315  0  0.912529  0  0  0.139794  0  0.96546  0  0  0.142422  0  0.964408  0  0  0.114758  0.1378  0  0.966581  0
H  H59  1  0.93012805  0.12651011  0.97558436  1  0  0.122316  0  0.912533  0  0  0.139815  0  0.965448  0  0  0.142444  0  0.964395  0  0  0.11476  0.137816  0  0.966574  0
C  C60  1  0.72965875  0.61377385  0.41508121  1  0  0.612102  0  3.950271  0  0  0.561162  0  4.254771  0  0  0.593273  0  4.249112  0  0  0.210156  0.5393  0  4.259933  0
C  C61  1  0.77034201  0.38622673  0.91508080  1  0  0.612212  0  3.950273  0  0  0.56127  0  4.254772  0  0  0.593381  0  4.249111  0  0  0.210178  0.539411  0  4.259924  0
C  C62  1  0.27034107  0.38622637  0.58491821  1  0  0.612177  0  3.950402  0  0  0.561234  0  4.254922  0  0  0.593346  0  4.249261  0  0  0.210162  0.539359  0  4.260096  0
C  C63  1  0.22965769  0.61377263  0.08491936  1  0  0.61207  0  3.950159  0  0  0.561119  0  4.254701  0  0  0.593228  0  4.249043  0  0  0.210133  0.539255  0  4.259869  0
C  C64  1  0.82253103  0.59104693  0.50780297  1  0  0.087443  0  3.785779  0  0  0.095378  0  4.026347  0  0  0.095311  0  4.049448  0  0  0.108904  0.094852  0  4.013094  0
C  C65  1  0.67747007  0.40895338  0.00780403  1  0  0.087503  0  3.78585  0  0  0.095434  0  4.026413  0  0  0.095368  0  4.049514  0  0  0.108926  0.094908  0  4.013154  0
C  C66  1  0.17746774  0.40895414  0.49219645  1  0  0.087455  0  3.785753  0  0  0.095358  0  4.026378  0  0  0.095291  0  4.04948  0  0  0.1089  0.094833  0  4.013128  0
C  C67  1  0.32253093  0.59104683  0.99219763  1  0  0.087587  0  3.785679  0  0  0.095452  0  4.026345  0  0  0.095386  0  4.049445  0  0  0.108908  0.094918  0  4.013103  0
C  C68  1  0.76193618  0.50697644  0.57443772  1  0  -0.105503  0  3.680458  0  0  -0.127964  0  3.930758  0  0  -0.131916  0  3.948631  0  0  -0.072412  -0.125369  0  3.918267  0
C  C69  1  0.73806474  0.49302306  0.07443806  1  0  -0.105589  0  3.680667  0  0  -0.12804  0  3.930965  0  0  -0.131995  0  3.948838  0  0  -0.072429  -0.125444  0  3.918462  0
C  C70  1  0.23806128  0.49302378  0.42556170  1  0  -0.105513  0  3.680506  0  0  -0.127975  0  3.93079  0  0  -0.131928  0  3.948663  0  0  -0.07242  -0.125384  0  3.918303  0
C  C71  1  0.26193627  0.50697715  0.92556286  1  0  -0.105506  0  3.680582  0  0  -0.12794  0  3.930889  0  0  -0.131893  0  3.948763  0  0  -0.072394  -0.125348  0  3.918397  0
C  C72  1  0.84501353  0.49128534  0.66213174  1  0  0.001294  0  3.687873  0  0  -0.020456  0  3.945715  0  0  -0.017401  0  3.961891  0  0  -0.058214  -0.02217  0  3.934815  0
C  C73  1  0.65498837  0.50871337  0.16213286  1  0  0.001274  0  3.687931  0  0  -0.0205  0  3.945781  0  0  -0.017445  0  3.961956  0  0  -0.058221  -0.022215  0  3.934887  0
C  C74  1  0.15498392  0.50871489  0.33786843  1  0  0.001273  0  3.687851  0  0  -0.020461  0  3.945703  0  0  -0.017406  0  3.961879  0  0  -0.058203  -0.022178  0  3.934811  0
C  C75  1  0.34501238  0.49128514  0.83786955  1  0  0.001178  0  3.688056  0  0  -0.020575  0  3.945872  0  0  -0.017521  0  3.962051  0  0  -0.058263  -0.022291  0  3.934976  0
C  C76  1  0.98679147  0.55949882  0.67956184  1  0  -0.107574  0  3.69624  0  0  -0.122079  0  3.947711  0  0  -0.127399  0  3.9674  0  0  -0.076815  -0.118499  0  3.934006  0
C  C77  1  0.51320948  0.44050161  0.17956372  1  0  -0.107586  0  3.696242  0  0  -0.122097  0  3.947718  0  0  -0.127418  0  3.967406  0  0  -0.076828  -0.118528  0  3.934034  0
C  C78  1  0.01320835  0.44050140  0.32043833  1  0  -0.107573  0  3.696251  0  0  -0.12207  0  3.94771  0  0  -0.127389  0  3.967398  0  0  -0.076822  -0.118488  0  3.934006  0
C  C79  1  0.48679021  0.55949776  0.82043794  1  0  -0.107536  0  3.696211  0  0  -0.122041  0  3.947669  0  0  -0.127361  0  3.967359  0  0  -0.076812  -0.118465  0  3.933965  0
C  C80  1  0.04020480  0.64058216  0.60852054  1  0  0.139484  0  3.720514  0  0  0.110996  0  3.980321  0  0  0.116099  0  4.001121  0  0  0.047994  0.107661  0  3.967828  0
C  C81  1  0.45979643  0.35941770  0.10852147  1  0  0.139584  0  3.720495  0  0  0.11111  0  3.980279  0  0  0.116214  0  4.001079  0  0  0.048045  0.107777  0  3.967785  0
C  C82  1  0.95979383  0.35941806  0.39147962  1  0  0.139459  0  3.720504  0  0  0.110978  0  3.980298  0  0  0.11608  0  4.001097  0  0  0.047991  0.107644  0  3.967799  0
C  C83  1  0.54020339  0.64058252  0.89147944  1  0  0.13961  0  3.72048  0  0  0.111128  0  3.980259  0  0  0.116232  0  4.001062  0  0  0.048071  0.107805  0  3.967754  0
C  C84  1  0.20186880  0.08569253  0.37568374  1  0  0.766808  0  3.787143  0  0  0.72486  0  4.075342  0  0  0.759008  0  4.069906  0  0  0.236783  0.701799  0  4.081532  0
C  C85  1  0.29813208  0.91430665  0.87568437  1  0  0.766867  0  3.787141  0  0  0.724911  0  4.075354  0  0  0.759059  0  4.069914  0  0  0.236802  0.701851  0  4.081544  0
C  C86  1  0.79813220  0.91430768  0.62431568  1  0  0.766835  0  3.787107  0  0  0.724867  0  4.07534  0  0  0.759012  0  4.069903  0  0  0.236782  0.701809  0  4.081526  0
C  C87  1  0.70186762  0.08569271  0.12431580  1  0  0.766836  0  3.787162  0  0  0.72487  0  4.075387  0  0  0.759019  0  4.069948  0  0  0.236792  0.701809  0  4.081578  0
C  C88  1  0.31608866  0.18163391  0.33498466  1  0  -0.276252  0  3.640871  0  0  -0.311711  0  3.887026  0  0  -0.317327  0  3.893627  0  0  -0.161776  -0.307219  0  3.881091  0
C  C89  1  0.18391133  0.81836695  0.83498453  1  0  -0.276266  0  3.640887  0  0  -0.311714  0  3.887046  0  0  -0.317321  0  3.893654  0  0  -0.161768  -0.307222  0  3.88111  0
C  C90  1  0.68391235  0.81836630  0.66501551  1  0  -0.276255  0  3.640836  0  0  -0.311702  0  3.887009  0  0  -0.317299  0  3.893602  0  0  -0.161777  -0.307205  0  3.881068  0
C  C91  1  0.81608849  0.18163327  0.16501564  1  0  -0.276249  0  3.640846  0  0  -0.311684  0  3.887017  0  0  -0.317292  0  3.893625  0  0  -0.16177  -0.30719  0  3.88108  0
C  C92  1  0.48781842  0.17065749  0.36939456  1  0  -0.044204  0  3.652976  0  0  -0.088226  0  3.912326  0  0  -0.087359  0  3.924168  0  0  -0.156662  -0.088401  0  3.903564  0
C  C93  1  0.01218259  0.82934254  0.86939450  1  0  -0.044255  0  3.653066  0  0  -0.088284  0  3.912421  0  0  -0.087416  0  3.924262  0  0  -0.156706  -0.088459  0  3.903662  0
C  C94  1  0.51218246  0.82934187  0.63060486  1  0  -0.044186  0  3.652999  0  0  -0.088244  0  3.912343  0  0  -0.08738  0  3.924182  0  0  -0.156648  -0.088416  0  3.903585  0
C  C95  1  0.98781723  0.17065767  0.13060567  1  0  -0.044232  0  3.653053  0  0  -0.088291  0  3.912401  0  0  -0.087424  0  3.924243  0  0  -0.156694  -0.088466  0  3.903645  0
C  C96  1  0.50865576  0.18909061  0.48146615  1  0  -0.271689  0  3.648393  0  0  -0.303925  0  3.892051  0  0  -0.309577  0  3.899132  0  0  -0.161041  -0.299701  0  3.886783  0
C  C97  1  0.99134494  0.81091002  0.98146515  1  0  -0.271747  0  3.6485  0  0  -0.303991  0  3.892146  0  0  -0.309646  0  3.899223  0  0  -0.161054  -0.299769  0  3.886878  0
C  C98  1  0.49134537  0.81091046  0.51853402  1  0  -0.271814  0  3.648498  0  0  -0.303942  0  3.892037  0  0  -0.309592  0  3.899116  0  0  -0.161053  -0.299733  0  3.886786  0
C  C99  1  0.00865488  0.18909020  0.01853427  1  0  -0.271789  0  3.648466  0  0  -0.303937  0  3.892017  0  0  -0.309595  0  3.899096  0  0  -0.161046  -0.299721  0  3.886765  0
C  C100  1  0.67538150  0.18371472  0.52002111  1  0  0.710779  0  3.825713  0  0  0.660401  0  4.129494  0  0  0.693038  0  4.127295  0  0  0.210716  0.63779  0  4.133858  0
C  C101  1  0.82461828  0.81628475  0.02002010  1  0  0.710688  0  3.825913  0  0  0.660344  0  4.129644  0  0  0.69298  0  4.127451  0  0  0.210695  0.637742  0  4.134  0
C  C102  1  0.32461832  0.81628549  0.47997906  1  0  0.710809  0  3.825716  0  0  0.660402  0  4.129494  0  0  0.693039  0  4.127298  0  0  0.210716  0.6378  0  4.133852  0
C  C103  1  0.17538141  0.18371461  0.97997932  1  0  0.710796  0  3.825709  0  0  0.660398  0  4.129482  0  0  0.693035  0  4.127289  0  0  0.210715  0.637795  0  4.133841  0
N  N104  1  0.95978756  0.65766833  0.52412897  1  0  -0.452626  0  3.275232  0  0  -0.402132  0  3.539962  0  0  -0.423258  0  3.562128  0  0  -0.377656  -0.392601  0  3.5262  0
N  N105  1  0.54021352  0.34233199  0.02412855  1  0  -0.452659  0  3.275291  0  0  -0.402158  0  3.540001  0  0  -0.423285  0  3.562165  0  0  -0.377653  -0.392625  0  3.526233  0
N  N106  1  0.04021120  0.34233274  0.47587120  1  0  -0.452611  0  3.275229  0  0  -0.402104  0  3.539964  0  0  -0.423231  0  3.562133  0  0  -0.377651  -0.392571  0  3.526198  0
N  N107  1  0.45978512  0.65766823  0.97587237  1  0  -0.452696  0  3.275289  0  0  -0.402171  0  3.540023  0  0  -0.423297  0  3.562186  0  0  -0.377656  -0.392642  0  3.526261  0
O  O108  1  0.82848791  0.96355325  0.34292153  1  0  -0.941764  0  1.824519  0  0  -0.892091  0  2.028517  0  0  -0.918956  0  1.98897  0  0  -0.664027  -0.879158  0  2.052634  0
O  O109  1  0.67151278  0.03644644  0.84292245  1  0  -0.941776  0  1.824499  0  0  -0.892104  0  2.028505  0  0  -0.918968  0  1.988956  0  0  -0.664033  -0.879166  0  2.052624  0
O  O110  1  0.17151310  0.03644696  0.65707864  1  0  -0.941789  0  1.824505  0  0  -0.892112  0  2.028503  0  0  -0.918975  0  1.988954  0  0  -0.664023  -0.879174  0  2.052619  0
O  O111  1  0.32848691  0.96355293  0.15707846  1  0  -0.941775  0  1.824505  0  0  -0.89209  0  2.028528  0  0  -0.918962  0  1.988959  0  0  -0.664037  -0.879153  0  2.052645  0
O  O112  1  0.03155271  0.77492077  0.23615063  1  0  -0.933676  0  1.827531  0  0  -0.882834  0  2.027773  0  0  -0.910542  0  1.988065  0  0  -0.664209  -0.869422  0  2.05133  0
O  O113  1  0.46844841  0.22507917  0.73615081  1  0  -0.933688  0  1.827549  0  0  -0.882837  0  2.027779  0  0  -0.910546  0  1.988069  0  0  -0.664213  -0.869424  0  2.051335  0
O  O114  1  0.96844698  0.22507860  0.76384953  1  0  -0.933668  0  1.827526  0  0  -0.882832  0  2.027786  0  0  -0.910539  0  1.988081  0  0  -0.664211  -0.869418  0  2.051343  0
O  O115  1  0.53155023  0.77492105  0.26384936  1  0  -0.933698  0  1.827565  0  0  -0.882837  0  2.027766  0  0  -0.910544  0  1.988057  0  0  -0.664224  -0.869426  0  2.051321  0
O  O116  1  0.77740200  0.70772484  0.36805870  1  0  -0.765498  0  2.085526  0  0  -0.7007  0  2.337279  0  0  -0.7358  0  2.324489  0  0  -0.408899  -0.681955  0  2.344684  0
O  O117  1  0.72259762  0.29227572  0.86805900  1  0  -0.765568  0  2.085579  0  0  -0.700771  0  2.337337  0  0  -0.735871  0  2.324546  0  0  -0.408956  -0.682035  0  2.344749  0
O  O118  1  0.22259926  0.29227707  0.63193998  1  0  -0.765535  0  2.085712  0  0  -0.700735  0  2.337475  0  0  -0.735834  0  2.324681  0  0  -0.408935  -0.681985  0  2.344882  0
O  O119  1  0.27740102  0.70772450  0.13194117  1  0  -0.765491  0  2.085532  0  0  -0.700677  0  2.337278  0  0  -0.735777  0  2.324489  0  0  -0.408887  -0.681935  0  2.344695  0
O  O120  1  0.61386619  0.54638863  0.39057842  1  0  -0.563701  0  1.914269  0  0  -0.522563  0  2.137267  0  0  -0.543193  0  2.129808  0  0  -0.304214  -0.507956  0  2.141853  0
O  O121  1  0.88613340  0.45361194  0.89057875  1  0  -0.563738  0  1.914265  0  0  -0.522591  0  2.137254  0  0  -0.543219  0  2.129789  0  0  -0.304179  -0.507984  0  2.141833  0
O  O122  1  0.38613375  0.45361244  0.60942101  1  0  -0.563734  0  1.914248  0  0  -0.522589  0  2.137248  0  0  -0.543217  0  2.129781  0  0  -0.304185  -0.507975  0  2.141835  0
O  O123  1  0.11386617  0.54638657  0.10942291  1  0  -0.563722  0  1.914206  0  0  -0.522562  0  2.137201  0  0  -0.543187  0  2.129733  0  0  -0.304207  -0.507952  0  2.141786  0
O  O124  1  0.19270315  0.98951514  0.33101654  1  0  -0.731481  0  2.052986  0  0  -0.667714  0  2.287097  0  0  -0.701367  0  2.2752  0  0  -0.363596  -0.64897  0  2.293423  0
O  O125  1  0.30729802  0.01048571  0.83101666  1  0  -0.731486  0  2.052953  0  0  -0.667716  0  2.287065  0  0  -0.701366  0  2.275167  0  0  -0.363596  -0.648968  0  2.293387  0
O  O126  1  0.80729667  0.01048507  0.66898362  1  0  -0.731478  0  2.052966  0  0  -0.667698  0  2.287073  0  0  -0.701346  0  2.275179  0  0  -0.363579  -0.648955  0  2.293401  0
O  O127  1  0.69270311  0.98951535  0.16898277  1  0  -0.731477  0  2.053008  0  0  -0.667711  0  2.287126  0  0  -0.701361  0  2.27523  0  0  -0.363585  -0.648966  0  2.293451  0
O  O128  1  0.12199526  0.09985021  0.45392170  1  0  -0.774151  0  2.074114  0  0  -0.723897  0  2.346938  0  0  -0.761174  0  2.335155  0  0  -0.402288  -0.707032  0  2.355852  0
O  O129  1  0.37800437  0.90014903  0.95392303  1  0  -0.774201  0  2.074117  0  0  -0.723953  0  2.346971  0  0  -0.761231  0  2.335182  0  0  -0.402292  -0.707092  0  2.355886  0
O  O130  1  0.87800574  0.90015000  0.54607772  1  0  -0.774202  0  2.07411  0  0  -0.723931  0  2.346926  0  0  -0.76121  0  2.335141  0  0  -0.402307  -0.707068  0  2.355837  0
O  O131  1  0.62199426  0.09985119  0.04607713  1  0  -0.774203  0  2.074117  0  0  -0.72394  0  2.34695  0  0  -0.76122  0  2.335161  0  0  -0.402309  -0.707075  0  2.355862  0
O  O132  1  0.71611474  0.23008319  0.60354773  1  0  -0.698145  0  1.980325  0  0  -0.639227  0  2.216874  0  0  -0.671492  0  2.208289  0  0  -0.351541  -0.620643  0  2.221635  0
O  O133  1  0.78388497  0.76991634  0.10354671  1  0  -0.698113  0  1.980394  0  0  -0.639203  0  2.216918  0  0  -0.671467  0  2.208333  0  0  -0.351525  -0.62062  0  2.22167  0
O  O134  1  0.28388508  0.76991702  0.39645244  1  0  -0.698135  0  1.98031  0  0  -0.63921  0  2.21686  0  0  -0.671476  0  2.208274  0  0  -0.351534  -0.620626  0  2.221614  0
O  O135  1  0.21611472  0.23008303  0.89645271  1  0  -0.69813  0  1.980327  0  0  -0.639202  0  2.216871  0  0  -0.671468  0  2.208287  0  0  -0.351524  -0.620618  0  2.221625  0
O  O136  1  0.77759385  0.13382648  0.46997175  1  0  -0.72685  0  2.047331  0  0  -0.665782  0  2.293256  0  0  -0.697583  0  2.283054  0  0  -0.367823  -0.647662  0  2.299813  0
O  O137  1  0.72240686  0.86617414  0.96997163  1  0  -0.726781  0  2.047392  0  0  -0.665712  0  2.293293  0  0  -0.697518  0  2.283095  0  0  -0.367799  -0.647581  0  2.299808  0
O  O138  1  0.22240716  0.86617373  0.53002841  1  0  -0.726838  0  2.047337  0  0  -0.665766  0  2.293276  0  0  -0.697571  0  2.283075  0  0  -0.367815  -0.647641  0  2.299814  0
O  O139  1  0.27759296  0.13382608  0.03002853  1  0  -0.72684  0  2.04732  0  0  -0.665783  0  2.293261  0  0  -0.697587  0  2.28306  0  0  -0.367824  -0.647656  0  2.299791  0
