# generated using pymatgen
data_Zn4H12C54O13F12
_symmetry_space_group_name_H-M   'P 1'
_cell_length_a   24.42024267
_cell_length_b   24.42019835
_cell_length_c   24.42023849
_cell_angle_alpha   59.99981692
_cell_angle_beta   59.99988277
_cell_angle_gamma   59.99984693
_symmetry_Int_Tables_number   1
_chemical_formula_structural   Zn4H12C54O13F12
_chemical_formula_sum   'Zn8 H24 C108 O26 F24'
_cell_volume   10297.51842507
_cell_formula_units_Z   2
loop_
 _symmetry_equiv_pos_site_id
 _symmetry_equiv_pos_as_xyz
  1  'x, y, z'
loop_
 _atom_site_type_symbol
 _atom_site_label
 _atom_site_symmetry_multiplicity
 _atom_site_fract_x
 _atom_site_fract_y
 _atom_site_fract_z
 _atom_site_occupancy
 _atom_site_pbe_bader_charge
 _atom_site_pbe_bader_spin_density
 _atom_site_pbe_cm5_charge
 _atom_site_pbe_ddec_charge
 _atom_site_pbe_ddec_spin_density
 _atom_site_pbe_ddec_sum_bond_order
 _atom_site_pbe_magmom
Zn  Zn0  1  0.96716723  0.09850010  0.46716679  1  1.307402  0  0.674282  0.962633  0  2.380374  0
Zn  Zn1  1  0.96716735  0.96716508  0.59850090  1  1.30742  0  0.674382  0.962974  0  2.380333  0
Zn  Zn2  1  0.09850206  0.96716479  0.46716703  1  1.307429  0  0.674458  0.962888  0  2.380012  0
Zn  Zn3  1  0.96716589  0.96716445  0.46716580  1  1.312472  0  0.674479  0.963131  0  2.38001  0
Zn  Zn4  1  0.53283502  0.40149771  0.03283402  1  1.307461  0  0.674439  0.9631  0  2.38015  0
Zn  Zn5  1  0.40149983  0.53283234  0.03283420  1  1.307486  0  0.674347  0.962681  0  2.380153  0
Zn  Zn6  1  0.53283471  0.53283247  0.90149928  1  1.307467  0  0.674387  0.96282  0  2.380101  0
Zn  Zn7  1  0.53283565  0.53283349  0.03283490  1  1.312453  0  0.674471  0.963141  0  2.380047  0
H  H8  1  0.84843238  0.23960631  0.34843242  1  0.124505  0  0.112107  0.125834  0  0.995929  0
H  H9  1  0.84843368  0.06352985  0.34843193  1  0.115853  0  0.112099  0.125863  0  0.995886  0
H  H10  1  0.65156972  0.26039299  0.15156906  1  0.124083  0  0.112075  0.125752  0  0.995962  0
H  H11  1  0.65156978  0.43646917  0.15156797  1  0.115901  0  0.112099  0.125797  0  0.995975  0
H  H12  1  0.06353037  0.84843087  0.73960787  1  0.121652  0  0.112083  0.125761  0  0.995929  0
H  H13  1  0.23960640  0.84842979  0.56353238  1  0.12165  0  0.112104  0.125803  0  0.995981  0
H  H14  1  0.43647108  0.65156655  0.76039413  1  0.102176  0  0.112092  0.125833  0  0.995909  0
H  H15  1  0.26039435  0.65156692  0.93647104  1  0.10217  0  0.112092  0.125838  0  0.995913  0
H  H16  1  0.06353015  0.23960565  0.34843226  1  0.102364  0  0.112118  0.125838  0  0.995923  0
H  H17  1  0.23960701  0.06352927  0.34843212  1  0.102291  0  0.112083  0.125796  0  0.995971  0
H  H18  1  0.43647031  0.26039248  0.15156858  1  0.121612  0  0.112094  0.125787  0  0.995964  0
H  H19  1  0.26039426  0.43646886  0.15156841  1  0.12091  0  0.112122  0.12582  0  0.995984  0
H  H20  1  0.84843225  0.84843035  0.73960655  1  0.123953  0  0.112105  0.125819  0  0.995914  0
H  H21  1  0.84843182  0.84843157  0.56353073  1  0.115879  0  0.112121  0.125849  0  0.995959  0
H  H22  1  0.65157047  0.65156622  0.76039346  1  0.124213  0  0.112123  0.125872  0  0.995852  0
H  H23  1  0.65156984  0.65156639  0.93646945  1  0.115866  0  0.112102  0.125849  0  0.995923  0
H  H24  1  0.84843375  0.06352906  0.73960660  1  0.10218  0  0.112099  0.125811  0  0.995912  0
H  H25  1  0.84843240  0.23960550  0.56353013  1  0.102205  0  0.112103  0.125829  0  0.995936  0
H  H26  1  0.65156884  0.43646900  0.76039323  1  0.121628  0  0.112103  0.125783  0  0.995976  0
H  H27  1  0.65156985  0.26039305  0.93646905  1  0.121657  0  0.112095  0.125783  0  0.995944  0
H  H28  1  0.06353093  0.84843064  0.34843158  1  0.115911  0  0.112128  0.125827  0  0.995954  0
H  H29  1  0.23960673  0.84843014  0.34843177  1  0.124005  0  0.112103  0.1258  0  0.995932  0
H  H30  1  0.43647087  0.65156639  0.15156884  1  0.115858  0  0.112105  0.125827  0  0.995934  0
H  H31  1  0.26039449  0.65156713  0.15156848  1  0.124234  0  0.112109  0.125852  0  0.995897  0
C  C32  1  0.89531516  0.10468587  0.60468606  1  1.571481  0  0.231189  0.609532  0  4.162249  0
C  C33  1  0.10469031  0.89531166  0.60468431  1  1.579943  0  0.231085  0.60932  0  4.162154  0
C  C34  1  0.10468931  0.10468311  0.39531418  1  1.57161  0  0.231021  0.609314  0  4.162218  0
C  C35  1  0.10468951  0.89531169  0.39531460  1  1.566631  0  0.231068  0.609319  0  4.162245  0
C  C36  1  0.89531488  0.10468560  0.39531361  1  1.567705  0  0.231159  0.609539  0  4.162082  0
C  C37  1  0.89531460  0.89531206  0.60468560  1  1.537081  0  0.23112  0.609413  0  4.162384  0
C  C38  1  0.39531182  0.39531488  0.10468763  1  1.579638  0  0.231137  0.60948  0  4.162277  0
C  C39  1  0.39531421  0.60468473  0.89531515  1  1.571097  0  0.231169  0.609517  0  4.162113  0
C  C40  1  0.60468814  0.39531454  0.89531174  1  1.579671  0  0.231079  0.609363  0  4.162284  0
C  C41  1  0.60468987  0.60468298  0.89531169  1  1.566827  0  0.231133  0.609557  0  4.162084  0
C  C42  1  0.60468794  0.39531278  0.10468706  1  1.540953  0  0.230927  0.609029  0  4.162154  0
C  C43  1  0.39531232  0.60468455  0.10468758  1  1.566575  0  0.231139  0.609504  0  4.162281  0
C  C44  1  0.83213418  0.21777655  0.33213252  1  0.021697  0  -0.077005  -0.122686  0  3.91169  0
C  C45  1  0.79158634  0.25883914  0.29158482  1  0.010964  0  -0.009352  -0.001182  0  4.066628  0
C  C46  1  0.76977907  0.33043101  0.26977652  1  0.569784  0  0.092115  0.116942  0  4.09271  0
C  C47  1  0.83213440  0.11795743  0.33213319  1  0.063466  0  -0.077087  -0.122803  0  3.911453  0
C  C48  1  0.79158651  0.15799050  0.29158492  1  -0.076112  0  -0.009358  -0.001267  0  4.066634  0
C  C49  1  0.76977912  0.13001352  0.26977813  1  0.663372  0  0.092108  0.11703  0  4.092591  0
C  C50  1  0.66786996  0.28222151  0.16786866  1  0.021844  0  -0.076978  -0.122734  0  3.911652  0
C  C51  1  0.70841711  0.24116069  0.20841477  1  0.010819  0  -0.009272  -0.001239  0  4.066521  0
C  C52  1  0.73022489  0.16956770  0.23022418  1  0.403284  0  0.09228  0.117223  0  4.092541  0
C  C53  1  0.66786981  0.38204070  0.16786735  1  0.063385  0  -0.076945  -0.122699  0  3.911534  0
C  C54  1  0.70841702  0.34200859  0.20841433  1  -0.076432  0  -0.009351  -0.001322  0  4.066616  0
C  C55  1  0.73022492  0.36998525  0.23022193  1  0.496884  0  0.092266  0.117223  0  4.092756  0
C  C56  1  0.85203118  0.14797053  0.35202954  1  -0.031448  0  -0.015598  -0.027598  0  3.994856  0
C  C57  1  0.77055017  0.22945158  0.27054778  1  0.13507  0  0.002683  0.011552  0  3.950493  0
C  C58  1  0.64797286  0.35202825  0.14797052  1  -0.001759  0  -0.015455  -0.026905  0  3.994421  0
C  C59  1  0.72945533  0.27054702  0.22945150  1  -0.027105  0  0.002752  0.011685  0  3.9503  0
C  C60  1  0.11796011  0.83213060  0.71777754  1  0.02883  0  -0.07697  -0.122615  0  3.911525  0
C  C61  1  0.15799098  0.79158379  0.75884100  1  -0.038204  0  -0.009327  -0.001242  0  4.066438  0
C  C62  1  0.13001625  0.76977519  0.83043277  1  0.482004  0  0.092257  0.117171  0  4.092679  0
C  C63  1  0.21777803  0.83213120  0.61795850  1  0.028874  0  -0.077047  -0.122766  0  3.911253  0
C  C64  1  0.25883925  0.79158281  0.65799368  1  -0.038219  0  -0.009279  -0.001189  0  4.066396  0
C  C65  1  0.33043190  0.76977488  0.63001639  1  0.481342  0  0.092259  0.117139  0  4.09268  0
C  C66  1  0.38204299  0.66786518  0.78222445  1  0.062793  0  -0.077091  -0.122809  0  3.911464  0
C  C67  1  0.34200943  0.70841340  0.74116178  1  -0.055415  0  -0.009342  -0.001228  0  4.066592  0
C  C68  1  0.36998507  0.73022128  0.66957081  1  0.624326  0  0.092123  0.117012  0  4.092655  0
C  C69  1  0.28222449  0.66786564  0.88204302  1  0.062721  0  -0.077088  -0.122845  0  3.911539  0
C  C70  1  0.24116160  0.70841318  0.84201084  1  -0.055418  0  -0.009346  -0.00118  0  4.066589  0
C  C71  1  0.16956949  0.73022166  0.86998655  1  0.623928  0  0.092134  0.117001  0  4.092557  0
C  C72  1  0.14796969  0.85202732  0.64797362  1  0.062918  0  -0.01551  -0.027241  0  3.994484  0
C  C73  1  0.22945369  0.77054517  0.72945348  1  -0.053364  0  0.002754  0.011629  0  3.950324  0
C  C74  1  0.35203083  0.64796834  0.85203057  1  0.003015  0  -0.015486  -0.027393  0  3.994579  0
C  C75  1  0.27054812  0.72945014  0.77054977  1  0.081211  0  0.002686  0.011561  0  3.95049  0
C  C76  1  0.11795977  0.21777541  0.33213252  1  0.06264  0  -0.077133  -0.122843  0  3.911529  0
C  C77  1  0.15799050  0.25883904  0.29158523  1  -0.041422  0  -0.009357  -0.001359  0  4.066561  0
C  C78  1  0.13001559  0.33043028  0.26977741  1  0.646391  0  0.092225  0.117173  0  4.092751  0
C  C79  1  0.21777761  0.11795658  0.33213292  1  0.062707  0  -0.076974  -0.122684  0  3.911565  0
C  C80  1  0.25883903  0.15799032  0.29158533  1  -0.03475  0  -0.00933  -0.001207  0  4.066598  0
C  C81  1  0.33043221  0.13001504  0.26977636  1  0.642481  0  0.092174  0.117061  0  4.09269  0
C  C82  1  0.38204190  0.28222312  0.16786771  1  0.028613  0  -0.076949  -0.122505  0  3.911599  0
C  C83  1  0.34200978  0.24115974  0.20841513  1  -0.077397  0  -0.009392  -0.001324  0  4.066551  0
C  C84  1  0.36998406  0.16956786  0.23022373  1  0.482138  0  0.092194  0.117088  0  4.092708  0
C  C85  1  0.28222326  0.38204114  0.16786792  1  0.007666  0  -0.077078  -0.122742  0  3.911399  0
C  C86  1  0.24116085  0.34200806  0.20841534  1  -0.055481  0  -0.009348  -0.001289  0  4.066622  0
C  C87  1  0.16956895  0.36998462  0.23022276  1  0.484993  0  0.092225  0.117104  0  4.092847  0
C  C88  1  0.14797054  0.14797023  0.35202975  1  0.003006  0  -0.015491  -0.02733  0  3.99467  0
C  C89  1  0.22945304  0.22945139  0.27054742  1  0.056628  0  0.002713  0.011697  0  3.95037  0
C  C90  1  0.35203107  0.35202742  0.14797143  1  0.063026  0  -0.01554  -0.027464  0  3.994663  0
C  C91  1  0.27054732  0.27054746  0.22945231  1  -0.029041  0  0.002761  0.011606  0  3.950287  0
C  C92  1  0.83213287  0.83213091  0.71777701  1  0.022144  0  -0.077027  -0.122653  0  3.911481  0
C  C93  1  0.79158475  0.79158429  0.75883974  1  0.010943  0  -0.009351  -0.001357  0  4.066638  0
C  C94  1  0.76977605  0.76977632  0.83043165  1  0.403299  0  0.092255  0.117192  0  4.092675  0
C  C95  1  0.83213293  0.83213180  0.61795841  1  0.063404  0  -0.077067  -0.122743  0  3.911425  0
C  C96  1  0.79158530  0.79158484  0.65799135  1  -0.076453  0  -0.009361  -0.001347  0  4.066612  0
C  C97  1  0.76977744  0.76977690  0.63001499  1  0.663305  0  0.092207  0.117109  0  4.092809  0
C  C98  1  0.66786945  0.66786525  0.78222331  1  0.022027  0  -0.077049  -0.122758  0  3.911458  0
C  C99  1  0.70841626  0.70841385  0.74116091  1  0.010957  0  -0.009399  -0.001394  0  4.066614  0
C  C100  1  0.73022333  0.73022264  0.66956931  1  0.403301  0  0.092221  0.117131  0  4.092826  0
C  C101  1  0.66786979  0.66786477  0.88204161  1  0.063218  0  -0.077048  -0.122784  0  3.911406  0
C  C102  1  0.70841595  0.70841353  0.84200883  1  -0.076239  0  -0.009339  -0.001269  0  4.066528  0
C  C103  1  0.73022299  0.73022229  0.86998519  1  0.663301  0  0.092188  0.117119  0  4.092623  0
C  C104  1  0.85203053  0.85202783  0.64797149  1  -0.001856  0  -0.015552  -0.02744  0  3.994607  0
C  C105  1  0.77054882  0.77054664  0.72945206  1  -0.026951  0  0.002741  0.011693  0  3.950321  0
C  C106  1  0.64797440  0.64796685  0.85202870  1  -0.031077  0  -0.015492  -0.027331  0  3.994521  0
C  C107  1  0.72945366  0.72945050  0.77054812  1  0.134799  0  0.002718  0.011657  0  3.950303  0
C  C108  1  0.83213495  0.11795713  0.71777604  1  0.062773  0  -0.076997  -0.122593  0  3.911563  0
C  C109  1  0.79158648  0.15799043  0.75883830  1  -0.055392  0  -0.009387  -0.001331  0  4.06657  0
C  C110  1  0.76977807  0.13001488  0.83043120  1  0.624096  0  0.092147  0.11705  0  4.092634  0
C  C111  1  0.83213416  0.21777568  0.61795785  1  0.062742  0  -0.077054  -0.122731  0  3.911446  0
C  C112  1  0.79158605  0.25883881  0.65799042  1  -0.055455  0  -0.00936  -0.001298  0  4.066777  0
C  C113  1  0.76977869  0.33042978  0.63001381  1  0.624231  0  0.092203  0.117142  0  4.092749  0
C  C114  1  0.66786893  0.38204140  0.78222253  1  0.028859  0  -0.077032  -0.122635  0  3.91134  0
C  C115  1  0.70841602  0.34200754  0.74116071  1  -0.038196  0  -0.009353  -0.00136  0  4.066638  0
C  C116  1  0.73022322  0.36998516  0.66956896  1  0.481511  0  0.092254  0.117169  0  4.092715  0
C  C117  1  0.66786938  0.28222333  0.88204008  1  0.028792  0  -0.077023  -0.122627  0  3.911711  0
C  C118  1  0.70841597  0.24116031  0.84200893  1  -0.038216  0  -0.009345  -0.001282  0  4.066572  0
C  C119  1  0.73022493  0.16956768  0.86998409  1  0.481321  0  0.092269  0.117175  0  4.092711  0
C  C120  1  0.85203164  0.14796933  0.64797055  1  0.003003  0  -0.01557  -0.027558  0  3.994761  0
C  C121  1  0.77054942  0.22945161  0.72945134  1  0.081227  0  0.002698  0.01164  0  3.950466  0
C  C122  1  0.64797252  0.35202785  0.85202961  1  0.062809  0  -0.01556  -0.027438  0  3.994741  0
C  C123  1  0.72945389  0.27054717  0.77054707  1  -0.053394  0  0.002764  0.011634  0  3.950313  0
C  C124  1  0.11795936  0.83213071  0.33213307  1  0.06339  0  -0.076978  -0.122581  0  3.911651  0
C  C125  1  0.15799170  0.79158373  0.29158505  1  -0.076388  0  -0.009336  -0.001309  0  4.066588  0
C  C126  1  0.13001553  0.76977615  0.26977714  1  0.496781  0  0.09225  0.117134  0  4.092721  0
C  C127  1  0.21777738  0.83213140  0.33213250  1  0.021446  0  -0.077022  -0.122651  0  3.911383  0
C  C128  1  0.25884014  0.79158291  0.29158471  1  0.011305  0  -0.009314  -0.001296  0  4.06653  0
C  C129  1  0.33043224  0.76977524  0.26977650  1  0.40329  0  0.092286  0.117181  0  4.092711  0
C  C130  1  0.38204214  0.66786520  0.16786876  1  0.063196  0  -0.077051  -0.12277  0  3.911578  0
C  C131  1  0.34200993  0.70841313  0.20841520  1  -0.076176  0  -0.009358  -0.001283  0  4.066552  0
C  C132  1  0.36998545  0.73022170  0.23022328  1  0.663365  0  0.092166  0.117076  0  4.092614  0
C  C133  1  0.28222377  0.66786580  0.16786839  1  0.02215  0  -0.077071  -0.122858  0  3.911446  0
C  C134  1  0.24116156  0.70841402  0.20841490  1  0.010775  0  -0.009348  -0.001243  0  4.066667  0
C  C135  1  0.16956905  0.73022210  0.23022311  1  0.569828  0  0.092193  0.117094  0  4.092822  0
C  C136  1  0.14797114  0.85202717  0.35203005  1  -0.031218  0  -0.015587  -0.02746  0  3.994743  0
C  C137  1  0.22945302  0.77054536  0.27054862  1  -0.027062  0  0.002739  0.011652  0  3.950322  0
C  C138  1  0.35203076  0.64796833  0.14797179  1  -0.031188  0  -0.015446  -0.027237  0  3.99449  0
C  C139  1  0.27054814  0.72945021  0.22945289  1  0.135079  0  0.002714  0.011638  0  3.950434  0
O  O140  1  0.00000009  0.99999842  0.49999985  1  -1.198147  0  -0.573493  -1.031257  0  2.537531  0
O  O141  1  0.91196421  0.13467235  0.54139979  1  -1.18095  0  -0.313012  -0.54248  0  2.339215  0
O  O142  1  0.04139765  0.91196187  0.63467604  1  -1.178549  0  -0.313182  -0.542791  0  2.338548  0
O  O143  1  0.13467371  0.04139943  0.41196418  1  -1.180787  0  -0.312857  -0.542309  0  2.339376  0
O  O144  1  0.91196539  0.04139715  0.63467425  1  -1.180596  0  -0.313077  -0.542627  0  2.338972  0
O  O145  1  0.04139850  0.13467334  0.41196406  1  -1.180892  0  -0.313103  -0.542626  0  2.338621  0
O  O146  1  0.13467342  0.91196162  0.54140251  1  -1.178387  0  -0.312926  -0.542354  0  2.339579  0
O  O147  1  0.13467392  0.91196049  0.41196473  1  -1.167895  0  -0.312865  -0.542282  0  2.339468  0
O  O148  1  0.91196482  0.04139906  0.41196280  1  -1.163042  0  -0.31302  -0.542593  0  2.338967  0
O  O149  1  0.04139861  0.91196285  0.41196348  1  -1.16298  0  -0.313142  -0.542762  0  2.338614  0
O  O150  1  0.91196435  0.13467332  0.41196429  1  -1.168887  0  -0.313006  -0.542482  0  2.338931  0
O  O151  1  0.91196561  0.91196149  0.63467502  1  -1.167747  0  -0.313034  -0.542565  0  2.338892  0
O  O152  1  0.91196306  0.91196305  0.54140129  1  -1.163034  0  -0.312983  -0.542509  0  2.339331  0
O  O153  1  0.50000163  0.49999935  0.00000090  1  -1.198144  0  -0.573482  -1.031255  0  2.537438  0
O  O154  1  0.45860369  0.36532407  0.08803728  1  -1.177834  0  -0.313128  -0.542719  0  2.338702  0
O  O155  1  0.36532774  0.58803469  0.95860090  1  -1.180587  0  -0.312994  -0.542481  0  2.339053  0
O  O156  1  0.58803739  0.45859864  0.86532666  1  -1.178387  0  -0.312956  -0.542402  0  2.339327  0
O  O157  1  0.36532783  0.45859815  0.08803763  1  -1.178747  0  -0.312986  -0.542465  0  2.339477  0
O  O158  1  0.58803882  0.36532452  0.95860179  1  -1.178226  0  -0.313062  -0.542647  0  2.338819  0
O  O159  1  0.45860258  0.58803597  0.86532626  1  -1.180595  0  -0.313067  -0.54259  0  2.338911  0
O  O160  1  0.58803969  0.58803356  0.86532695  1  -1.168121  0  -0.313027  -0.542576  0  2.339199  0
O  O161  1  0.58803790  0.45859922  0.08803707  1  -1.163019  0  -0.313013  -0.542546  0  2.339266  0
O  O162  1  0.58803815  0.58803447  0.95860128  1  -1.162996  0  -0.313075  -0.542715  0  2.33876  0
O  O163  1  0.58803742  0.36532483  0.08803716  1  -1.171651  0  -0.313051  -0.542589  0  2.338828  0
O  O164  1  0.36532798  0.58803582  0.08803681  1  -1.167758  0  -0.313018  -0.542514  0  2.339322  0
O  O165  1  0.45860312  0.58803411  0.08803758  1  -1.163031  0  -0.313102  -0.54271  0  2.338734  0
F  F166  1  0.71075538  0.43757500  0.21075258  1  -0.633698  0  -0.091078  -0.108277  0  1.351015  0
F  F167  1  0.78924667  0.35908290  0.28924650  1  -0.624356  0  -0.091005  -0.108184  0  1.350938  0
F  F168  1  0.71075472  0.14091650  0.21075609  1  -0.624264  0  -0.091088  -0.108285  0  1.350959  0
F  F169  1  0.78924727  0.06242403  0.28924762  1  -0.633707  0  -0.091056  -0.10826  0  1.350914  0
F  F170  1  0.14091803  0.71075269  0.93757680  1  -0.631766  0  -0.091034  -0.108221  0  1.350868  0
F  F171  1  0.06242554  0.78924604  0.85908433  1  -0.631947  0  -0.09108  -0.10827  0  1.350894  0
F  F172  1  0.43757554  0.71075181  0.64091911  1  -0.631995  0  -0.091059  -0.108241  0  1.350852  0
F  F173  1  0.35908369  0.78924500  0.56242616  1  -0.631384  0  -0.091062  -0.108237  0  1.350923  0
F  F174  1  0.14091727  0.43757478  0.21075366  1  -0.631962  0  -0.091061  -0.10822  0  1.35105  0
F  F175  1  0.06242527  0.35908249  0.28924723  1  -0.631972  0  -0.091103  -0.108301  0  1.350935  0
F  F176  1  0.43757576  0.14091621  0.21075347  1  -0.631807  0  -0.091048  -0.108255  0  1.350809  0
F  F177  1  0.35908302  0.06242400  0.28924671  1  -0.631827  0  -0.091049  -0.10823  0  1.350913  0
F  F178  1  0.71075204  0.71075372  0.93757551  1  -0.633673  0  -0.091047  -0.108248  0  1.350886  0
F  F179  1  0.78924487  0.78924684  0.85908277  1  -0.624305  0  -0.091086  -0.108288  0  1.350899  0
F  F180  1  0.71075327  0.71075416  0.64091789  1  -0.624314  0  -0.091054  -0.108227  0  1.351043  0
F  F181  1  0.78924676  0.78924630  0.56242498  1  -0.633665  0  -0.091067  -0.108239  0  1.351041  0
F  F182  1  0.71075482  0.14091572  0.93757497  1  -0.631252  0  -0.091082  -0.108271  0  1.350887  0
F  F183  1  0.78924849  0.06242438  0.85908140  1  -0.631889  0  -0.091052  -0.108241  0  1.350889  0
F  F184  1  0.71075383  0.43757424  0.64091715  1  -0.631439  0  -0.09107  -0.108246  0  1.351044  0
F  F185  1  0.78924720  0.35908259  0.56242469  1  -0.63202  0  -0.091091  -0.108292  0  1.351029  0
F  F186  1  0.14091808  0.71075361  0.21075311  1  -0.624327  0  -0.091064  -0.108242  0  1.351096  0
F  F187  1  0.06242521  0.78924576  0.28924607  1  -0.633662  0  -0.091108  -0.108283  0  1.350941  0
F  F188  1  0.43757631  0.71075263  0.21075276  1  -0.633687  0  -0.091086  -0.108282  0  1.35088  0
F  F189  1  0.35908327  0.78924542  0.28924525  1  -0.624284  0  -0.091108  -0.10827  0  1.350952  0
