# generated using pymatgen
data_CdH10C12S2N4O5
_symmetry_space_group_name_H-M   'P 1'
_cell_length_a   6.83255764
_cell_length_b   8.91611649
_cell_length_c   13.21508861
_cell_angle_alpha   71.64368356
_cell_angle_beta   85.76774430
_cell_angle_gamma   85.02421708
_symmetry_Int_Tables_number   1
_chemical_formula_structural   CdH10C12S2N4O5
_chemical_formula_sum   'Cd2 H20 C24 S4 N8 O10'
_cell_volume   760.29717756
_cell_formula_units_Z   2
loop_
 _symmetry_equiv_pos_site_id
 _symmetry_equiv_pos_as_xyz
  1  'x, y, z'
loop_
 _atom_site_type_symbol
 _atom_site_label
 _atom_site_symmetry_multiplicity
 _atom_site_fract_x
 _atom_site_fract_y
 _atom_site_fract_z
 _atom_site_occupancy
 _atom_site_hle17_bader_spin_density
 _atom_site_hle17_ddec_charge
 _atom_site_hle17_ddec_spin_density
 _atom_site_hle17_ddec_sum_bond_order
 _atom_site_hle17_magmom
 _atom_site_hse06_10hf_bader_spin_density
 _atom_site_hse06_10hf_ddec_charge
 _atom_site_hse06_10hf_ddec_spin_density
 _atom_site_hse06_10hf_ddec_sum_bond_order
 _atom_site_hse06_10hf_magmom
 _atom_site_hse06_bader_spin_density
 _atom_site_hse06_ddec_charge
 _atom_site_hse06_ddec_spin_density
 _atom_site_hse06_ddec_sum_bond_order
 _atom_site_hse06_magmom
 _atom_site_pbe_bader_spin_density
 _atom_site_pbe_cm5_charge
 _atom_site_pbe_ddec_charge
 _atom_site_pbe_ddec_spin_density
 _atom_site_pbe_ddec_sum_bond_order
 _atom_site_pbe_magmom
Cd  Cd0  1  0.24411350  0.62180302  0.07390143  1  0  1.206192  0  1.636183  0  0  1.023078  0  2.083636  0  0  1.074581  0  2.031821  0  0  0.799022  0.986426  0  2.119181  0
Cd  Cd1  1  0.75589064  0.37819815  0.92609917  1  0  1.206165  0  1.636178  0  0  1.023055  0  2.083643  0  0  1.07456  0  2.031827  0  0  0.799008  0.986404  0  2.119189  0
H  H2  1  0.15271139  0.95959296  0.09059223  1  0  0.439512  0  0.853157  0  0  0.411682  0  0.910713  0  0  0.421762  0  0.896023  0  0  0.29252  0.404563  0  0.921067  0
H  H3  1  0.84728843  0.04040706  0.90940953  1  0  0.439498  0  0.853174  0  0  0.411667  0  0.910732  0  0  0.421746  0  0.896043  0  0  0.292502  0.404549  0  0.921086  0
H  H4  1  0.97885644  0.86097510  0.08315848  1  0  0.409547  0  0.897679  0  0  0.378845  0  0.965666  0  0  0.388724  0  0.951295  0  0  0.284771  0.371852  0  0.975818  0
H  H5  1  0.02114484  0.13902491  0.91684323  1  0  0.409511  0  0.897693  0  0  0.378814  0  0.965698  0  0  0.38869  0  0.951333  0  0  0.284753  0.371822  0  0.97585  0
H  H6  1  0.22924079  0.26731999  0.24660046  1  0  0.100788  0  0.928631  0  0  0.111092  0  0.986578  0  0  0.113474  0  0.985057  0  0  0.121572  0.109317  0  0.987694  0
H  H7  1  0.77076165  0.73268476  0.75339643  1  0  0.10073  0  0.928661  0  0  0.111044  0  0.986596  0  0  0.113421  0  0.98508  0  0  0.121542  0.109269  0  0.987713  0
H  H8  1  0.22148119  0.13231083  0.44600667  1  0  0.115261  0  0.973279  0  0  0.116162  0  1.045513  0  0  0.120756  0  1.042913  0  0  0.10556  0.112887  0  1.047456  0
H  H9  1  0.77851283  0.86768810  0.55399025  1  0  0.115229  0  0.973296  0  0  0.116145  0  1.045521  0  0  0.120729  0  1.042927  0  0  0.105563  0.112873  0  1.047461  0
H  H10  1  0.22590625  0.29960370  0.56660792  1  0  0.10244  0  0.931461  0  0  0.117734  0  0.986554  0  0  0.120087  0  0.985001  0  0  0.10864  0.115985  0  0.987741  0
H  H11  1  0.77408662  0.70039049  0.43339231  1  0  0.102428  0  0.931429  0  0  0.117703  0  0.986535  0  0  0.120074  0  0.984962  0  0  0.108619  0.11595  0  0.987724  0
H  H12  1  0.23821600  0.70970585  0.28440404  1  0  0.101203  0  0.951019  0  0  0.106071  0  1.021705  0  0  0.109604  0  1.017213  0  0  0.120248  0.103503  0  1.024869  0
H  H13  1  0.76177647  0.29029425  0.71559875  1  0  0.101181  0  0.951002  0  0  0.106084  0  1.021642  0  0  0.109618  0  1.017151  0  0  0.120273  0.103517  0  1.024809  0
H  H14  1  0.18507243  0.62626149  0.83307541  1  0  0.100921  0  1.00032  0  0  0.105823  0  1.068706  0  0  0.109185  0  1.065255  0  0  0.114618  0.103363  0  1.071238  0
H  H15  1  0.81493024  0.37373968  0.16692827  1  0  0.100848  0  1.000348  0  0  0.105763  0  1.068734  0  0  0.109127  0  1.065276  0  0  0.114589  0.103302  0  1.071265  0
H  H16  1  0.38836312  0.95873763  0.95202389  1  0  0.086332  0  0.96212  0  0  0.093296  0  1.028894  0  0  0.095833  0  1.025767  0  0  0.119508  0.091353  0  1.031258  0
H  H17  1  0.61163768  0.04126950  0.04797331  1  0  0.08628  0  0.962043  0  0  0.093277  0  1.028812  0  0  0.095816  0  1.025678  0  0  0.119497  0.091333  0  1.031177  0
H  H18  1  0.47389941  0.13654530  0.77097269  1  0  0.117413  0  0.942984  0  0  0.126357  0  1.002512  0  0  0.129555  0  1.00172  0  0  0.110602  0.124081  0  1.003238  0
H  H19  1  0.52610164  0.86345829  0.22902298  1  0  0.117463  0  0.942921  0  0  0.126405  0  1.002454  0  0  0.129603  0  1.001662  0  0  0.110597  0.124127  0  1.00318  0
H  H20  1  0.43128760  0.04371563  0.61200559  1  0  0.103923  0  0.964469  0  0  0.108034  0  1.037739  0  0  0.111548  0  1.034512  0  0  0.108625  0.105544  0  1.039901  0
H  H21  1  0.56871098  0.95628088  0.38799242  1  0  0.103901  0  0.964358  0  0  0.108011  0  1.037658  0  0  0.111524  0  1.034434  0  0  0.108614  0.105529  0  1.039792  0
C  C22  1  0.22964053  0.33406614  0.30304586  1  0  0.12354  0  3.672389  0  0  0.087311  0  3.930925  0  0  0.094379  0  3.94975  0  0  0.047531  0.082838  0  3.918078  0
C  C23  1  0.77035618  0.66593629  0.69695249  1  0  0.123716  0  3.672345  0  0  0.087501  0  3.930883  0  0  0.094571  0  3.949704  0  0  0.047655  0.083026  0  3.918044  0
C  C24  1  0.22587195  0.26080685  0.41333488  1  0  -0.113587  0  3.724296  0  0  -0.125306  0  3.98658  0  0  -0.132745  0  4.007737  0  0  -0.086493  -0.120585  0  3.972525  0
C  C25  1  0.77412191  0.73919443  0.58666382  1  0  -0.113566  0  3.724226  0  0  -0.125298  0  3.986494  0  0  -0.132729  0  4.007667  0  0  -0.086503  -0.12058  0  3.972442  0
C  C26  1  0.22988794  0.35409276  0.48008183  1  0  -0.050829  0  3.701432  0  0  -0.084256  0  3.959416  0  0  -0.080582  0  3.977835  0  0  -0.072794  -0.086125  0  3.94681  0
C  C27  1  0.77010763  0.64590495  0.51991907  1  0  -0.050949  0  3.701429  0  0  -0.084328  0  3.959439  0  0  -0.080677  0  3.97786  0  0  -0.072838  -0.086194  0  3.946837  0
C  C28  1  0.23847779  0.51859941  0.43494744  1  0  -0.037288  0  3.842565  0  0  -0.017558  0  4.087106  0  0  -0.0253  0  4.113538  0  0  -0.013208  -0.013223  0  4.070243  0
C  C29  1  0.76151639  0.48139712  0.56505451  1  0  -0.037249  0  3.842585  0  0  -0.017625  0  4.087225  0  0  -0.025359  0  4.113661  0  0  -0.013258  -0.01328  0  4.07034  0
C  C30  1  0.23807437  0.58227765  0.32315311  1  0  0.100328  0  3.660981  0  0  0.058399  0  3.914172  0  0  0.06599  0  3.930791  0  0  0.052909  0.053625  0  3.902832  0
C  C31  1  0.76192096  0.41772361  0.67684781  1  0  0.100346  0  3.660866  0  0  0.058449  0  3.914057  0  0  0.066035  0  3.930676  0  0  0.052909  0.053673  0  3.902724  0
C  C32  1  0.25175520  0.62664941  0.49702418  1  0  0.09138  0  3.783229  0  0  0.0806  0  4.069622  0  0  0.088757  0  4.088559  0  0  0.116622  0.075353  0  4.056634  0
C  C33  1  0.74823874  0.37335069  0.50297628  1  0  0.091417  0  3.783241  0  0  0.08068  0  4.069619  0  0  0.08883  0  4.088567  0  0  0.11664  0.075432  0  4.056631  0
C  C34  1  0.27940074  0.76856521  0.62149731  1  0  0.109354  0  3.764477  0  0  0.099342  0  4.046696  0  0  0.107563  0  4.066355  0  0  0.129093  0.093934  0  4.03345  0
C  C35  1  0.72059793  0.23143010  0.37850550  1  0  0.109253  0  3.764624  0  0  0.099262  0  4.046797  0  0  0.107486  0  4.066448  0  0  0.12908  0.093856  0  4.033547  0
C  C36  1  0.30361036  0.82841804  0.71022141  1  0  -0.023384  0  3.815885  0  0  -0.001888  0  4.051392  0  0  -0.009492  0  4.076699  0  0  -0.006443  0.002858  0  4.034334  0
C  C37  1  0.69639101  0.17158079  0.28977828  1  0  -0.023528  0  3.816068  0  0  -0.001979  0  4.051513  0  0  -0.009596  0  4.076845  0  0  -0.006474  0.002765  0  4.034453  0
C  C38  1  0.25217732  0.73931918  0.81503604  1  0  0.104041  0  3.63689  0  0  0.06443  0  3.884722  0  0  0.07175  0  3.901964  0  0  0.050533  0.059412  0  3.873615  0
C  C39  1  0.74782389  0.26068201  0.18496543  1  0  0.104162  0  3.636973  0  0  0.064527  0  3.884793  0  0  0.07184  0  3.90205  0  0  0.050516  0.059508  0  3.873684  0
C  C40  1  0.36355153  0.92543530  0.88197866  1  0  0.158077  0  3.666225  0  0  0.12097  0  3.920613  0  0  0.130206  0  3.937215  0  0  0.056516  0.114964  0  3.909449  0
C  C41  1  0.63645090  0.07456944  0.11801974  1  0  0.158296  0  3.666023  0  0  0.121144  0  3.920418  0  0  0.130381  0  3.937014  0  0  0.056577  0.115138  0  3.909252  0
C  C42  1  0.41246725  0.02413397  0.77986052  1  0  -0.103198  0  3.690655  0  0  -0.111495  0  3.938434  0  0  -0.119401  0  3.958548  0  0  -0.075533  -0.106551  0  3.925013  0
C  C43  1  0.58753388  0.97586842  0.22013691  1  0  -0.103328  0  3.690666  0  0  -0.111617  0  3.938481  0  0  -0.119521  0  3.958592  0  0  -0.075521  -0.10667  0  3.925054  0
C  C44  1  0.38512042  0.97454745  0.69261835  1  0  -0.025291  0  3.664873  0  0  -0.053579  0  3.912606  0  0  -0.048647  0  3.929189  0  0  -0.058163  -0.056327  0  3.901048  0
C  C45  1  0.61487940  0.02545259  0.30738039  1  0  -0.025148  0  3.66478  0  0  -0.053462  0  3.912516  0  0  -0.048527  0  3.929094  0  0  -0.058133  -0.056209  0  3.900962  0
S  S46  1  0.74166177  0.68482902  0.03150072  1  0  1.588418  0  5.8387  0  0  1.465265  0  6.375803  0  0  1.521797  0  6.340215  0  0  0.554104  1.426019  0  6.399105  0
S  S47  1  0.25834702  0.31516855  0.96850122  1  0  1.588593  0  5.838417  0  0  1.465445  0  6.375526  0  0  1.52197  0  6.339936  0  0  0.554153  1.426194  0  6.398843  0
S  S48  1  0.26230358  0.56979290  0.63480980  1  0  0.135515  0  2.479275  0  0  0.141073  0  2.794148  0  0  0.139523  0  2.799682  0  0  0.145415  0.141517  0  2.790953  0
S  S49  1  0.73769215  0.43020243  0.36519311  1  0  0.135555  0  2.479401  0  0  0.141097  0  2.794244  0  0  0.139549  0  2.79978  0  0  0.145408  0.141541  0  2.791045  0
N  N50  1  0.23461117  0.49213752  0.25945458  1  0  -0.312826  0  3.255265  0  0  -0.235362  0  3.521624  0  0  -0.255405  0  3.541771  0  0  -0.320944  -0.221722  0  3.507671  0
N  N51  1  0.76538701  0.50786489  0.74054523  1  0  -0.312884  0  3.255216  0  0  -0.235469  0  3.521613  0  0  -0.255508  0  3.541753  0  0  -0.320977  -0.221832  0  3.507669  0
N  N52  1  0.26148707  0.78118545  0.45090883  1  0  -0.204543  0  3.026037  0  0  -0.181966  0  3.307035  0  0  -0.19086  0  3.322863  0  0  -0.204513  -0.175713  0  3.295984  0
N  N53  1  0.73851307  0.21880983  0.54909392  1  0  -0.204563  0  3.025931  0  0  -0.182006  0  3.306936  0  0  -0.1909  0  3.322767  0  0  -0.204487  -0.175753  0  3.295887  0
N  N54  1  0.27677731  0.86073808  0.52097767  1  0  -0.206251  0  3.058332  0  0  -0.178165  0  3.341492  0  0  -0.187739  0  3.357373  0  0  -0.197664  -0.17154  0  3.330511  0
N  N55  1  0.72322282  0.13925720  0.47902509  1  0  -0.206158  0  3.058272  0  0  -0.178078  0  3.341421  0  0  -0.187649  0  3.357297  0  0  -0.197641  -0.171455  0  3.330439  0
N  N56  1  0.28386701  0.78636398  0.89899240  1  0  -0.333145  0  3.265914  0  0  -0.251069  0  3.533202  0  0  -0.27253  0  3.55185  0  0  -0.324459  -0.23641  0  3.520144  0
N  N57  1  0.71613698  0.21363956  0.10100771  1  0  -0.333285  0  3.265958  0  0  -0.251195  0  3.533268  0  0  -0.272653  0  3.55191  0  0  -0.324462  -0.236539  0  3.520213  0
O  O58  1  0.90674077  0.58400615  0.09268390  1  0  -0.76237  0  2.041774  0  0  -0.695422  0  2.317172  0  0  -0.719832  0  2.297885  0  0  -0.372618  -0.678072  0  2.329866  0
O  O59  1  0.09326785  0.41599378  0.90731831  1  0  -0.762459  0  2.041733  0  0  -0.695475  0  2.31709  0  0  -0.719888  0  2.297804  0  0  -0.372666  -0.67812  0  2.329786  0
O  O60  1  0.70350283  0.63196910  0.93860419  1  0  -0.757026  0  2.001297  0  0  -0.693339  0  2.280283  0  0  -0.717721  0  2.261783  0  0  -0.371794  -0.675956  0  2.292321  0
O  O61  1  0.29651005  0.36803316  0.06139585  1  0  -0.757149  0  2.001246  0  0  -0.693444  0  2.280216  0  0  -0.717822  0  2.261711  0  0  -0.371828  -0.676057  0  2.292256  0
O  O62  1  0.56237080  0.67038389  0.10495795  1  0  -0.761432  0  1.965444  0  0  -0.704446  0  2.248639  0  0  -0.728897  0  2.229681  0  0  -0.380432  -0.686953  0  2.261026  0
O  O63  1  0.43763390  0.32960900  0.89504211  1  0  -0.761415  0  1.965472  0  0  -0.704456  0  2.24868  0  0  -0.728908  0  2.229724  0  0  -0.380384  -0.686962  0  2.261073  0
O  O64  1  0.79644469  0.85214524  0.99297173  1  0  -0.767767  0  2.011506  0  0  -0.703286  0  2.253017  0  0  -0.726702  0  2.236021  0  0  -0.359924  -0.686688  0  2.264248  0
O  O65  1  0.20355961  0.14785353  0.00703467  1  0  -0.767778  0  2.011301  0  0  -0.703314  0  2.252826  0  0  -0.726715  0  2.235824  0  0  -0.359955  -0.686725  0  2.264078  0
O  O66  1  0.10137857  0.85344081  0.12086302  1  0  -0.835214  0  1.816006  0  0  -0.77841  0  1.993744  0  0  -0.799201  0  1.962765  0  0  -0.593418  -0.763518  0  2.015133  0
O  O67  1  0.89862132  0.14655803  0.87913899  1  0  -0.835147  0  1.816035  0  0  -0.778344  0  1.993787  0  0  -0.799135  0  1.962819  0  0  -0.593372  -0.763445  0  2.015163  0
