# generated using pymatgen
data_Ag2H14C24S2N4Cl8O7F6
_symmetry_space_group_name_H-M   'P 1'
_cell_length_a   12.17853196
_cell_length_b   12.61233419
_cell_length_c   13.89090000
_cell_angle_alpha   88.31310083
_cell_angle_beta   78.49390147
_cell_angle_gamma   61.88640189
_symmetry_Int_Tables_number   1
_chemical_formula_structural   Ag2H14C24S2N4Cl8O7F6
_chemical_formula_sum   'Ag4 H28 C48 S4 N8 Cl16 O14 F12'
_cell_volume   1838.92988447
_cell_formula_units_Z   2
loop_
 _symmetry_equiv_pos_site_id
 _symmetry_equiv_pos_as_xyz
  1  'x, y, z'
loop_
 _atom_site_type_symbol
 _atom_site_label
 _atom_site_symmetry_multiplicity
 _atom_site_fract_x
 _atom_site_fract_y
 _atom_site_fract_z
 _atom_site_occupancy
 _atom_site_hle17_bader_spin_density
 _atom_site_hle17_ddec_charge
 _atom_site_hle17_ddec_spin_density
 _atom_site_hle17_ddec_sum_bond_order
 _atom_site_hle17_magmom
 _atom_site_hse06_10hf_bader_spin_density
 _atom_site_hse06_10hf_ddec_charge
 _atom_site_hse06_10hf_ddec_spin_density
 _atom_site_hse06_10hf_ddec_sum_bond_order
 _atom_site_hse06_10hf_magmom
 _atom_site_hse06_bader_spin_density
 _atom_site_hse06_ddec_charge
 _atom_site_hse06_ddec_spin_density
 _atom_site_hse06_ddec_sum_bond_order
 _atom_site_hse06_magmom
 _atom_site_pbe_bader_charge
 _atom_site_pbe_bader_spin_density
 _atom_site_pbe_cm5_charge
 _atom_site_pbe_ddec_charge
 _atom_site_pbe_ddec_spin_density
 _atom_site_pbe_ddec_sum_bond_order
 _atom_site_pbe_magmom
Ag  Ag0  1  0.47429557  0.64823991  0.40585754  1  0  0.571213  0  1.30968  0  0  0.432634  0  1.725779  0  0  0.459812  0  1.682013  0  0.640475  0  0.483369  0.414159  0  1.756258  0
Ag  Ag1  1  0.52570375  0.35176078  0.59414134  1  0  0.571245  0  1.309684  0  0  0.432662  0  1.725791  0  0  0.459839  0  1.682024  0  0.64041  0  0.483375  0.414185  0  1.756271  0
Ag  Ag2  1  0.54637005  0.04695492  0.14250419  1  0  0.580633  0  1.317351  0  0  0.441256  0  1.736582  0  0  0.466858  0  1.695147  0  0.625668  0  0.484775  0.423789  0  1.765052  0
Ag  Ag3  1  0.45363186  0.95304396  0.85749573  1  0  0.580633  0  1.317378  0  0  0.44128  0  1.736571  0  0  0.466882  0  1.69514  0  0.625798  0  0.484784  0.423813  0  1.765039  0
H  H4  1  0.43668108  0.85723925  0.28460400  1  0  0.363464  0  0.925095  0  0  0.343581  0  0.991461  0  0  0.352667  0  0.981474  0  0.632943  0  0.288436  0.337132  0  0.998514  0
H  H5  1  0.56332037  0.14276053  0.71539525  1  0  0.363477  0  0.925069  0  0  0.343603  0  0.991417  0  0  0.352688  0  0.981431  0  0.63272  0  0.288454  0.337155  0  0.998469  0
H  H6  1  0.67532154  0.65007797  0.24164639  1  0  0.107578  0  0.939138  0  0  0.1137  0  1.007623  0  0  0.11658  0  1.004429  0  0.156727  0  0.118305  0.111515  0  1.010128  0
H  H7  1  0.32468004  0.34991821  0.75835581  1  0  0.107551  0  0.939163  0  0  0.113646  0  1.007669  0  0  0.116524  0  1.004478  0  0.157123  0  0.118285  0.111462  0  1.010173  0
H  H8  1  0.37119675  0.53075434  0.27539843  1  0  0.113569  0  0.934022  0  0  0.121049  0  0.998545  0  0  0.123984  0  0.995395  0  0.169239  0  0.118043  0.11883  0  1.001017  0
H  H9  1  0.62880431  0.46924454  0.72459875  1  0  0.113526  0  0.934099  0  0  0.121047  0  0.998567  0  0  0.123983  0  0.995417  0  0.169245  0  0.118025  0.118826  0  1.001042  0
H  H10  1  0.20812791  0.86310862  0.43324882  1  0  0.103119  0  0.949049  0  0  0.109982  0  1.01798  0  0  0.112664  0  1.015327  0  0.141123  0  0.117226  0.108154  0  1.019781  0
H  H11  1  0.79187141  0.13689206  0.56675150  1  0  0.103097  0  0.94905  0  0  0.109967  0  1.017974  0  0  0.11265  0  1.01532  0  0.141111  0  0.117226  0.108139  0  1.019775  0
H  H12  1  0.70718605  0.44803063  0.48621355  1  0  0.108952  0  0.940849  0  0  0.114233  0  1.012329  0  0  0.11729  0  1.008863  0  0.165339  0  0.117614  0.111957  0  1.014925  0
H  H13  1  0.29281463  0.55196735  0.51378660  1  0  0.108895  0  0.940839  0  0  0.114158  0  1.012341  0  0  0.117219  0  1.008874  0  0.16537  0  0.117576  0.111882  0  1.014936  0
H  H14  1  0.82671242  0.98875415  0.05261086  1  0  0.108431  0  0.964449  0  0  0.113259  0  1.03606  0  0  0.116243  0  1.032882  0  0.158914  0  0.109907  0.111082  0  1.038404  0
H  H15  1  0.17328690  0.01124654  0.94738945  1  0  0.108447  0  0.964436  0  0  0.113273  0  1.036046  0  0  0.116257  0  1.032869  0  0.15892  0  0.109914  0.111096  0  1.03839  0
H  H16  1  0.29651879  0.10999539  0.07016423  1  0  0.110277  0  0.942333  0  0  0.117182  0  1.009735  0  0  0.120057  0  1.006662  0  0.138342  0  0.119513  0.114963  0  1.012216  0
H  H17  1  0.70348221  0.89000530  0.92983508  1  0  0.110274  0  0.942365  0  0  0.117189  0  1.009756  0  0  0.120063  0  1.006685  0  0.138343  0  0.11951  0.11497  0  1.012239  0
H  H18  1  0.37485998  0.25512133  0.29688642  1  0  0.111512  0  0.962394  0  0  0.118063  0  1.029676  0  0  0.121182  0  1.026512  0  0.182603  0  0.117928  0.115706  0  1.032157  0
H  H19  1  0.62514147  0.74487845  0.70311211  1  0  0.11154  0  0.962309  0  0  0.1181  0  1.029577  0  0  0.121226  0  1.026404  0  0.182603  0  0.117947  0.115711  0  1.032094  0
H  H20  1  0.66701023  0.84567090  0.27697536  1  0  0.101205  0  0.980396  0  0  0.107842  0  1.050231  0  0  0.110793  0  1.047275  0  0.159296  0  0.119072  0.105589  0  1.052604  0
H  H21  1  0.33298735  0.15433159  0.72302809  1  0  0.101132  0  0.980397  0  0  0.107781  0  1.050214  0  0  0.110731  0  1.047261  0  0.159306  0  0.119055  0.105529  0  1.052596  0
H  H22  1  0.48632159  0.00497242  0.34348408  1  0  0.020339  0  0.967242  0  0  0.03195  0  1.049392  0  0  0.032591  0  1.047091  0  0.039265  0  0.079336  0.031297  0  1.051305  0
H  H23  1  0.51367986  0.99502736  0.65651445  1  0  0.020384  0  0.967218  0  0  0.031975  0  1.049375  0  0  0.032616  0  1.047075  0  0.039287  0  0.079358  0.031322  0  1.051288  0
H  H24  1  0.50280625  0.92403878  0.45120245  1  0  0.051995  0  0.915544  0  0  0.072774  0  0.969341  0  0  0.072179  0  0.970359  0  0.077314  0  0.099953  0.073057  0  0.968764  0
H  H25  1  0.49719390  0.07596190  0.54879700  1  0  0.052031  0  0.915504  0  0  0.072798  0  0.969312  0  0  0.072196  0  0.97033  0  0.077323  0  0.099962  0.073082  0  0.968735  0
H  H26  1  0.25559589  0.04262344  0.37202925  1  0  0.100562  0  0.951651  0  0  0.119143  0  1.015568  0  0  0.120544  0  1.016129  0  0.041475  0  0.077863  0.118132  0  1.015221  0
H  H27  1  0.74440511  0.95737725  0.62796933  1  0  0.100569  0  0.951633  0  0  0.119152  0  1.01555  0  0  0.120554  0  1.01611  0  0.041496  0  0.077868  0.118143  0  1.015202  0
H  H28  1  0.28879461  0.11209217  0.46357039  1  0  0.096802  0  0.981655  0  0  0.113259  0  1.051946  0  0  0.114817  0  1.052148  0  0.042115  0  0.074526  0.112183  0  1.051713  0
H  H29  1  0.71120638  0.88790851  0.53642819  1  0  0.096804  0  0.981642  0  0  0.11326  0  1.051936  0  0  0.114817  0  1.052138  0  0.042127  0  0.074517  0.112184  0  1.051703  0
H  H30  1  0.27517332  0.97954129  0.48872320  1  0  0.104498  0  0.971173  0  0  0.121328  0  1.040011  0  0  0.123119  0  1.039509  0  0.032291  0  0.078011  0.12003  0  1.040393  0
H  H31  1  0.72482600  0.02045939  0.51127640  1  0  0.104486  0  0.971203  0  0  0.121314  0  1.040044  0  0  0.123105  0  1.039543  0  0.032285  0  0.078013  0.120017  0  1.040426  0
C  C32  1  0.17432763  0.33417792  0.29429386  1  0  0.063689  0  3.779852  0  0  0.068838  0  4.056373  0  0  0.068504  0  4.076857  0  0.049203  0  0.01922  0.068582  0  4.042821  0
C  C33  1  0.82567298  0.66582186  0.70570553  1  0  0.063568  0  3.779943  0  0  0.068768  0  4.056459  0  0  0.068436  0  4.076948  0  0.049291  0  0.019185  0.068514  0  4.0429  0
C  C34  1  0.08173723  0.77426314  0.27373033  1  0  -0.014732  0  3.790375  0  0  -0.019286  0  4.032263  0  0  -0.017094  0  4.052555  0  0.071006  0  -0.009022  -0.020582  0  4.0187  0
C  C35  1  0.91826125  0.22573754  0.72626870  1  0  -0.014736  0  3.790393  0  0  -0.019343  0  4.032367  0  0  -0.017151  0  4.052657  0  0.071141  0  -0.009067  -0.020647  0  4.018818  0
C  C36  1  0.86086643  0.80397325  0.27828346  1  0  0.070573  0  3.76423  0  0  0.076881  0  4.037214  0  0  0.076251  0  4.057932  0  0.099856  0  0.020104  0.076787  0  4.023608  0
C  C37  1  0.13913334  0.19602653  0.72171608  1  0  0.070522  0  3.764236  0  0  0.076875  0  4.037191  0  0  0.076245  0  4.057908  0  0.099905  0  0.020123  0.076782  0  4.023589  0
C  C38  1  0.18585719  0.65900236  0.24856618  1  0  0.069532  0  3.78367  0  0  0.07293  0  4.065646  0  0  0.072696  0  4.085774  0  0.066185  0  0.018712  0.072619  0  4.052352  0
C  C39  1  0.81414296  0.34099832  0.75143183  1  0  0.069522  0  3.783728  0  0  0.072964  0  4.065675  0  0  0.072728  0  4.08581  0  0.066114  0  0.018723  0.072654  0  4.052385  0
C  C40  1  0.73654695  0.57518519  0.27922801  1  0  0.063126  0  3.683313  0  0  0.013312  0  3.950645  0  0  0.020463  0  3.966  0  0.46932  0  0.0344  0.00846  0  3.940608  0
C  C41  1  0.26345495  0.42481369  0.72077406  1  0  0.063182  0  3.683494  0  0  0.013372  0  3.950819  0  0  0.020526  0  3.966175  0  0.468639  0  0.034424  0.008517  0  3.940779  0
C  C42  1  0.94409858  0.40900850  0.28709625  1  0  -0.01166  0  3.764092  0  0  -0.016762  0  4.007899  0  0  -0.014269  0  4.027874  0  0.114235  0  -0.008568  -0.01845  0  3.994716  0
C  C43  1  0.05590346  0.59098677  0.71290590  1  0  -0.011714  0  3.764151  0  0  -0.016862  0  4.008051  0  0  -0.014362  0  4.028028  0  0.114249  0  -0.008591  -0.018546  0  3.994849  0
C  C44  1  0.09157495  0.84939931  0.34018858  1  0  0.066285  0  3.766263  0  0  0.072103  0  4.04213  0  0  0.072023  0  4.060647  0  0.027003  0  0.018923  0.071661  0  4.029892  0
C  C45  1  0.90842437  0.15060137  0.65981029  1  0  0.066333  0  3.766196  0  0  0.07214  0  4.04213  0  0  0.072064  0  4.06064  0  0.026948  0  0.018969  0.071699  0  4.029895  0
C  C46  1  0.95475561  0.88163349  0.14736850  1  0  0.065111  0  3.775427  0  0  0.068206  0  4.055098  0  0  0.067759  0  4.074869  0  0.035488  0  0.018484  0.068001  0  4.042083  0
C  C47  1  0.04524333  0.11836629  0.85263047  1  0  0.065089  0  3.775286  0  0  0.068165  0  4.055009  0  0  0.067709  0  4.07479  0  0.03538  0  0.01847  0.06796  0  4.041997  0
C  C48  1  0.88368456  0.38890969  0.37776890  1  0  0.068014  0  3.753439  0  0  0.073841  0  4.028316  0  0  0.073987  0  4.047243  0  0.000433  0  0.019054  0.073138  0  4.016006  0
C  C49  1  0.11631657  0.61108739  0.62223335  1  0  0.068099  0  3.753434  0  0  0.073896  0  4.028365  0  0  0.074044  0  4.047292  0  0.000923  0  0.019071  0.073202  0  4.016037  0
C  C50  1  0.29100842  0.62128103  0.29193511  1  0  0.064164  0  3.668212  0  0  0.017007  0  3.93159  0  0  0.023954  0  3.947213  0  0.556908  0  0.038036  0.012492  0  3.92091  0
C  C51  1  0.70899090  0.37871965  0.70806305  1  0  0.064269  0  3.668267  0  0  0.017083  0  3.931615  0  0  0.024037  0  3.947226  0  0.556889  0  0.038104  0.012569  0  3.920934  0
C  C52  1  0.19958754  0.80685340  0.38042454  1  0  0.073546  0  3.680813  0  0  0.028504  0  3.939682  0  0  0.035863  0  3.955177  0  0.628254  0  0.038772  0.023097  0  3.930076  0
C  C53  1  0.80041056  0.19314638  0.61957529  1  0  0.07361  0  3.680764  0  0  0.02857  0  3.939643  0  0  0.035923  0  3.955148  0  0.628242  0  0.038784  0.023162  0  3.930037  0
C  C54  1  0.96611148  0.81805757  0.23237363  1  0  -0.013859  0  3.793592  0  0  -0.016111  0  4.033812  0  0  -0.013786  0  4.053987  0  0.081828  0  -0.008039  -0.0176  0  4.020427  0
C  C55  1  0.03388700  0.18194312  0.76762467  1  0  -0.013787  0  3.79348  0  0  -0.016071  0  4.033809  0  0  -0.013741  0  4.053985  0  0.081756  0  -0.008043  -0.017543  0  4.020377  0
C  C56  1  0.12915184  0.24782496  0.16683816  1  0  0.072531  0  3.748791  0  0  0.079587  0  4.0214  0  0  0.079321  0  4.04122  0  0.118161  0  0.023958  0.079264  0  4.008363  0
C  C57  1  0.87084877  0.75217482  0.83316195  1  0  0.072432  0  3.748871  0  0  0.079561  0  4.021427  0  0  0.079297  0  4.041248  0  0.118147  0  0.023933  0.079237  0  4.008394  0
C  C58  1  0.75416650  0.46279735  0.41580406  1  0  0.073227  0  3.669144  0  0  0.028641  0  3.928068  0  0  0.036096  0  3.942986  0  0.599554  0  0.040059  0.02356  0  3.918219  0
C  C59  1  0.24583418  0.53720063  0.58419753  1  0  0.073271  0  3.669212  0  0  0.02872  0  3.928135  0  0  0.036168  0  3.943055  0  0.599486  0  0.040098  0.023632  0  3.918286  0
C  C60  1  0.83955386  0.93487876  0.11602700  1  0  0.060201  0  3.687855  0  0  0.010908  0  3.953685  0  0  0.018845  0  3.967976  0  0.581806  0  0.033603  0.005711  0  3.943938  0
C  C61  1  0.16044462  0.06512192  0.88397274  1  0  0.060201  0  3.687812  0  0  0.010929  0  3.953624  0  0  0.018866  0  3.967921  0  0.581814  0  0.033621  0.005732  0  3.943877  0
C  C62  1  0.08225180  0.33172417  0.24858328  1  0  -0.012388  0  3.767563  0  0  -0.017398  0  4.012352  0  0  -0.01496  0  4.032311  0  0.034261  0  -0.007553  -0.018881  0  3.998955  0
C  C63  1  0.91774758  0.66827471  0.75141851  1  0  -0.012292  0  3.767467  0  0  -0.017381  0  4.012337  0  0  -0.014946  0  4.032293  0  0.034287  0  -0.007536  -0.018866  0  3.998942  0
C  C64  1  0.25999311  0.17387871  0.13415955  1  0  0.078409  0  3.649371  0  0  0.035139  0  3.900594  0  0  0.042485  0  3.915957  0  0.544169  0  0.043522  0.030147  0  3.890506  0
C  C65  1  0.74000705  0.82612197  0.86583990  1  0  0.078412  0  3.649451  0  0  0.035118  0  3.900647  0  0  0.042459  0  3.916024  0  0.544171  0  0.043528  0.030126  0  3.890559  0
C  C66  1  0.30354235  0.25597771  0.25978893  1  0  0.062435  0  3.661408  0  0  0.021366  0  3.91194  0  0  0.027662  0  3.928495  0  0.55972  0  0.040323  0.01712  0  3.901041  0
C  C67  1  0.69645910  0.74402207  0.74021032  1  0  0.062467  0  3.661287  0  0  0.021364  0  3.91184  0  0  0.027655  0  3.92839  0  0.559725  0  0.040322  0.017143  0  3.900959  0
C  C68  1  0.86562640  0.50496465  0.23756774  1  0  0.068482  0  3.769678  0  0  0.072498  0  4.051633  0  0  0.072466  0  4.071156  0  0.166816  0  0.018366  0.072098  0  4.038836  0
C  C69  1  0.13437556  0.49503243  0.76243509  1  0  0.068367  0  3.769998  0  0  0.072473  0  4.051841  0  0  0.072434  0  4.071373  0  0.166609  0  0.018326  0.072074  0  4.039041  0
C  C70  1  0.51031835  0.32075257  0.94217480  1  0  0.602967  0  3.675029  0  0  0.538061  0  4.034748  0  0  0.566417  0  4.007561  0  1.668524  0  0.285387  0.517582  0  4.054807  0
C  C71  1  0.48968143  0.67924721  0.05782474  1  0  0.602795  0  3.675247  0  0  0.537995  0  4.03481  0  0  0.566344  0  4.007634  0  1.66853  0  0.285379  0.517516  0  4.054868  0
C  C72  1  0.74919226  0.85686335  0.24228729  1  0  0.059121  0  3.669261  0  0  0.015901  0  3.92145  0  0  0.022312  0  3.938234  0  0.528351  0  0.038207  0.011672  0  3.91034  0
C  C73  1  0.25080706  0.14313734  0.75771519  1  0  0.059237  0  3.669253  0  0  0.01601  0  3.921422  0  0  0.022421  0  3.938207  0  0.528324  0  0.038249  0.011772  0  3.910321  0
C  C74  1  0.45131784  0.95056045  0.39073644  1  0  0.191613  0  3.655676  0  0  0.140724  0  3.924442  0  0  0.148394  0  3.932291  0  0.418129  0  -0.085779  0.135526  0  3.919014  0
C  C75  1  0.54868278  0.04943933  0.60926223  1  0  0.191507  0  3.655668  0  0  0.140643  0  3.924424  0  0  0.148321  0  3.932261  0  0.418086  0  -0.08582  0.135446  0  3.918997  0
C  C76  1  0.33250026  0.72763454  0.76144666  1  0  0.597704  0  3.669218  0  0  0.532384  0  4.030205  0  0  0.560014  0  4.003444  0  1.649085  0  0.28222  0.512389  0  4.049934  0
C  C77  1  0.66749693  0.27236704  0.23855401  1  0  0.597647  0  3.66927  0  0  0.532297  0  4.03031  0  0  0.559949  0  4.003504  0  1.648907  0  0.282203  0.512303  0  4.050038  0
C  C78  1  0.30932000  0.02474851  0.43091354  1  0  -0.34666  0  3.722884  0  0  -0.418607  0  3.967093  0  0  -0.422892  0  3.977317  0  -0.112124  0  -0.26398  -0.415381  0  3.959904  0
C  C79  1  0.69067887  0.97525307  0.56908611  1  0  -0.346641  0  3.722921  0  0  -0.418589  0  3.96713  0  0  -0.422875  0  3.977352  0  -0.112125  0  -0.263968  -0.415365  0  3.959941  0
S  S80  1  0.57542782  0.15615433  0.91016555  1  0  1.121205  0  5.800907  0  0  1.019162  0  6.33264  0  0  1.062126  0  6.313919  0  3.253244  0  0.481862  0.989667  0  6.344814  0
S  S81  1  0.42457234  0.84384636  0.08983318  1  0  1.121375  0  5.800694  0  0  1.01931  0  6.332413  0  0  1.062281  0  6.313684  0  3.25326  0  0.481892  0.98982  0  6.344586  0
S  S82  1  0.41627425  0.73572689  0.63528313  1  0  1.108195  0  5.84799  0  0  1.015058  0  6.374399  0  0  1.05907  0  6.353997  0  3.252412  0  0.468152  0.984845  0  6.387727  0
S  S83  1  0.58372546  0.26427469  0.36471781  1  0  1.108207  0  5.84808  0  0  1.015058  0  6.374515  0  0  1.059072  0  6.3541  0  3.252327  0  0.468103  0.984848  0  6.38784  0
N  N84  1  0.29620575  0.69460528  0.35699357  1  0  -0.254164  0  3.328503  0  0  -0.170912  0  3.613721  0  0  -0.188864  0  3.63023  0  -1.19379  0  -0.333559  -0.158377  0  3.60202  0
N  N85  1  0.70379312  0.30539631  0.64300465  1  0  -0.254287  0  3.328547  0  0  -0.171034  0  3.613787  0  0  -0.188986  0  3.630296  0  -1.193741  0  -0.333619  -0.158499  0  3.602087  0
N  N86  1  0.34476747  0.17739168  0.18101793  1  0  -0.250749  0  3.335432  0  0  -0.165643  0  3.620545  0  0  -0.183591  0  3.637534  0  -1.191938  0  -0.332369  -0.15346  0  3.608868  0
N  N87  1  0.65523398  0.82260811  0.81898132  1  0  -0.250754  0  3.335456  0  0  -0.16563  0  3.620582  0  0  -0.183579  0  3.637573  0  -1.191928  0  -0.332381  -0.153445  0  3.608896  0
N  N88  1  0.73871144  0.92396666  0.16426548  1  0  -0.242794  0  3.30895  0  0  -0.156735  0  3.588131  0  0  -0.174721  0  3.604961  0  -1.191057  0  -0.332864  -0.144441  0  3.576243  0
N  N89  1  0.26128879  0.07603222  0.83573545  1  0  -0.242876  0  3.308959  0  0  -0.156831  0  3.588161  0  0  -0.174819  0  3.604991  0  -1.19113  0  -0.332924  -0.144538  0  3.576279  0
N  N90  1  0.68264018  0.55400013  0.36654706  1  0  -0.24895  0  3.341402  0  0  -0.166814  0  3.630249  0  0  -0.184201  0  3.645911  0  -1.177678  0  -0.333561  -0.154905  0  3.619461  0
N  N91  1  0.31735966  0.44599785  0.63345396  1  0  -0.248963  0  3.341613  0  0  -0.166824  0  3.630431  0  0  -0.184209  0  3.646098  0  -1.17736  0  -0.333552  -0.154912  0  3.619639  0
Cl  Cl92  1  0.86720395  0.72313178  0.38076055  1  0  -0.057544  0  1.484955  0  0  -0.040875  0  1.734674  0  0  -0.046408  0  1.734214  0  -0.178837  0  0.031004  -0.036747  0  1.735164  0
Cl  Cl93  1  0.13279704  0.27686890  0.61923947  1  0  -0.057542  0  1.484973  0  0  -0.040884  0  1.734673  0  0  -0.046416  0  1.734213  0  -0.178856  0  0.030994  -0.036756  0  1.735165  0
Cl  Cl94  1  0.13179583  0.43296824  0.39443806  1  0  -0.05625  0  1.464229  0  0  -0.042381  0  1.713782  0  0  -0.047421  0  1.712463  0  -0.172135  0  0.021208  -0.038677  0  1.714888  0
Cl  Cl95  1  0.86820517  0.56703244  0.60556197  1  0  -0.056212  0  1.464288  0  0  -0.042351  0  1.713829  0  0  -0.047394  0  1.712514  0  -0.172255  0  0.021215  -0.038647  0  1.714933  0
Cl  Cl96  1  0.92413174  0.54073884  0.12526847  1  0  -0.058273  0  1.416511  0  0  -0.04685  0  1.6501  0  0  -0.050928  0  1.645975  0  -0.178665  0  0.012725  -0.043854  0  1.653248  0
Cl  Cl97  1  0.07586848  0.45926004  0.87473390  1  0  -0.058202  0  1.416576  0  0  -0.0468  0  1.650123  0  0  -0.050877  0  1.646004  0  -0.178721  0  0.012761  -0.043805  0  1.65327  0
Cl  Cl98  1  0.97043342  0.99422777  0.37220926  1  0  -0.039453  0  1.415061  0  0  -0.024544  0  1.650153  0  0  -0.028741  0  1.646003  0  -0.160125  0  0.03248  -0.021546  0  1.653235  0
Cl  Cl99  1  0.02956635  0.00577201  0.62778956  1  0  -0.03947  0  1.415051  0  0  -0.024548  0  1.650151  0  0  -0.028746  0  1.645996  0  -0.160129  0  0.032481  -0.021552  0  1.653232  0
Cl  Cl100  1  0.18567893  0.56412435  0.16262208  1  0  -0.044039  0  1.441269  0  0  -0.032408  0  1.679823  0  0  -0.036893  0  1.6758  0  -0.160417  0  0.021028  -0.028991  0  1.682896  0
Cl  Cl101  1  0.81432084  0.43587543  0.83737674  1  0  -0.04405  0  1.441296  0  0  -0.032427  0  1.679831  0  0  -0.036911  0  1.67581  0  -0.160414  0  0.02102  -0.02901  0  1.682903  0
Cl  Cl102  1  0.96807375  0.27037032  0.44267083  1  0  -0.046177  0  1.489046  0  0  -0.029136  0  1.739396  0  0  -0.034901  0  1.738447  0  -0.171208  0  0.034649  -0.025013  0  1.740384  0
Cl  Cl103  1  0.03192829  0.72962495  0.55732916  1  0  -0.04621  0  1.489084  0  0  -0.029162  0  1.739452  0  0  -0.034927  0  1.7385  0  -0.171595  0  0.034638  -0.025042  0  1.740434  0
Cl  Cl104  1  0.02635880  0.23083526  0.10788596  1  0  -0.041602  0  1.40475  0  0  -0.030909  0  1.632533  0  0  -0.035162  0  1.628155  0  -0.157733  0  0.028097  -0.027828  0  1.63574  0
Cl  Cl105  1  0.97364181  0.76916452  0.89211344  1  0  -0.04156  0  1.404784  0  0  -0.030881  0  1.632541  0  0  -0.035133  0  1.628164  0  -0.157736  0  0.028108  -0.0278  0  1.635749  0
Cl  Cl106  1  0.08325516  0.89543926  0.08442456  1  0  -0.030837  0  1.449928  0  0  -0.019467  0  1.694846  0  0  -0.023894  0  1.689747  0  -0.153939  0  0.031167  -0.015937  0  1.698333  0
Cl  Cl107  1  0.91674468  0.10455872  0.91557574  1  0  -0.030836  0  1.449878  0  0  -0.019448  0  1.694791  0  0  -0.023873  0  1.689695  0  -0.153856  0  0.031181  -0.015922  0  1.698281  0
O  O108  1  0.44319295  0.83481649  0.64835552  1  0  -0.603345  0  1.980757  0  0  -0.570249  0  2.232412  0  0  -0.589336  0  2.21979  0  -1.318814  0  -0.337857  -0.557003  0  2.240815  0
O  O109  1  0.55680721  0.16518419  0.35164681  1  0  -0.603316  0  1.980718  0  0  -0.570206  0  2.232375  0  0  -0.589293  0  2.219751  0  -1.318695  0  -0.337827  -0.556968  0  2.240784  0
O  O110  1  0.65703709  0.09746879  0.98059057  1  0  -0.618405  0  2.064702  0  0  -0.574071  0  2.342377  0  0  -0.59412  0  2.327093  0  -1.318703  0  -0.339928  -0.560105  0  2.352306  0
O  O111  1  0.34296223  0.90253190  0.01940830  1  0  -0.618416  0  2.064554  0  0  -0.574099  0  2.342236  0  0  -0.594147  0  2.32695  0  -1.318745  0  -0.339947  -0.560135  0  2.352167  0
O  O112  1  0.46038828  0.14291738  0.92479511  1  0  -0.630385  0  2.03818  0  0  -0.590619  0  2.316065  0  0  -0.609733  0  2.299855  0  -1.316417  0  -0.345664  -0.577093  0  2.326552  0
O  O113  1  0.53961233  0.85708240  0.07520357  1  0  -0.63046  0  2.038155  0  0  -0.590689  0  2.316029  0  0  -0.609803  0  2.299818  0  -1.316414  0  -0.345687  -0.577164  0  2.326518  0
O  O114  1  0.48641300  0.83948152  0.33681951  1  0  -0.585477  0  2.103145  0  0  -0.524492  0  2.346059  0  0  -0.542943  0  2.332583  0  -1.158862  0  -0.422454  -0.51124  0  2.355176  0
O  O115  1  0.51358677  0.16051826  0.66318075  1  0  -0.585449  0  2.103083  0  0  -0.524477  0  2.345979  0  0  -0.542923  0  2.332497  0  -1.158627  0  -0.422473  -0.511227  0  2.355101  0
O  O116  1  0.32275757  0.75918092  0.57424534  1  0  -0.618316  0  2.021414  0  0  -0.577044  0  2.28733  0  0  -0.597242  0  2.273912  0  -1.30562  0  -0.347246  -0.562943  0  2.296122  0
O  O117  1  0.67724511  0.24081977  0.42575367  1  0  -0.618368  0  2.021437  0  0  -0.577099  0  2.287364  0  0  -0.597296  0  2.273947  0  -1.305682  0  -0.347256  -0.562993  0  2.296152  0
O  O118  1  0.64519804  0.13690018  0.80792144  1  0  -0.602803  0  2.018192  0  0  -0.564066  0  2.264647  0  0  -0.583837  0  2.255045  0  -1.320399  0  -0.331724  -0.550189  0  2.27088  0
O  O119  1  0.35480250  0.86310141  0.19207792  1  0  -0.602829  0  2.018145  0  0  -0.564081  0  2.264602  0  0  -0.583853  0  2.254996  0  -1.320361  0  -0.331703  -0.550205  0  2.270835  0
O  O120  1  0.52771338  0.61597237  0.61481041  1  0  -0.636799  0  2.00189  0  0  -0.607408  0  2.273821  0  0  -0.626236  0  2.25819  0  -1.328681  0  -0.346727  -0.594142  0  2.284296  0
O  O121  1  0.47228633  0.38402922  0.38519341  1  0  -0.636798  0  2.001951  0  0  -0.607406  0  2.273889  0  0  -0.626234  0  2.258253  0  -1.32867  0  -0.346715  -0.594141  0  2.284363  0
F  F122  1  0.44320208  0.38699861  0.87484860  1  0  -0.235474  0  1.185134  0  0  -0.194783  0  1.3508  0  0  -0.203882  0  1.333603  0  -0.618976  0  -0.100076  -0.188169  0  1.362979  0
F  F123  1  0.55679640  0.61300208  0.12515114  1  0  -0.235438  0  1.185152  0  0  -0.194771  0  1.350779  0  0  -0.20387  0  1.333586  0  -0.618949  0  -0.100083  -0.188158  0  1.362958  0
F  F124  1  0.30796724  0.63289085  0.76592181  1  0  -0.232932  0  1.224831  0  0  -0.193154  0  1.397985  0  0  -0.203307  0  1.383454  0  -0.618914  0  -0.101643  -0.185816  0  1.408263  0
F  F125  1  0.69203253  0.36710893  0.23407846  1  0  -0.232912  0  1.224856  0  0  -0.193134  0  1.398026  0  0  -0.203293  0  1.383484  0  -0.618753  0  -0.101635  -0.185798  0  1.408302  0
F  F126  1  0.43092672  0.35372234  0.03196837  1  0  -0.224023  0  1.221954  0  0  -0.191575  0  1.397502  0  0  -0.201276  0  1.381514  0  -0.614609  0  -0.101869  -0.184509  0  1.408794  0
F  F127  1  0.56907435  0.64627654  0.96803025  1  0  -0.223998  0  1.222001  0  0  -0.191578  0  1.397515  0  0  -0.201277  0  1.381528  0  -0.61463  0  -0.10188  -0.184513  0  1.408805  0
F  F128  1  0.60451010  0.34879590  0.94354261  1  0  -0.226575  0  1.215215  0  0  -0.192898  0  1.385608  0  0  -0.202145  0  1.36966  0  -0.613975  0  -0.10129  -0.186232  0  1.39693  0
F  F129  1  0.39548967  0.65120388  0.05645621  1  0  -0.226513  0  1.215296  0  0  -0.192852  0  1.385648  0  0  -0.202097  0  1.369703  0  -0.613992  0  -0.101259  -0.186186  0  1.396968  0
F  F130  1  0.21975885  0.82952135  0.79046940  1  0  -0.236076  0  1.225987  0  0  -0.199854  0  1.400266  0  0  -0.209442  0  1.385672  0  -0.624923  0  -0.103455  -0.19289  0  1.410552  0
F  F131  1  0.78023879  0.17047933  0.20953121  1  0  -0.236035  0  1.225964  0  0  -0.199804  0  1.400244  0  0  -0.209399  0  1.385644  0  -0.624875  0  -0.103429  -0.192842  0  1.410533  0
F  F132  1  0.40602261  0.71386213  0.82759695  1  0  -0.233534  0  1.207067  0  0  -0.197255  0  1.382532  0  0  -0.205886  0  1.364535  0  -0.618452  0  -0.102371  -0.191003  0  1.395288  0
F  F133  1  0.59397329  0.28614035  0.17240536  1  0  -0.233547  0  1.2071  0  0  -0.197232  0  1.382551  0  0  -0.205873  0  1.364543  0  -0.618466  0  -0.102381  -0.190983  0  1.395307  0
