# generated using pymatgen
data_CuH12C20N3O4
_symmetry_space_group_name_H-M   'P 1'
_cell_length_a   7.54905541
_cell_length_b   10.41658440
_cell_length_c   12.20696954
_cell_angle_alpha   104.00969859
_cell_angle_beta   104.41643642
_cell_angle_gamma   106.95189621
_symmetry_Int_Tables_number   1
_chemical_formula_structural   CuH12C20N3O4
_chemical_formula_sum   'Cu2 H24 C40 N6 O8'
_cell_volume   836.40828725
_cell_formula_units_Z   2
loop_
 _symmetry_equiv_pos_site_id
 _symmetry_equiv_pos_as_xyz
  1  'x, y, z'
loop_
 _atom_site_type_symbol
 _atom_site_label
 _atom_site_symmetry_multiplicity
 _atom_site_fract_x
 _atom_site_fract_y
 _atom_site_fract_z
 _atom_site_occupancy
 _atom_site_hle17_ddec_charge
 _atom_site_hle17_ddec_spin_density
 _atom_site_hle17_ddec_sum_bond_order
 _atom_site_hle17_magmom
 _atom_site_hse06_10hf_ddec_charge
 _atom_site_hse06_10hf_ddec_spin_density
 _atom_site_hse06_10hf_ddec_sum_bond_order
 _atom_site_hse06_10hf_magmom
 _atom_site_hse06_ddec_charge
 _atom_site_hse06_ddec_spin_density
 _atom_site_hse06_ddec_sum_bond_order
 _atom_site_hse06_magmom
 _atom_site_pbe_cm5_charge
 _atom_site_pbe_ddec_charge
 _atom_site_pbe_ddec_spin_density
 _atom_site_pbe_ddec_sum_bond_order
 _atom_site_pbe_magmom
Cu  Cu0  1  0.07023104  0.34047851  0.24580620  1  0.807606  -0.74805  1.958116  -0.519  0.767948  -0.813417  2.36847  -0.619  0.847135  -0.887494  2.304021  -0.701  0.783853  0.722959  -0.759735  2.411119  -0.565
Cu  Cu1  1  0.92977468  0.65952335  0.75419095  1  0.807585  0.748041  1.958081  0.519  0.768034  0.813431  2.368391  0.619  0.847147  0.88749  2.303947  0.701  0.783844  0.722984  0.759729  2.411014  0.565
H  H2  1  0.07064026  0.64352681  0.29315359  1  0.097196  -0.001486  0.917428  -0.003  0.109044  -0.001229  0.970258  -0.002  0.110985  -0.000859  0.968809  -0.001  0.127131  0.107259  -0.001562  0.972043  -0.002
H  H3  1  0.92937325  0.35647721  0.70685345  1  0.097129  0.001487  0.917491  0.003  0.108977  0.00123  0.970339  0.002  0.110916  0.000859  0.968897  0.001  0.127114  0.107195  0.001563  0.972123  0.002
H  H4  1  0.33383784  0.89006215  0.38631282  1  0.106391  -0.000518  0.948341  -0.001  0.11648  -0.000492  1.007242  -0.001  0.118728  -0.00035  1.007618  0.0  0.112484  0.115428  -0.000633  1.006223  -0.001
H  H5  1  0.66618518  0.10993874  0.61368609  1  0.106389  0.000513  0.948242  0.001  0.116488  0.000493  1.00712  0.001  0.118735  0.00035  1.007495  0.0  0.11247  0.115436  0.000633  1.006102  0.001
H  H6  1  0.68901365  0.91580326  0.46234313  1  0.124468  -0.000223  0.94708  0.0  0.134195  3e-05  1.004459  0.0  0.138066  3.9e-05  1.000387  0.0  0.114475  0.131002  1e-06  1.007983  0.0
H  H7  1  0.31100700  0.08419550  0.53765005  1  0.124428  0.000217  0.946931  0.0  0.134156  -3e-05  1.004314  0.0  0.138026  -3.9e-05  1.000239  0.0  0.114449  0.130963  -1e-06  1.007837  0.0
H  H8  1  0.76457314  0.69632729  0.46015466  1  0.136103  -0.000874  0.966011  -0.001  0.141845  -0.000714  1.026783  -0.001  0.146538  -0.000483  1.02374  -0.001  0.113083  0.138202  -0.000913  1.029297  -0.001
H  H9  1  0.23544037  0.30366824  0.53983835  1  0.136022  0.000875  0.966084  0.001  0.141807  0.000714  1.026824  0.001  0.146548  0.000483  1.023721  0.001  0.113093  0.138166  0.000913  1.029335  0.001
H  H10  1  0.79980116  0.48362443  0.43494920  1  0.14629  -0.000782  0.951037  -0.001  0.15123  -0.000624  1.014826  -0.001  0.155678  -0.000443  1.011689  -0.001  0.117892  0.147777  -0.000767  1.01733  -0.001
H  H11  1  0.20020432  0.51637423  0.56504644  1  0.146271  0.000786  0.950987  0.001  0.151214  0.000624  1.014762  0.001  0.155661  0.000443  1.011627  0.001  0.117882  0.147761  0.000768  1.017264  0.001
H  H12  1  0.46879953  0.03174990  0.26919044  1  0.118424  -0.000835  0.948523  -0.001  0.126447  -0.000692  1.012653  -0.001  0.130225  -0.000498  1.010729  -0.001  0.113011  0.124092  -0.000849  1.013214  -0.001
H  H13  1  0.53119603  0.96824552  0.73080623  1  0.11838  0.000836  0.948617  0.001  0.126401  0.000692  1.012742  0.001  0.130176  0.000499  1.010828  0.001  0.113027  0.124049  0.000849  1.013295  0.001
H  H14  1  0.16110109  0.87172502  0.14049590  1  0.125588  -0.000725  0.961157  -0.001  0.135744  -0.000616  1.020478  -0.001  0.139112  -0.00043  1.018874  -0.001  0.112313  0.133157  -0.000804  1.02212  -0.001
H  H15  1  0.83889224  0.12826929  0.85951739  1  0.125544  0.000723  0.961157  0.001  0.13566  0.000616  1.020526  0.001  0.139028  0.000431  1.018922  0.001  0.1123  0.133074  0.000804  1.022168  0.001
H  H16  1  0.81538427  0.71879404  0.02050346  1  0.106219  -0.000257  0.947437  0.0  0.114085  -8.7e-05  1.012507  0.0  0.116296  -7.4e-05  1.011184  0.0  0.111843  0.112245  -9.1e-05  1.013802  0.0
H  H17  1  0.18460601  0.28120238  0.97951059  1  0.106193  0.000255  0.947362  0.0  0.114087  8.7e-05  1.01243  0.0  0.116264  7.4e-05  1.011145  0.0  0.111826  0.112246  9.2e-05  1.013728  0.0
H  H18  1  0.55790461  0.82926469  0.99833199  1  0.100044  -0.000504  0.973537  0.0  0.110113  -0.000459  1.034095  -0.001  0.112435  -0.000323  1.034353  0.0  0.1054  0.108239  -0.000536  1.034393  -0.001
H  H19  1  0.44209130  0.17073710  0.00167504  1  0.10013  0.0005  0.973461  0.0  0.11017  0.000459  1.034057  0.001  0.112476  0.000323  1.034338  0.0  0.10546  0.108299  0.000536  1.034352  0.001
H  H20  1  0.66886239  0.09544737  0.09504181  1  0.075868  -0.001384  0.94562  -0.002  0.084681  -0.001242  1.010801  -0.002  0.085965  -0.00088  1.009957  -0.001  0.117307  0.083541  -0.001542  1.011717  -0.002
H  H21  1  0.33114418  0.90455876  0.90495308  1  0.075836  0.001386  0.945574  0.002  0.084638  0.001242  1.010774  0.002  0.085918  0.00088  1.009939  0.001  0.117311  0.083535  0.001541  1.01165  0.002
H  H22  1  0.67669869  0.55117796  0.21555083  1  0.092557  -0.000119  0.979992  0.0  0.102291  -7e-05  1.04349  0.0  0.105085  -5.1e-05  1.042499  0.0  0.098081  0.100372  -9.2e-05  1.044168  0.0
H  H23  1  0.32327619  0.44881733  0.78444823  1  0.092482  0.000114  0.980009  0.0  0.102243  7e-05  1.043488  0.0  0.105034  5.1e-05  1.042499  0.0  0.09807  0.100331  9.2e-05  1.044156  0.0
H  H24  1  0.58337710  0.34875889  0.84496287  1  0.09301  -3.2e-05  0.974846  0.0  0.0997  -3.2e-05  1.041968  0.0  0.102389  -3.1e-05  1.041898  0.0  0.097278  0.097879  -3.6e-05  1.04205  0.0
H  H25  1  0.41658964  0.65123105  0.15503051  1  0.092988  3.8e-05  0.974774  0.0  0.099678  3.2e-05  1.041915  0.0  0.102358  3e-05  1.041861  0.0  0.09725  0.097868  3.6e-05  1.041985  0.0
C  C26  1  0.22642769  0.66132676  0.32985225  1  0.148668  0.007527  3.666844  0.009  0.119501  0.001229  3.923035  0.003  0.129328  0.002296  3.939977  0.004  0.060791  0.112329  0.000376  3.913599  0.002
C  C27  1  0.77358691  0.33868471  0.67015403  1  0.148672  -0.007548  3.666947  -0.009  0.119443  -0.00123  3.923186  -0.003  0.129267  -0.002298  3.940122  -0.004  0.060681  0.112266  -0.000377  3.91375  -0.002
C  C28  1  0.37421485  0.79726284  0.38096171  1  -0.103493  -0.009676  3.709073  -0.01  -0.118018  -0.004305  3.964201  -0.005  -0.124879  -0.003764  3.984574  -0.004  -0.072829  -0.114274  -0.004769  3.951093  -0.006
C  C29  1  0.62580705  0.20274124  0.61903767  1  -0.103568  0.009714  3.708987  0.01  -0.11809  0.004304  3.964124  0.005  -0.124946  0.003765  3.984495  0.004  -0.072838  -0.114347  0.004769  3.951019  0.006
C  C30  1  0.57027412  0.81090335  0.42588036  1  0.003569  0.007964  3.664049  0.007  -0.015376  0.002691  3.911059  0.002  -0.010857  0.002873  3.927142  0.003  -0.056867  -0.018534  0.002578  3.90098  0.002
C  C31  1  0.42974646  0.18910072  0.57411635  1  0.003829  -0.007972  3.663881  -0.007  -0.015071  -0.002691  3.910832  -0.002  -0.010551  -0.002873  3.926925  -0.003  -0.056732  -0.018227  -0.002577  3.900749  -0.002
C  C32  1  0.61311958  0.68830499  0.42049254  1  -0.123433  -0.005962  3.642458  -0.006  -0.139278  -0.002489  3.884731  -0.002  -0.146144  -0.002283  3.904206  -0.002  -0.071345  -0.134608  -0.002778  3.871828  -0.003
C  C33  1  0.38688939  0.31169262  0.57950755  1  -0.123496  0.00598  3.642647  0.006  -0.13944  0.00249  3.884969  0.002  -0.146333  0.002284  3.904402  0.002  -0.071434  -0.134774  0.002779  3.872075  0.003
C  C34  1  0.45846512  0.55526281  0.36629600  1  0.160203  0.001805  3.749246  0.002  0.157675  -0.001583  3.995735  -0.001  0.163773  -0.00035  4.018564  0.0  0.117886  0.153698  -0.002469  3.980759  -0.002
C  C35  1  0.54153675  0.44473690  0.63370091  1  0.160206  -0.001829  3.74931  -0.002  0.157708  0.001582  3.995788  0.001  0.163803  0.000349  4.018631  0.0  0.117871  0.153727  0.00247  3.98081  0.002
C  C36  1  0.48317137  0.41690821  0.34726760  1  0.189317  0.002946  3.744926  0.004  0.184142  -0.000509  3.996981  0.001  0.193584  0.000497  4.014985  0.002  0.125253  0.177552  -0.001189  3.985617  0.0
C  C37  1  0.51682828  0.58308722  0.65273054  1  0.189366  -0.002917  3.745045  -0.004  0.184106  0.000507  3.997177  -0.001  0.193545  -0.000495  4.015182  -0.002  0.125254  0.177514  0.001189  3.985814  0.0
C  C38  1  0.65929504  0.39470537  0.38360028  1  -0.112761  -0.005453  3.589439  -0.005  -0.14167  -0.002781  3.836926  -0.003  -0.145015  -0.002474  3.851378  -0.003  -0.062507  -0.139354  -0.003043  3.827923  -0.003
C  C39  1  0.34070977  0.60529222  0.61640158  1  -0.112687  0.005418  3.589665  0.005  -0.141529  0.002784  3.837134  0.003  -0.144877  0.002471  3.851598  0.003  -0.062408  -0.139206  0.003043  3.828124  0.003
C  C40  1  0.65242897  0.25435713  0.35542571  1  0.022859  0.005974  3.679027  0.005  0.038856  0.002226  3.915662  0.002  0.039979  0.002415  3.932377  0.002  0.009509  0.036963  0.002195  3.905428  0.002
C  C41  1  0.34758137  0.74564049  0.64457459  1  0.022778  -0.005953  3.679041  -0.005  0.03872  -0.00223  3.915756  -0.002  0.039838  -0.002413  3.932488  -0.002  0.009422  0.036818  -0.002195  3.905519  -0.002
C  C42  1  0.47198253  0.14032521  0.28973345  1  -0.154344  -0.005228  3.669592  -0.005  -0.183019  -0.002741  3.917882  -0.003  -0.188478  -0.002442  3.935494  -0.003  -0.072125  -0.178693  -0.002894  3.905182  -0.003
C  C43  1  0.52802777  0.85967774  0.71026875  1  -0.154336  0.005209  3.669583  0.005  -0.182994  0.002743  3.917889  0.003  -0.188443  0.002441  3.935481  0.003  -0.072193  -0.178664  0.002894  3.905192  0.003
C  C44  1  0.30150233  0.16930375  0.25389557  1  0.190574  0.003022  3.770184  0.004  0.188059  -0.000439  4.016511  0.001  0.197589  0.000602  4.034856  0.002  0.122908  0.181179  -0.001447  4.004858  0.0
C  C45  1  0.69850492  0.83070130  0.74610739  1  0.190688  -0.003008  3.770224  -0.004  0.188185  0.000438  4.016501  -0.001  0.197713  -0.0006  4.034848  -0.002  0.123031  0.181305  0.001447  4.004845  0.0
C  C46  1  0.09943223  0.06553645  0.18306787  1  0.176176  0.001898  3.740907  0.002  0.173868  -0.001406  3.982029  -0.001  0.181013  -0.00027  4.002749  0.0  0.122369  0.169294  -0.002292  3.968388  -0.002
C  C47  1  0.90056513  0.93446535  0.81693448  1  0.17615  -0.001897  3.741143  -0.002  0.173852  0.001407  3.982225  0.001  0.180992  0.00027  4.002947  0.0  0.122386  0.169274  0.002293  3.968584  0.002
C  C48  1  0.04976165  0.91917614  0.13188215  1  -0.124858  -0.005355  3.659921  -0.005  -0.141084  -0.002287  3.896644  -0.002  -0.147666  -0.002179  3.91619  -0.002  -0.070767  -0.137045  -0.002482  3.88405  -0.002
C  C49  1  0.95023288  0.08082032  0.86812522  1  -0.124859  0.00536  3.660215  0.005  -0.141052  0.002287  3.896957  0.002  -0.147633  0.002181  3.916495  0.002  -0.070789  -0.137014  0.002482  3.884362  0.002
C  C50  1  0.85381357  0.83250023  0.06342774  1  0.021363  0.007382  3.678208  0.007  0.000678  0.002443  3.927662  0.002  0.005865  0.002647  3.944227  0.003  -0.057206  -0.002751  0.002378  3.916993  0.002
C  C51  1  0.14617685  0.16749621  0.93657896  1  0.02142  -0.007379  3.678231  -0.007  0.000699  -0.002443  3.927669  -0.002  0.005912  -0.002648  3.944247  -0.003  -0.057233  -0.002732  -0.002378  3.917006  -0.002
C  C52  1  0.71229065  0.89406718  0.05015505  1  -0.117974  -0.008131  3.719123  -0.008  -0.129086  -0.00359  3.965113  -0.004  -0.13668  -0.00325  3.986588  -0.004  -0.08047  -0.12441  -0.003981  3.951217  -0.005
C  C53  1  0.28770175  0.10593033  0.94984809  1  -0.118153  0.008138  3.719058  0.008  -0.129244  0.00359  3.965081  0.004  -0.136824  0.003251  3.986553  0.004  -0.08054  -0.12457  0.00398  3.951195  0.005
C  C54  1  0.77213461  0.04100288  0.10344968  1  0.142885  0.007142  3.699807  0.008  0.113681  0.001307  3.956718  0.003  0.122977  0.002256  3.975305  0.004  0.05414  0.107588  0.000627  3.944995  0.002
C  C55  1  0.22786449  0.95899681  0.89654842  1  0.143041  -0.00715  3.699581  -0.008  0.113854  -0.001307  3.9565  -0.003  0.123148  -0.002258  3.97508  -0.004  0.054186  0.107729  -0.000628  3.944767  -0.002
C  C56  1  0.83962691  0.22495434  0.39816228  1  0.618569  0.000333  3.984549  0.0  0.573798  0.000452  4.287214  0.0  0.606565  0.000371  4.279342  0.0  0.188227  0.551429  0.00049  4.29145  0.0
C  C57  1  0.16037029  0.77504428  0.60183448  1  0.618669  -0.00034  3.984315  0.0  0.57387  -0.000452  4.287085  0.0  0.606639  -0.000371  4.279213  0.0  0.188278  0.551506  -0.00049  4.291316  0.0
C  C58  1  0.79684738  0.38115355  0.06910528  1  0.613668  0.002608  3.939255  0.006  0.572895  -0.00056  4.243108  0.002  0.609577  -0.000169  4.234848  0.001  0.193095  0.547752  -0.000893  4.248131  0.002
C  C59  1  0.20313979  0.61885245  0.93089712  1  0.613716  -0.002605  3.939073  -0.006  0.572914  0.000561  4.243007  -0.002  0.609594  0.000169  4.234745  -0.001  0.193178  0.547768  0.000893  4.24803  -0.002
C  C60  1  0.64447966  0.44388032  0.03376639  1  -0.057919  -0.010421  3.751343  -0.011  -0.032496  -0.004777  3.974831  -0.005  -0.038863  -0.003461  3.995897  -0.004  -0.018325  -0.027896  -0.005768  3.960191  -0.006
C  C61  1  0.35550927  0.55611825  0.96623149  1  -0.05807  0.010423  3.751276  0.011  -0.032642  0.004766  3.974794  0.005  -0.03901  0.003464  3.995861  0.004  -0.018369  -0.028042  0.005769  3.960159  0.006
C  C62  1  0.59752111  0.52886968  0.12133130  1  -0.082149  0.002267  3.742109  0.002  -0.104717  0.000437  3.988777  0.001  -0.105518  0.000466  4.009342  0.001  -0.090226  -0.104091  0.000593  3.974457  0.001
C  C63  1  0.40246697  0.47112995  0.87866748  1  -0.081886  -0.002257  3.742203  -0.002  -0.104471  -0.000432  3.988857  -0.001  -0.105273  -0.000466  4.009427  -0.001  -0.090153  -0.103853  -0.000593  3.974528  -0.001
C  C64  1  0.54612935  0.41559149  0.91194565  1  -0.075884  0.000936  3.742291  0.001  -0.098647  -0.000361  3.992439  0.0  -0.100486  -0.0001  4.014061  0.0  -0.086877  -0.097105  -0.000746  3.977389  -0.001
C  C65  1  0.45385023  0.58440489  0.08805193  1  -0.0757  -0.000946  3.741923  -0.001  -0.098448  0.000368  3.992033  0.0  -0.100284  9.8e-05  4.01367  0.0  -0.086818  -0.096914  0.000746  3.976973  0.001
N  N66  1  0.26830759  0.54381808  0.32131098  1  -0.315352  -0.089364  3.297053  -0.109  -0.274385  -0.062896  3.591329  -0.082  -0.30333  -0.051386  3.611671  -0.071  -0.336685  -0.257653  -0.070049  3.580028  -0.088
N  N67  1  0.73168988  0.45618373  0.67868566  1  -0.315305  0.089377  3.297212  0.109  -0.274291  0.06289  3.591438  0.082  -0.303216  0.051383  3.61176  0.071  -0.33657  -0.257542  0.070047  3.580111  0.088
N  N68  1  0.31236176  0.30501422  0.28440998  1  -0.349373  -0.090531  3.378066  -0.11  -0.314519  -0.065005  3.67668  -0.084  -0.342596  -0.054305  3.693401  -0.074  -0.356901  -0.298928  -0.070763  3.668193  -0.089
N  N69  1  0.68762939  0.69498862  0.71558586  1  -0.349469  0.090527  3.378201  0.11  -0.314618  0.065007  3.676854  0.084  -0.342678  0.054306  3.693555  0.074  -0.356933  -0.299013  0.07077  3.668339  0.089
N  N70  1  0.96060309  0.12467831  0.16691872  1  -0.315429  -0.079404  3.306757  -0.097  -0.273507  -0.057471  3.596818  -0.075  -0.301625  -0.047078  3.617058  -0.065  -0.333158  -0.256864  -0.064231  3.585049  -0.081
N  N71  1  0.03939355  0.87532456  0.83307800  1  -0.315457  0.079399  3.306589  0.097  -0.273572  0.057466  3.596685  0.075  -0.301669  0.047077  3.616902  0.065  -0.33319  -0.256918  0.064231  3.58491  0.081
O  O72  1  0.84853554  0.39084748  0.18202174  1  -0.608606  -0.091248  2.093039  -0.118  -0.586969  -0.050843  2.393307  -0.071  -0.629596  -0.038432  2.386117  -0.057  -0.343842  -0.5576  -0.059607  2.397309  -0.081
O  O73  1  0.15146103  0.60916071  0.81797851  1  -0.608615  0.091236  2.092926  0.118  -0.586994  0.050839  2.393201  0.071  -0.629599  0.038436  2.385991  0.057  -0.343876  -0.557614  0.059606  2.397196  0.081
O  O74  1  0.85989792  0.32383627  0.99347762  1  -0.600727  0.000505  1.927129  0.0  -0.570838  0.000745  2.161974  0.0  -0.593822  0.001212  2.152522  0.001  -0.322749  -0.554489  0.000258  2.168376  -0.001
O  O75  1  0.14009307  0.67616656  0.00652720  1  -0.600697  -0.000504  1.927181  0.0  -0.570805  -0.000746  2.162052  0.0  -0.593785  -0.001211  2.152599  -0.001  -0.322766  -0.554455  -0.000258  2.168453  0.001
O  O76  1  0.00065807  0.32413857  0.41317246  1  -0.662806  0.001619  2.019695  0.001  -0.621622  0.000688  2.279811  0.0  -0.649828  0.000737  2.267207  0.0  -0.346694  -0.600764  0.000816  2.287167  0.0
O  O77  1  0.99934029  0.67585154  0.58682193  1  -0.662816  -0.001623  2.01961  -0.001  -0.621694  -0.000689  2.279871  0.0  -0.649854  -0.000734  2.267209  0.0  -0.34672  -0.600825  -0.000816  2.287216  0.0
O  O78  1  0.82038212  0.10883302  0.41572446  1  -0.612633  0.000822  1.872758  0.001  -0.571832  0.000554  2.082125  0.001  -0.593628  0.000562  2.074141  0.001  -0.338785  -0.554985  0.000322  2.086403  0.0
O  O79  1  0.17962218  0.89116882  0.58427492  1  -0.612672  -0.000815  1.872747  -0.001  -0.571842  -0.000552  2.082121  -0.001  -0.59364  -0.000563  2.074136  -0.001  -0.338796  -0.554999  -0.000321  2.086401  0.0
