# generated using pymatgen
data_CdH14C17N8
_symmetry_space_group_name_H-M   'P 1'
_cell_length_a   9.83763522
_cell_length_b   9.25792511
_cell_length_c   12.42646420
_cell_angle_alpha   96.61257034
_cell_angle_beta   108.71525922
_cell_angle_gamma   115.15674776
_symmetry_Int_Tables_number   1
_chemical_formula_structural   CdH14C17N8
_chemical_formula_sum   'Cd2 H28 C34 N16'
_cell_volume   927.53012125
_cell_formula_units_Z   2
loop_
 _symmetry_equiv_pos_site_id
 _symmetry_equiv_pos_as_xyz
  1  'x, y, z'
loop_
 _atom_site_type_symbol
 _atom_site_label
 _atom_site_symmetry_multiplicity
 _atom_site_fract_x
 _atom_site_fract_y
 _atom_site_fract_z
 _atom_site_occupancy
 _atom_site_hle17_bader_spin_density
 _atom_site_hle17_ddec_charge
 _atom_site_hle17_ddec_spin_density
 _atom_site_hle17_ddec_sum_bond_order
 _atom_site_hle17_magmom
 _atom_site_hse06_10hf_bader_spin_density
 _atom_site_hse06_10hf_ddec_charge
 _atom_site_hse06_10hf_ddec_spin_density
 _atom_site_hse06_10hf_ddec_sum_bond_order
 _atom_site_hse06_10hf_magmom
 _atom_site_hse06_bader_spin_density
 _atom_site_hse06_ddec_charge
 _atom_site_hse06_ddec_spin_density
 _atom_site_hse06_ddec_sum_bond_order
 _atom_site_hse06_magmom
 _atom_site_pbe_bader_spin_density
 _atom_site_pbe_cm5_charge
 _atom_site_pbe_ddec_charge
 _atom_site_pbe_ddec_spin_density
 _atom_site_pbe_ddec_sum_bond_order
 _atom_site_pbe_magmom
Cd  Cd0  1  0.49969061  0.99960248  0.99984134  1  0  1.118378  0  1.909222  0  0  0.926637  0  2.404654  0  0  0.972825  0  2.360754  0  0  0.829234  0.895107  0  2.433732  0
Cd  Cd1  1  0.50062888  0.49937471  0.50047904  1  0  1.116505  0  1.909408  0  0  0.926489  0  2.402237  0  0  0.972825  0  2.358725  0  0  0.829066  0.894092  0  2.431818  0
H  H2  1  0.72119426  0.49003553  0.19901768  1  0  0.061544  0  0.958153  0  0  0.079483  0  1.021201  0  0  0.078803  0  1.023564  0  0  0.087429  0.079783  0  1.019769  0
H  H3  1  0.21587397  0.35847557  0.87403944  1  0  0.063422  0  0.96794  0  0  0.082297  0  1.029835  0  0  0.082678  0  1.030954  0  0  0.087834  0.081951  0  1.029109  0
H  H4  1  0.27933410  0.50919020  0.80174997  1  0  0.062192  0  0.957037  0  0  0.080132  0  1.019925  0  0  0.079458  0  1.022285  0  0  0.087721  0.080433  0  1.018499  0
H  H5  1  0.78283878  0.63806904  0.12452576  1  0  0.063385  0  0.968258  0  0  0.082704  0  1.029482  0  0  0.083041  0  1.030642  0  0  0.08799  0.082365  0  1.028751  0
H  H6  1  0.92160924  0.45063674  0.16770679  1  0  0.088664  0  0.934734  0  0  0.107874  0  0.9935  0  0  0.108102  0  0.994654  0  0  0.098087  0.107648  0  0.992788  0
H  H7  1  0.12765789  0.30697254  0.60743224  1  0  0.085557  0  0.927659  0  0  0.101372  0  0.989559  0  0  0.102426  0  0.989918  0  0  0.093757  0.100585  0  0.989365  0
H  H8  1  0.08121797  0.55047942  0.83533450  1  0  0.088965  0  0.934525  0  0  0.107806  0  0.993546  0  0  0.108008  0  0.994683  0  0  0.098097  0.107588  0  0.992863  0
H  H9  1  0.86711010  0.69465020  0.39081980  1  0  0.084909  0  0.927513  0  0  0.101304  0  0.988052  0  0  0.10237  0  0.988452  0  0  0.093805  0.10054  0  0.987855  0
H  H10  1  0.03744905  0.58704344  0.31227594  1  0  0.082814  0  0.94369  0  0  0.099858  0  1.006422  0  0  0.100557  0  1.007196  0  0  0.093878  0.09933  0  1.005992  0
H  H11  1  0.25434260  0.24764263  0.70607774  1  0  0.087464  0  0.938913  0  0  0.104171  0  1.001128  0  0  0.10479  0  1.001589  0  0  0.095058  0.104001  0  1.000286  0
H  H12  1  0.96376583  0.41646776  0.68992617  1  0  0.083115  0  0.942838  0  0  0.099793  0  1.005577  0  0  0.100432  0  1.006369  0  0  0.093327  0.099313  0  1.005131  0
H  H13  1  0.74333213  0.75382153  0.28935253  1  0  0.084686  0  0.939558  0  0  0.100938  0  1.002349  0  0  0.101573  0  1.002781  0  0  0.093978  0.100816  0  1.001456  0
H  H14  1  0.30475079  0.69802486  0.31029713  1  0  0.110468  0  0.982785  0  0  0.117461  0  1.051381  0  0  0.120357  0  1.050866  0  0  0.100263  0.115337  0  1.052083  0
H  H15  1  0.11735662  0.00179013  0.78595130  1  0  0.11287  0  0.966139  0  0  0.121191  0  1.031805  0  0  0.123856  0  1.031716  0  0  0.103599  0.119189  0  1.032149  0
H  H16  1  0.69557854  0.30010004  0.68921305  1  0  0.110046  0  0.982568  0  0  0.117218  0  1.051081  0  0  0.120064  0  1.050624  0  0  0.100532  0.115112  0  1.051774  0
H  H17  1  0.88401194  0.00021266  0.21267542  1  0  0.111763  0  0.967462  0  0  0.120077  0  1.033279  0  0  0.122661  0  1.033281  0  0  0.102907  0.118144  0  1.033532  0
H  H18  1  0.49888708  0.85649010  0.22335003  1  0  0.074684  0  0.936931  0  0  0.083511  0  1.002142  0  0  0.085674  0  1.00011  0  0  0.113267  0.082236  0  1.003088  0
H  H19  1  0.86785770  0.71984535  0.71806395  1  0  0.076341  0  0.928914  0  0  0.087779  0  0.988323  0  0  0.089743  0  0.986795  0  0  0.115504  0.086251  0  0.989546  0
H  H20  1  0.50068957  0.14041392  0.77527303  1  0  0.074434  0  0.936425  0  0  0.083519  0  1.001414  0  0  0.085581  0  0.999486  0  0  0.113014  0.082272  0  1.002342  0
H  H21  1  0.13526441  0.28117029  0.28187875  1  0  0.076596  0  0.929061  0  0  0.087861  0  0.988743  0  0  0.089858  0  0.987136  0  0  0.11507  0.08631  0  0.990016  0
H  H22  1  0.12857694  0.87208595  0.95620010  1  0  0.071346  0  0.945469  0  0  0.081082  0  1.01007  0  0  0.083214  0  1.00794  0  0  0.112732  0.079532  0  1.011576  0
H  H23  1  0.59508966  0.84496015  0.45501235  1  0  0.075192  0  0.94577  0  0  0.084967  0  1.009806  0  0  0.087048  0  1.007572  0  0  0.114487  0.083499  0  1.011313  0
H  H24  1  0.87169722  0.13016555  0.04549651  1  0  0.071204  0  0.945845  0  0  0.080906  0  1.010642  0  0  0.082988  0  1.008569  0  0  0.112052  0.079351  0  1.01217  0
H  H25  1  0.40293347  0.15247118  0.54540614  1  0  0.075073  0  0.945507  0  0  0.084822  0  1.009488  0  0  0.08701  0  1.007122  0  0  0.114016  0.083289  0  1.011061  0
H  H26  1  0.91832132  0.70796745  0.02609271  1  0  0.10553  0  1.002983  0  0  0.108261  0  1.074359  0  0  0.111735  0  1.073551  0  0  0.100255  0.106166  0  1.074497  0
H  H27  1  0.83524480  0.12943284  0.50796249  1  0  0.101922  0  0.987472  0  0  0.10875  0  1.053577  0  0  0.111523  0  1.053701  0  0  0.101768  0.106755  0  1.053607  0
H  H28  1  0.08267071  0.29561393  0.97641493  1  0  0.105346  0  1.003778  0  0  0.108069  0  1.075168  0  0  0.111547  0  1.074377  0  0  0.099822  0.105973  0  1.075292  0
H  H29  1  0.16098410  0.86877804  0.49099676  1  0  0.101186  0  0.986713  0  0  0.108054  0  1.053039  0  0  0.110815  0  1.053197  0  0  0.101094  0.106091  0  1.053019  0
C  C30  1  0.82509183  0.60846510  0.20776057  1  0  -0.084984  0  3.647855  0  0  -0.122629  0  3.900493  0  0  -0.123281  0  3.914824  0  0  -0.160178  -0.122013  0  3.890786  0
C  C31  1  0.17444058  0.39087833  0.79198278  1  0  -0.084294  0  3.647079  0  0  -0.12138  0  3.899476  0  0  -0.122141  0  3.913765  0  0  -0.159421  -0.120714  0  3.889758  0
C  C32  1  0.97157048  0.58024938  0.22005794  1  0  -0.168101  0  3.682253  0  0  -0.207704  0  3.926291  0  0  -0.209356  0  3.93863  0  0  -0.161508  -0.206521  0  3.917792  0
C  C33  1  0.14302507  0.25977874  0.68534930  1  0  -0.172025  0  3.693976  0  0  -0.215286  0  3.94721  0  0  -0.217075  0  3.959559  0  0  -0.163104  -0.214015  0  3.938528  0
C  C34  1  0.02951599  0.42113398  0.78159387  1  0  -0.169205  0  3.682837  0  0  -0.207897  0  3.926536  0  0  -0.209395  0  3.938734  0  0  -0.161809  -0.206816  0  3.918167  0
C  C35  1  0.85444227  0.74101167  0.31252121  1  0  -0.167675  0  3.693997  0  0  -0.210457  0  3.946452  0  0  -0.212343  0  3.958909  0  0  -0.161395  -0.209247  0  3.9378  0
C  C36  1  0.09384609  0.68988020  0.17670859  1  0  0.165923  0  3.695997  0  0  0.181331  0  3.931866  0  0  0.186927  0  3.954229  0  0  0.015934  0.177688  0  3.916822  0
C  C37  1  0.99630587  0.09087742  0.65289858  1  0  0.170632  0  3.700545  0  0  0.186513  0  3.936005  0  0  0.191994  0  3.957975  0  0  0.016728  0.183067  0  3.921082  0
C  C38  1  0.90684298  0.31106364  0.82444005  1  0  0.166067  0  3.699969  0  0  0.180808  0  3.936304  0  0  0.18638  0  3.958591  0  0  0.015188  0.177183  0  3.921317  0
C  C39  1  0.00226939  0.90935633  0.34576127  1  0  0.171433  0  3.702164  0  0  0.187544  0  3.936688  0  0  0.193069  0  3.958633  0  0  0.017277  0.184075  0  3.921827  0
C  C40  1  0.26072772  0.73524990  0.23187008  1  0  -0.178424  0  3.702998  0  0  -0.19488  0  3.947  0  0  -0.203989  0  3.969784  0  0  -0.089774  -0.189144  0  3.932118  0
C  C41  1  0.00325286  0.97312936  0.71297038  1  0  -0.179873  0  3.692495  0  0  -0.196022  0  3.937252  0  0  -0.204787  0  3.959691  0  0  -0.088889  -0.190404  0  3.922302  0
C  C42  1  0.73961555  0.26383168  0.76816757  1  0  -0.1773  0  3.704324  0  0  -0.193672  0  3.948282  0  0  -0.202726  0  3.971126  0  0  -0.089036  -0.187952  0  3.933373  0
C  C43  1  0.99733746  0.02788208  0.28599320  1  0  -0.178953  0  3.696238  0  0  -0.195267  0  3.940736  0  0  -0.203963  0  3.963203  0  0  -0.088099  -0.189681  0  3.925757  0
C  C44  1  0.36940199  0.82406740  0.18447371  1  0  0.133673  0  3.730147  0  0  0.103432  0  3.979461  0  0  0.110772  0  3.998947  0  0  0.041146  0.098451  0  3.966267  0
C  C45  1  0.86497572  0.81621762  0.67578612  1  0  0.132448  0  3.729018  0  0  0.100896  0  3.981319  0  0  0.108462  0  4.000254  0  0  0.043212  0.096104  0  3.96825  0
C  C46  1  0.63053175  0.17435677  0.81507955  1  0  0.132977  0  3.729432  0  0  0.102444  0  3.978919  0  0  0.109841  0  3.998417  0  0  0.040505  0.097461  0  3.965696  0
C  C47  1  0.13654622  0.18422570  0.32395647  1  0  0.132284  0  3.728092  0  0  0.100864  0  3.980252  0  0  0.108413  0  3.999207  0  0  0.042892  0.096081  0  3.967168  0
C  C48  1  0.16268641  0.83152008  0.03489578  1  0  0.125204  0  3.748913  0  0  0.095727  0  3.997945  0  0  0.103279  0  4.016643  0  0  0.038548  0.091024  0  3.985021  0
C  C49  1  0.71299792  0.88562296  0.52836521  1  0  0.131873  0  3.739904  0  0  0.103017  0  3.987001  0  0  0.110635  0  4.005735  0  0  0.043803  0.098146  0  3.974026  0
C  C50  1  0.83766153  0.16989436  0.96633479  1  0  0.125031  0  3.748896  0  0  0.095572  0  3.997756  0  0  0.103129  0  4.016478  0  0  0.038787  0.090887  0  3.984785  0
C  C51  1  0.28572802  0.11280821  0.47163007  1  0  0.131383  0  3.740012  0  0  0.102719  0  3.986991  0  0  0.11026  0  4.005715  0  0  0.044428  0.097899  0  3.974031  0
C  C52  1  0.04606361  0.74062497  0.07553589  1  0  -0.177808  0  3.70851  0  0  -0.192352  0  3.953549  0  0  -0.201189  0  3.975313  0  0  -0.091413  -0.186777  0  3.938734  0
C  C53  1  0.84631401  0.04372346  0.55888444  1  0  -0.175723  0  3.710944  0  0  -0.190144  0  3.953641  0  0  -0.198959  0  3.976136  0  0  -0.088776  -0.18444  0  3.938598  0
C  C54  1  0.95466555  0.26154043  0.92623028  1  0  -0.177894  0  3.713169  0  0  -0.192258  0  3.958322  0  0  -0.201069  0  3.980057  0  0  -0.09104  -0.186697  0  3.94351  0
C  C55  1  0.15138260  0.95515537  0.44029998  1  0  -0.176069  0  3.708355  0  0  -0.191143  0  3.951602  0  0  -0.199936  0  3.974079  0  0  -0.08949  -0.185468  0  3.936524  0
C  C56  1  0.75993893  0.24000985  0.28807132  1  0  0.507618  0  3.984687  0  0  0.470318  0  4.266769  0  0  0.496467  0  4.277676  0  0  0.311733  0.452608  0  4.258954  0
C  C57  1  0.58193916  0.55128223  0.78841511  1  0  0.51179  0  3.981791  0  0  0.472485  0  4.264878  0  0  0.498925  0  4.275698  0  0  0.310871  0.45431  0  4.257486  0
C  C58  1  0.24032033  0.75957958  0.71173065  1  0  0.507397  0  3.986196  0  0  0.470307  0  4.268107  0  0  0.4964  0  4.279034  0  0  0.311835  0.452626  0  4.260267  0
C  C59  1  0.41910307  0.44844805  0.21203199  1  0  0.51132  0  3.98202  0  0  0.471907  0  4.265598  0  0  0.498324  0  4.276444  0  0  0.310897  0.453756  0  4.258172  0
C  C60  1  0.74767549  0.36317160  0.45316688  1  0  0.506945  0  3.992104  0  0  0.466985  0  4.27901  0  0  0.493668  0  4.288668  0  0  0.30628  0.448744  0  4.272269  0
C  C61  1  0.61145805  0.71854395  0.95678184  1  0  0.502335  0  3.995531  0  0  0.46177  0  4.283136  0  0  0.487993  0  4.293538  0  0  0.306637  0.444082  0  4.275667  0
C  C62  1  0.25351554  0.63651836  0.54701848  1  0  0.505519  0  3.990126  0  0  0.465733  0  4.277093  0  0  0.492315  0  4.286758  0  0  0.305815  0.447537  0  4.270361  0
C  C63  1  0.38878988  0.28154242  0.04318249  1  0  0.502821  0  3.994931  0  0  0.462291  0  4.282432  0  0  0.488519  0  4.292821  0  0  0.307229  0.4446  0  4.27498  0
N  N64  1  0.32203882  0.87262096  0.08763512  1  0  -0.350726  0  3.298782  0  0  -0.271096  0  3.560271  0  0  -0.292285  0  3.581141  0  0  -0.338396  -0.25684  0  3.545788  0
N  N65  1  0.72176525  0.77243065  0.58485473  1  0  -0.350303  0  3.288367  0  0  -0.271378  0  3.549876  0  0  -0.292268  0  3.570484  0  0  -0.335423  -0.257038  0  3.535285  0
N  N66  1  0.67789855  0.12695396  0.91250975  1  0  -0.349937  0  3.295107  0  0  -0.270072  0  3.556354  0  0  -0.291236  0  3.577179  0  0  -0.337761  -0.25584  0  3.541861  0
N  N67  1  0.27882189  0.22676456  0.41541527  1  0  -0.349313  0  3.288245  0  0  -0.270239  0  3.54928  0  0  -0.291153  0  3.56999  0  0  -0.334146  -0.255879  0  3.534617  0
N  N68  1  0.71562863  0.16523535  0.18879726  1  0  -0.617225  0  2.80571  0  0  -0.572498  0  3.090816  0  0  -0.594343  0  3.095053  0  0  -0.386022  -0.557625  0  3.087811  0
N  N69  1  0.52352898  0.46772569  0.68923096  1  0  -0.613641  0  2.798741  0  0  -0.569274  0  3.085561  0  0  -0.591523  0  3.090679  0  0  -0.387303  -0.554101  0  3.082161  0
N  N70  1  0.28395031  0.83391308  0.81097796  1  0  -0.617402  0  2.807172  0  0  -0.572791  0  3.092567  0  0  -0.594639  0  3.096803  0  0  -0.386459  -0.557899  0  3.089518  0
N  N71  1  0.47731764  0.53072085  0.31154715  1  0  -0.612954  0  2.800532  0  0  -0.568671  0  3.087782  0  0  -0.590872  0  3.092902  0  0  -0.386882  -0.553534  0  3.084373  0
N  N72  1  0.68923256  0.40084276  0.51325288  1  0  -0.616755  0  2.800307  0  0  -0.571974  0  3.083359  0  0  -0.593292  0  3.086372  0  0  -0.388469  -0.557417  0  3.081313  0
N  N73  1  0.58405070  0.79648093  0.02081592  1  0  -0.606406  0  2.75664  0  0  -0.564641  0  3.036858  0  0  -0.585458  0  3.040564  0  0  -0.392057  -0.550266  0  3.033756  0
N  N74  1  0.31214957  0.59838128  0.48732095  1  0  -0.615716  0  2.79775  0  0  -0.571031  0  3.080818  0  0  -0.592337  0  3.083944  0  0  -0.388611  -0.556482  0  3.078711  0
N  N75  1  0.41529512  0.20264915  0.97906913  1  0  -0.607255  0  2.75695  0  0  -0.565438  0  3.037102  0  0  -0.586223  0  3.040678  0  0  -0.392947  -0.551086  0  3.034089  0
N  N76  1  0.82535568  0.32619520  0.39822121  1  0  -0.455849  0  3.288554  0  0  -0.401122  0  3.548819  0  0  -0.424873  0  3.552738  0  0  -0.30654  -0.384615  0  3.545512  0
N  N77  1  0.65854720  0.63848125  0.89872775  1  0  -0.456544  0  3.323829  0  0  -0.397476  0  3.578966  0  0  -0.421111  0  3.582009  0  0  -0.304088  -0.381265  0  3.576091  0
N  N78  1  0.17559847  0.67400039  0.60149640  1  0  -0.454764  0  3.288575  0  0  -0.400155  0  3.548724  0  0  -0.42374  0  3.55252  0  0  -0.305549  -0.383735  0  3.545492  0
N  N79  1  0.34288195  0.36296385  0.10131614  1  0  -0.457155  0  3.320833  0  0  -0.398103  0  3.576275  0  0  -0.421776  0  3.579411  0  0  -0.3048  -0.381877  0  3.573335  0
