# generated using pymatgen
data_Cd3H20C24(N2O5)3
_symmetry_space_group_name_H-M   'P 1'
_cell_length_a   8.40194701
_cell_length_b   10.99165050
_cell_length_c   18.58300000
_cell_angle_alpha   78.72993405
_cell_angle_beta   80.94338740
_cell_angle_gamma   70.01608723
_symmetry_Int_Tables_number   1
_chemical_formula_structural   Cd3H20C24(N2O5)3
_chemical_formula_sum   'Cd6 H40 C48 N12 O30'
_cell_volume   1574.06664382
_cell_formula_units_Z   2
loop_
 _symmetry_equiv_pos_site_id
 _symmetry_equiv_pos_as_xyz
  1  'x, y, z'
loop_
 _atom_site_type_symbol
 _atom_site_label
 _atom_site_symmetry_multiplicity
 _atom_site_fract_x
 _atom_site_fract_y
 _atom_site_fract_z
 _atom_site_occupancy
 _atom_site_hle17_bader_spin_density
 _atom_site_hle17_ddec_charge
 _atom_site_hle17_ddec_spin_density
 _atom_site_hle17_ddec_sum_bond_order
 _atom_site_hle17_magmom
 _atom_site_hse06_10hf_bader_spin_density
 _atom_site_hse06_10hf_ddec_charge
 _atom_site_hse06_10hf_ddec_spin_density
 _atom_site_hse06_10hf_ddec_sum_bond_order
 _atom_site_hse06_10hf_magmom
 _atom_site_hse06_bader_spin_density
 _atom_site_hse06_ddec_charge
 _atom_site_hse06_ddec_spin_density
 _atom_site_hse06_ddec_sum_bond_order
 _atom_site_hse06_magmom
 _atom_site_pbe_bader_charge
 _atom_site_pbe_bader_spin_density
 _atom_site_pbe_cm5_charge
 _atom_site_pbe_ddec_charge
 _atom_site_pbe_ddec_spin_density
 _atom_site_pbe_ddec_sum_bond_order
 _atom_site_pbe_magmom
Cd  Cd0  1  0.55329524  0.73479197  0.42297647  1  0  1.151786  0  1.630388  0  0  0.958003  0  2.077695  0  0  1.019947  0  2.019796  0  1.268163  0  0.774715  0.913978  0  2.117326  0
Cd  Cd1  1  0.44670742  0.26520397  0.57702311  1  0  1.151808  0  1.630343  0  0  0.958006  0  2.077652  0  0  1.019954  0  2.01975  0  1.268184  0  0.774729  0.913981  0  2.117284  0
Cd  Cd2  1  0.00994178  0.68377727  0.26545833  1  0  1.239806  0  1.630092  0  0  1.058455  0  2.080376  0  0  1.108806  0  2.026127  0  1.348482  0  0.817756  1.022006  0  2.118255  0
Cd  Cd3  1  0.99005643  0.31622357  0.73454261  1  0  1.239837  0  1.63006  0  0  1.058493  0  2.080325  0  0  1.108844  0  2.026077  0  1.348464  0  0.817777  1.022045  0  2.118203  0
Cd  Cd4  1  0.74399030  0.78640126  0.08713735  1  0  1.196698  0  1.544971  0  0  1.015952  0  1.974261  0  0  1.0801  0  1.913686  0  1.292999  0  0.775246  0.96995  0  2.015954  0
Cd  Cd5  1  0.25600511  0.21359762  0.91286294  1  0  1.196657  0  1.544909  0  0  1.015926  0  1.974196  0  0  1.080075  0  1.91362  0  1.293015  0  0.775234  0.969918  0  2.015891  0
H  H6  1  0.71408503  0.89106172  0.22654627  1  0  0.444029  0  0.857397  0  0  0.406187  0  0.932217  0  0  0.418309  0  0.914763  0  0.657924  0  0.293942  0.39749  0  0.944795  0
H  H7  1  0.28591438  0.10893912  0.77345297  1  0  0.444071  0  0.857336  0  0  0.406236  0  0.932147  0  0  0.418357  0  0.914694  0  0.657922  0  0.293955  0.397539  0  0.944725  0
H  H8  1  0.85396400  0.94987067  0.17756832  1  0  0.440657  0  0.799923  0  0  0.42584  0  0.845712  0  0  0.433748  0  0.837617  0  0.618738  0  0.332983  0.419507  0  0.852741  0
H  H9  1  0.14603824  0.05012920  0.82243299  1  0  0.440678  0  0.799923  0  0  0.425865  0  0.845701  0  0  0.433772  0  0.837607  0  0.618762  0  0.332989  0.419532  0  0.852728  0
H  H10  1  0.10996895  0.51575787  0.40092235  1  0  0.434115  0  0.806081  0  0  0.420118  0  0.851811  0  0  0.428045  0  0.843693  0  0.594825  0  0.328482  0.414335  0  0.857875  0
H  H11  1  0.89002966  0.48424199  0.59907814  1  0  0.434043  0  0.806065  0  0  0.420048  0  0.851797  0  0  0.427976  0  0.843679  0  0.594827  0  0.328439  0.414267  0  0.857861  0
H  H12  1  0.94807037  0.49200586  0.37758592  1  0  0.439778  0  0.862817  0  0  0.40461  0  0.932803  0  0  0.416491  0  0.915503  0  0.659574  0  0.288832  0.396204  0  0.944985  0
H  H13  1  0.05193027  0.50799204  0.62241411  1  0  0.439746  0  0.86287  0  0  0.404576  0  0.932865  0  0  0.416453  0  0.915569  0  0.659578  0  0.288817  0.396169  0  0.945051  0
H  H14  1  0.34565638  0.67457542  0.30125591  1  0  0.437281  0  0.862237  0  0  0.403729  0  0.92859  0  0  0.41539  0  0.911752  0  0.646056  0  0.286299  0.395448  0  0.940524  0
H  H15  1  0.65434103  0.32542444  0.69874520  1  0  0.437254  0  0.862271  0  0  0.403696  0  0.928638  0  0  0.415358  0  0.911798  0  0.645897  0  0.286275  0.395414  0  0.940574  0
H  H16  1  0.30396169  0.77893811  0.22617911  1  0  0.439836  0  0.86505  0  0  0.404555  0  0.934613  0  0  0.416475  0  0.917598  0  0.669769  0  0.281869  0.39612  0  0.946606  0
H  H17  1  0.69603531  0.22106274  0.77382192  1  0  0.439973  0  0.864868  0  0  0.404626  0  0.934532  0  0  0.416548  0  0.917514  0  0.669769  0  0.28189  0.396191  0  0.946526  0
H  H18  1  0.68235008  0.91756233  0.50891694  1  0  0.142221  0  0.940375  0  0  0.148909  0  1.002355  0  0  0.152133  0  0.998296  0  0.260048  0  0.151143  0.14646  0  1.005406  0
H  H19  1  0.31765015  0.08243655  0.49108301  1  0  0.142241  0  0.940359  0  0  0.148936  0  1.002336  0  0  0.152161  0  0.998277  0  0.26005  0  0.151154  0.146487  0  1.005387  0
H  H20  1  0.09494664  0.90649054  0.34319913  1  0  0.12783  0  0.955936  0  0  0.131105  0  1.024844  0  0  0.134222  0  1.021251  0  0.245453  0  0.144051  0.128705  0  1.027638  0
H  H21  1  0.90505520  0.09350737  0.65680297  1  0  0.127907  0  0.955891  0  0  0.131155  0  1.024827  0  0  0.134272  0  1.021233  0  0.245203  0  0.144056  0.128755  0  1.027622  0
H  H22  1  0.82646505  0.10697513  0.48932189  1  0  0.105354  0  0.924968  0  0  0.118743  0  0.985597  0  0  0.119715  0  0.98533  0  0.100571  0  0.124432  0.117906  0  0.985998  0
H  H23  1  0.17353477  0.89302473  0.51067960  1  0  0.105351  0  0.925004  0  0  0.118737  0  0.985626  0  0  0.119709  0  0.985359  0  0.100578  0  0.124434  0.1179  0  0.986028  0
H  H24  1  0.01431190  0.08896522  0.42575106  1  0  0.094514  0  0.922384  0  0  0.107305  0  0.987634  0  0  0.108133  0  0.987212  0  0.095218  0  0.122437  0.106657  0  0.987983  0
H  H25  1  0.98568831  0.91103661  0.57424963  1  0  0.094516  0  0.922392  0  0  0.107296  0  0.987648  0  0  0.108123  0  0.987227  0  0.095207  0  0.122428  0.106649  0  0.987998  0
H  H26  1  0.39972457  0.52815401  0.16205803  1  0  0.119622  0  0.931096  0  0  0.12751  0  0.994907  0  0  0.129717  0  0.992612  0  0.203872  0  0.149297  0.125715  0  0.996815  0
H  H27  1  0.60027041  0.47184879  0.83794346  1  0  0.119624  0  0.931099  0  0  0.127493  0  0.99493  0  0  0.129695  0  0.992642  0  0.203828  0  0.149306  0.125697  0  0.996835  0
H  H28  1  0.09592211  0.59421551  0.98776838  1  0  0.12643  0  0.916229  0  0  0.135116  0  0.977911  0  0  0.137653  0  0.97481  0  0.182417  0  0.151627  0.133164  0  0.980259  0
H  H29  1  0.90407931  0.40578631  0.01223330  1  0  0.126425  0  0.916195  0  0  0.135102  0  0.9779  0  0  0.137639  0  0.974799  0  0.182362  0  0.151608  0.133148  0  0.98025  0
H  H30  1  0.51145200  0.37045119  0.05311395  1  0  0.097693  0  0.896996  0  0  0.116208  0  0.950505  0  0  0.116457  0  0.950968  0  0.088507  0  0.124767  0.115922  0  0.950315  0
H  H31  1  0.48854941  0.62955064  0.94688773  1  0  0.09772  0  0.896995  0  0  0.116212  0  0.950523  0  0  0.116464  0  0.950981  0  0.0884  0  0.124787  0.115928  0  0.950333  0
H  H32  1  0.39433285  0.42661830  0.97520573  1  0  0.119611  0  0.934646  0  0  0.130289  0  1.000026  0  0  0.13256  0  0.997931  0  0.139977  0  0.12445  0.128505  0  1.001698  0
H  H33  1  0.60566656  0.57338255  0.02479513  1  0  0.119606  0  0.934666  0  0  0.130267  0  1.000065  0  0  0.132538  0  0.997971  0  0.139946  0  0.124434  0.128485  0  1.001735  0
H  H34  1  0.26625251  0.64217599  0.86520115  1  0  0.085509  0  0.960398  0  0  0.095383  0  1.025722  0  0  0.098802  0  1.02315  0  0.070459  0  0.09886  0.092911  0  1.027596  0
H  H35  1  0.73374854  0.35782093  0.13479574  1  0  0.085512  0  0.960374  0  0  0.095368  0  1.025716  0  0  0.098797  0  1.02313  0  0.070399  0  0.098905  0.092895  0  1.02759  0
H  H36  1  0.34103977  0.84605555  0.81254647  1  0  0.09434  0  0.951602  0  0  0.104247  0  1.01145  0  0  0.108191  0  1.008996  0  0.05636  0  0.101065  0.101067  0  1.014167  0
H  H37  1  0.65895480  0.15394823  0.18745332  1  0  0.0943  0  0.95167  0  0  0.104208  0  1.011509  0  0  0.108153  0  1.009056  0  0.056557  0  0.101049  0.101028  0  1.014228  0
H  H38  1  0.41454373  0.89120180  0.67559262  1  0  0.10151  0  0.96297  0  0  0.108049  0  1.030512  0  0  0.111491  0  1.028183  0  0.10612  0  0.101366  0.105578  0  1.032163  0
H  H39  1  0.58544923  0.10880296  0.32440448  1  0  0.101467  0  0.963087  0  0  0.108011  0  1.030618  0  0  0.111452  0  1.028289  0  0.106196  0  0.101363  0.105542  0  1.032264  0
H  H40  1  0.78570863  0.82696618  0.64501693  1  0  0.090663  0  0.953873  0  0  0.101537  0  1.015979  0  0  0.105144  0  1.013053  0  0.060193  0  0.099927  0.098861  0  1.018279  0
H  H41  1  0.21429720  0.17303662  0.35497948  1  0  0.090676  0  0.953802  0  0  0.101549  0  1.015911  0  0  0.105156  0  1.012984  0  0.060232  0  0.099936  0.098874  0  1.01821  0
H  H42  1  0.95284840  0.62392511  0.72054830  1  0  0.100107  0  0.991235  0  0  0.109453  0  1.054056  0  0  0.112554  0  1.052662  0  0.083501  0  0.097483  0.107201  0  1.055214  0
H  H43  1  0.04716066  0.37607573  0.27944918  1  0  0.100143  0  0.991154  0  0  0.109553  0  1.053904  0  0  0.112659  0  1.0525  0  0.083502  0  0.097489  0.107301  0  1.055061  0
H  H44  1  0.94818662  0.61771381  0.85573036  1  0  0.093405  0  0.956776  0  0  0.100648  0  1.02511  0  0  0.103786  0  1.023462  0  0.095722  0  0.098266  0.098421  0  1.026309  0
H  H45  1  0.05181923  0.38228605  0.14426854  1  0  0.093441  0  0.956764  0  0  0.100687  0  1.025103  0  0  0.103825  0  1.023454  0  0.095717  0  0.098282  0.098457  0  1.026304  0
C  C46  1  0.77502786  0.89217253  0.46194926  1  0  0.19084  0  3.594728  0  0  0.123237  0  3.863039  0  0  0.138531  0  3.873333  0  0.994448  0  0.173026  0.113128  0  3.856195  0
C  C47  1  0.22497116  0.10782635  0.53805132  1  0  0.190813  0  3.594708  0  0  0.123182  0  3.863037  0  0  0.138476  0  3.873332  0  0.994393  0  0.172974  0.113073  0  3.856193  0
C  C48  1  0.98334869  0.88852666  0.37518375  1  0  0.176607  0  3.606287  0  0  0.11565  0  3.866685  0  0  0.129201  0  3.878378  0  0.956013  0  0.168146  0.106765  0  3.858735  0
C  C49  1  0.01665113  0.11147320  0.62481773  1  0  0.176586  0  3.606242  0  0  0.115659  0  3.866626  0  0  0.12921  0  3.878318  0  0.956267  0  0.168174  0.106775  0  3.858676  0
C  C50  1  0.94492156  0.03720508  0.46860730  1  0  -0.014579  0  3.601424  0  0  -0.080432  0  3.861739  0  0  -0.076622  0  3.872438  0  0.313908  0  -0.039344  -0.082866  0  3.854576  0
C  C51  1  0.05507868  0.96279380  0.53139427  1  0  -0.014569  0  3.601564  0  0  -0.080395  0  3.861838  0  0  -0.076584  0  3.872538  0  0.336188  0  -0.039336  -0.082836  0  3.85468  0
C  C52  1  0.29150499  0.56185918  0.12978459  1  0  0.189389  0  3.594431  0  0  0.126722  0  3.856262  0  0  0.140553  0  3.868312  0  0.988098  0  0.179177  0.117669  0  3.848198  0
C  C53  1  0.70849483  0.43814068  0.87021635  1  0  0.189459  0  3.594416  0  0  0.126802  0  3.856257  0  0  0.140638  0  3.868307  0  0.988171  0  0.179242  0.117753  0  3.84819  0
C  C54  1  0.13709086  0.59810822  0.03946025  1  0  0.182696  0  3.601577  0  0  0.115898  0  3.874062  0  0  0.129751  0  3.885793  0  1.017361  0  0.175032  0.106649  0  3.866442  0
C  C55  1  0.86290976  0.40189262  0.96054106  1  0  0.182722  0  3.601504  0  0  0.115929  0  3.873998  0  0  0.129781  0  3.88573  0  1.01735  0  0.17505  0.106679  0  3.86638  0
C  C56  1  0.44277034  0.45857987  0.01712043  1  0  -0.025144  0  3.601352  0  0  -0.093905  0  3.869407  0  0  -0.090004  0  3.878929  0  0.27331  0  -0.042999  -0.096404  0  3.863059  0
C  C57  1  0.55723028  0.54142097  0.98288034  1  0  -0.025184  0  3.601407  0  0  -0.093916  0  3.869455  0  0  -0.090016  0  3.878977  0  0.300176  0  -0.042998  -0.096417  0  3.863104  0
C  C58  1  0.39014582  0.71401582  0.65527609  1  0  -0.074568  0  3.729839  0  0  -0.05839  0  3.962088  0  0  -0.066484  0  3.983692  0  0.00911  0  -0.016334  -0.053306  0  3.947497  0
C  C59  1  0.60985682  0.28598306  0.34472477  1  0  -0.074649  0  3.729893  0  0  -0.058438  0  3.962117  0  0  -0.066532  0  3.98372  0  0.00913  0  -0.016284  -0.053355  0  3.947527  0
C  C60  1  0.34882781  0.59923078  0.68486709  1  0  -0.044323  0  3.64815  0  0  -0.039495  0  3.880903  0  0  -0.039328  0  3.897787  0  -0.020599  0  0.005078  -0.039313  0  3.869529  0
C  C61  1  0.65116597  0.40077202  0.31513179  1  0  -0.044339  0  3.648213  0  0  -0.039525  0  3.88097  0  0  -0.03936  0  3.897852  0  -0.020684  0  0.005035  -0.039339  0  3.869596  0
C  C62  1  0.30414171  0.57479603  0.76129711  1  0  -0.092716  0  3.736726  0  0  -0.07508  0  3.970932  0  0  -0.083461  0  3.992563  0  -0.014116  0  -0.016732  -0.069832  0  3.956707  0
C  C63  1  0.69584766  0.42520579  0.23870220  1  0  -0.092635  0  3.736546  0  0  -0.075015  0  3.970797  0  0  -0.083394  0  3.992426  0  -0.0142  0  -0.016719  -0.069768  0  3.956574  0
C  C64  1  0.30083865  0.66447044  0.80626591  1  0  -0.070267  0  3.772686  0  0  -0.096433  0  4.026698  0  0  -0.094845  0  4.045925  0  -0.075857  0  -0.086606  -0.097273  0  4.013686  0
C  C65  1  0.69916158  0.33552845  0.19373189  1  0  -0.07034  0  3.772648  0  0  -0.096487  0  4.026655  0  0  -0.094907  0  4.04588  0  -0.075548  0  -0.086687  -0.097327  0  4.013644  0
C  C66  1  0.33891620  0.77902920  0.77666854  1  0  -0.082679  0  3.779557  0  0  -0.095238  0  4.035016  0  0  -0.099041  0  4.055156  0  -0.047074  0  -0.095848  -0.092796  0  4.021852  0
C  C67  1  0.66108362  0.22097066  0.22333078  1  0  -0.082611  0  3.77967  0  0  -0.095162  0  4.035105  0  0  -0.098969  0  4.055252  0  -0.047383  0  -0.095827  -0.09272  0  4.02194  0
C  C68  1  0.38199257  0.80368533  0.70102007  1  0  -0.053251  0  3.729156  0  0  -0.081157  0  3.983587  0  0  -0.079136  0  4.003  0  -0.02393  0  -0.083734  -0.081958  0  3.9701  0
C  C69  1  0.61801128  0.19631355  0.29897962  1  0  -0.053191  0  3.729268  0  0  -0.081106  0  3.983693  0  0  -0.079084  0  4.003107  0  -0.024022  0  -0.083726  -0.081906  0  3.970205  0
C  C70  1  0.45150103  0.74072214  0.57542168  1  0  0.610916  0  3.981423  0  0  0.564285  0  4.27158  0  0  0.598397  0  4.266452  0  1.551418  0  0.186053  0.541195  0  4.274144  0
C  C71  1  0.54849438  0.25927675  0.42457807  1  0  0.611081  0  3.981342  0  0  0.564403  0  4.271539  0  0  0.598515  0  4.266411  0  1.55174  0  0.186092  0.541314  0  4.274104  0
C  C72  1  0.36395867  0.49683992  0.63814581  1  0  0.709487  0  3.865716  0  0  0.646469  0  4.173713  0  0  0.683165  0  4.162751  0  1.612707  0  0.214332  0.621254  0  4.180628  0
C  C73  1  0.63603915  0.50315896  0.36185216  1  0  0.709495  0  3.865787  0  0  0.646506  0  4.17373  0  0  0.683203  0  4.162765  0  1.612841  0  0.214321  0.621282  0  4.180662  0
C  C74  1  0.26105821  0.45281133  0.79638404  1  0  0.670036  0  3.908845  0  0  0.615982  0  4.207854  0  0  0.651808  0  4.199452  0  1.592848  0  0.207065  0.591597  0  4.21269  0
C  C75  1  0.73893840  0.54718755  0.20361617  1  0  0.669997  0  3.908887  0  0  0.615912  0  4.207955  0  0  0.651739  0  4.199554  0  1.592779  0  0.207051  0.591527  0  4.212789  0
C  C76  1  0.78662060  0.81688470  0.85473389  1  0  -0.061838  0  3.731089  0  0  -0.04511  0  3.962977  0  0  -0.051298  0  3.982841  0  0.001644  0  -0.014188  -0.041179  0  3.949705  0
C  C77  1  0.21338364  0.18311614  0.14526340  1  0  -0.061724  0  3.730912  0  0  -0.044948  0  3.962769  0  0  -0.051133  0  3.98263  0  0.00181  0  -0.014154  -0.04102  0  3.949502  0
C  C78  1  0.69126126  0.93229077  0.81251570  1  0  -0.053601  0  3.661487  0  0  -0.047732  0  3.893956  0  0  -0.048445  0  3.911357  0  -0.036217  0  -0.000678  -0.047319  0  3.882396  0
C  C79  1  0.30873616  0.06770909  0.18748380  1  0  -0.053547  0  3.661429  0  0  -0.047773  0  3.894017  0  0  -0.048489  0  3.911422  0  -0.036164  0  -0.000671  -0.047361  0  3.882455  0
C  C80  1  0.69400932  0.93534402  0.73617155  1  0  -0.09948  0  3.761045  0  0  -0.081949  0  3.997336  0  0  -0.089878  0  4.019503  0  -0.033802  0  -0.021185  -0.076826  0  3.982483  0
C  C81  1  0.30598927  0.06465879  0.26382752  1  0  -0.099637  0  3.761194  0  0  -0.082069  0  3.997483  0  0  -0.089999  0  4.019652  0  -0.033765  0  -0.021241  -0.076946  0  3.98263  0
C  C82  1  0.79050800  0.82438018  0.70357355  1  0  -0.068757  0  3.757635  0  0  -0.094821  0  4.010526  0  0  -0.093765  0  4.029461  0  -0.029605  0  -0.089109  -0.095277  0  3.997691  0
C  C83  1  0.20949462  0.17562164  0.29642374  1  0  -0.068717  0  3.757664  0  0  -0.094781  0  4.010563  0  0  -0.093724  0  4.029501  0  -0.029778  0  -0.089094  -0.095238  0  3.997727  0
C  C84  1  0.88202361  0.71020833  0.74590271  1  0  -0.08014  0  3.792156  0  0  -0.095436  0  4.048078  0  0  -0.098805  0  4.069769  0  -0.01528  0  -0.101495  -0.093321  0  4.033494  0
C  C85  1  0.11797863  0.28979153  0.25409537  1  0  -0.080136  0  3.792087  0  0  -0.095487  0  4.048014  0  0  -0.098862  0  4.069708  0  -0.015087  0  -0.101469  -0.093374  0  4.033436  0
C  C86  1  0.87894237  0.70671723  0.82130251  1  0  -0.071934  0  3.755027  0  0  -0.099577  0  4.012923  0  0  -0.098866  0  4.032852  0  -0.05424  0  -0.090636  -0.099843  0  3.999431  0
C  C87  1  0.12106107  0.29328263  0.17869548  1  0  -0.072086  0  3.754981  0  0  -0.099732  0  4.012879  0  0  -0.099021  0  4.032809  0  -0.054544  0  -0.090695  -0.099998  0  3.999388  0
C  C88  1  0.78795069  0.80710100  0.93620016  1  0  0.625441  0  3.967028  0  0  0.578447  0  4.258388  0  0  0.61218  0  4.253298  0  1.562144  0  0.183333  0.555587  0  4.260821  0
C  C89  1  0.21204754  0.19289690  0.06380167  1  0  0.625382  0  3.967181  0  0  0.578411  0  4.258514  0  0  0.612145  0  4.253425  0  1.562199  0  0.183318  0.555552  0  4.260951  0
C  C90  1  0.57558716  0.04572810  0.85013588  1  0  0.672723  0  3.917289  0  0  0.613979  0  4.226494  0  0  0.649534  0  4.217712  0  1.608195  0  0.202993  0.589643  0  4.231785  0
C  C91  1  0.42441667  0.95427372  0.14986401  1  0  0.672746  0  3.917177  0  0  0.614009  0  4.226433  0  0  0.649562  0  4.217652  0  1.608422  0  0.202975  0.589679  0  4.231715  0
C  C92  1  0.58986540  0.05165924  0.68778725  1  0  0.652399  0  3.909157  0  0  0.599884  0  4.204362  0  0  0.634612  0  4.19748  0  1.554508  0  0.201926  0.576276  0  4.208385  0
C  C93  1  0.41013522  0.94834160  0.31221352  1  0  0.652462  0  3.909139  0  0  0.599966  0  4.204305  0  0  0.634696  0  4.197425  0  1.554147  0  0.201976  0.576358  0  4.208326  0
N  N94  1  0.77914159  0.80757216  0.41958865  1  0  -0.271975  0  3.194416  0  0  -0.212144  0  3.490922  0  0  -0.230142  0  3.506921  0  -0.768955  0  -0.245607  -0.200121  0  3.480021  0
N  N95  1  0.22085864  0.19242672  0.58041292  1  0  -0.271953  0  3.194336  0  0  -0.212103  0  3.490834  0  0  -0.230101  0  3.506833  0  -0.768926  0  -0.245565  -0.20008  0  3.479933  0
N  N96  1  0.91004194  0.80569242  0.36445575  1  0  -0.275959  0  3.167932  0  0  -0.220165  0  3.455056  0  0  -0.235826  0  3.472274  0  -0.743744  0  -0.238821  -0.209378  0  3.443088  0
N  N97  1  0.08995788  0.19430744  0.63554519  1  0  -0.276001  0  3.167968  0  0  -0.220219  0  3.455084  0  0  -0.235879  0  3.472301  0  -0.743783  0  -0.238871  -0.209433  0  3.443115  0
N  N98  1  0.90138811  0.94490242  0.43557304  1  0  -0.071226  0  3.531102  0  0  0.02359  0  3.755495  0  0  0.006638  0  3.778681  0  -1.269428  0  -0.226937  0.034708  0  3.739718  0
N  N99  1  0.09861212  0.05509647  0.56442799  1  0  -0.071255  0  3.531179  0  0  0.023566  0  3.755557  0  0  0.006614  0  3.778744  0  -1.269385  0  -0.226934  0.034686  0  3.739781  0
N  N100  1  0.13622407  0.63578054  0.14982193  1  0  -0.267094  0  3.176398  0  0  -0.206473  0  3.459588  0  0  -0.223231  0  3.477835  0  -0.742898  0  -0.236371  -0.195043  0  3.447013  0
N  N101  1  0.86377373  0.36422128  0.85017840  1  0  -0.267161  0  3.176381  0  0  -0.20654  0  3.459576  0  0  -0.223298  0  3.477819  0  -0.742883  0  -0.236438  -0.195111  0  3.447003  0
N  N102  1  0.03899906  0.65967654  0.09263650  1  0  -0.250938  0  3.147483  0  0  -0.19747  0  3.43239  0  0  -0.214221  0  3.451093  0  -0.743307  0  -0.227386  -0.186181  0  3.419733  0
N  N103  1  0.96099915  0.34032430  0.90736391  1  0  -0.250955  0  3.147353  0  0  -0.19748  0  3.432244  0  0  -0.214232  0  3.450947  0  -0.74327  0  -0.227386  -0.186192  0  3.41959  0
N  N104  1  0.29671235  0.53549864  0.06066976  1  0  -0.068457  0  3.526378  0  0  0.025554  0  3.754191  0  0  0.009195  0  3.777071  0  -1.231525  0  -0.223338  0.036242  0  3.738729  0
N  N105  1  0.70328827  0.46450220  0.93933101  1  0  -0.068468  0  3.526401  0  0  0.02554  0  3.754209  0  0  0.00918  0  3.777087  0  -1.231528  0  -0.223352  0.036228  0  3.738745  0
O  O106  1  0.46960515  0.85084454  0.54896944  1  0  -0.646251  0  1.962177  0  0  -0.597957  0  2.200566  0  0  -0.623947  0  2.192492  0  -1.191331  0  -0.330486  -0.579563  0  2.205367  0
O  O107  1  0.53039187  0.14915336  0.45102924  1  0  -0.646299  0  1.962235  0  0  -0.598012  0  2.200665  0  0  -0.624003  0  2.192588  0  -1.19131  0  -0.330497  -0.579618  0  2.205468  0
O  O108  1  0.48232801  0.64788968  0.53751213  1  0  -0.612943  0  2.011547  0  0  -0.543291  0  2.251982  0  0  -0.573407  0  2.241046  0  -1.127557  0  -0.322851  -0.522215  0  2.25861  0
O  O109  1  0.51767102  0.35210921  0.46248737  1  0  -0.613003  0  2.011375  0  0  -0.54332  0  2.251827  0  0  -0.573436  0  2.240893  0  -1.127904  0  -0.322877  -0.522245  0  2.258453  0
O  O110  1  0.50197818  0.39914304  0.64136749  1  0  -0.643971  0  2.039246  0  0  -0.564243  0  2.277726  0  0  -0.59641  0  2.265268  0  -1.153343  0  -0.315227  -0.541707  0  2.285679  0
O  O111  1  0.49801844  0.60085584  0.35863379  1  0  -0.643969  0  2.039208  0  0  -0.564245  0  2.27766  0  0  -0.596413  0  2.265203  0  -1.153337  0  -0.315175  -0.541705  0  2.285616  0
O  O112  1  0.24643016  0.50380742  0.60099899  1  0  -0.654688  0  1.971196  0  0  -0.595693  0  2.200992  0  0  -0.622925  0  2.18684  0  -1.186766  0  -0.325672  -0.576325  0  2.210023  0
O  O113  1  0.75356766  0.49619146  0.39899952  1  0  -0.654689  0  1.971224  0  0  -0.595708  0  2.201004  0  0  -0.62294  0  2.186852  0  -1.186838  0  -0.325681  -0.576337  0  2.21004  0
O  O114  1  0.19320398  0.40339035  0.75840061  1  0  -0.665584  0  2.02807  0  0  -0.597728  0  2.285419  0  0  -0.626288  0  2.274228  0  -1.196941  0  -0.332411  -0.576956  0  2.292499  0
O  O115  1  0.80679425  0.59660756  0.24160067  1  0  -0.665577  0  2.028134  0  0  -0.597687  0  2.28548  0  0  -0.62625  0  2.274293  0  -1.196876  0  -0.332384  -0.576915  0  2.292558  0
O  O116  1  0.29746966  0.40885523  0.86262780  1  0  -0.650863  0  2.024698  0  0  -0.591088  0  2.287207  0  0  -0.620995  0  2.275193  0  -1.158917  0  -0.328404  -0.569748  0  2.294487  0
O  O117  1  0.70253380  0.59114170  0.13737108  1  0  -0.65085  0  2.024705  0  0  -0.591072  0  2.287254  0  0  -0.62098  0  2.27524  0  -1.158941  0  -0.328404  -0.56973  0  2.294533  0
O  O118  1  0.78743563  0.69726462  0.97564939  1  0  -0.674511  0  1.972244  0  0  -0.615825  0  2.218584  0  0  -0.645694  0  2.210282  0  -1.17879  0  -0.343669  -0.59451  0  2.223184  0
O  O119  1  0.21256622  0.30273328  0.02435379  1  0  -0.674441  0  1.972156  0  0  -0.615855  0  2.218603  0  0  -0.645724  0  2.210303  0  -1.178926  0  -0.343661  -0.594514  0  2.223151  0
O  O120  1  0.79031912  0.90370961  0.96297995  1  0  -0.612783  0  1.900366  0  0  -0.558173  0  2.112531  0  0  -0.585044  0  2.10297  0  -1.150852  0  -0.331967  -0.539256  0  2.118481  0
O  O121  1  0.20967952  0.09628731  0.03702196  1  0  -0.612795  0  1.900447  0  0  -0.558177  0  2.112591  0  0  -0.585049  0  2.103031  0  -1.15078  0  -0.331978  -0.539263  0  2.118541  0
O  O122  1  0.60380481  0.15333308  0.84147529  1  0  -0.629402  0  1.974869  0  0  -0.573419  0  2.196178  0  0  -0.599809  0  2.184843  0  -1.18127  0  -0.319943  -0.554642  0  2.203288  0
O  O123  1  0.39619459  0.84667070  0.15852577  1  0  -0.629372  0  1.974834  0  0  -0.573414  0  2.196141  0  0  -0.599804  0  2.184807  0  -1.181408  0  -0.319978  -0.554639  0  2.203248  0
O  O124  1  0.44538563  0.02286748  0.88857189  1  0  -0.637441  0  1.97518  0  0  -0.567525  0  2.216827  0  0  -0.599976  0  2.205629  0  -1.130319  0  -0.331036  -0.544625  0  2.223837  0
O  O125  1  0.55461822  0.97713140  0.11142727  1  0  -0.637495  0  1.975132  0  0  -0.567566  0  2.216784  0  0  -0.600017  0  2.205587  0  -1.130414  0  -0.331014  -0.54467  0  2.223792  0
O  O126  1  0.44032768  0.11750818  0.71056392  1  0  -0.63981  0  2.0091  0  0  -0.576251  0  2.243003  0  0  -0.604297  0  2.234299  0  -1.193669  0  -0.31395  -0.556501  0  2.248425  0
O  O127  1  0.55967256  0.88249071  0.28943765  1  0  -0.639811  0  2.009139  0  0  -0.576238  0  2.24303  0  0  -0.604269  0  2.23429  0  -1.19366  0  -0.313922  -0.55649  0  2.24846  0
O  O128  1  0.65798109  0.07939604  0.62245931  1  0  -0.653886  0  1.961869  0  0  -0.58864  0  2.215074  0  0  -0.618229  0  2.203631  0  -1.16363  0  -0.33367  -0.567924  0  2.222371  0
O  O129  1  0.34202115  0.92060382  0.37754146  1  0  -0.65385  0  1.961826  0  0  -0.588652  0  2.215062  0  0  -0.618242  0  2.20362  0  -1.163246  0  -0.333695  -0.567936  0  2.222358  0
O  O130  1  0.82900984  0.86866541  0.19638248  1  0  -0.854237  0  1.931457  0  0  -0.791587  0  2.149815  0  0  -0.81519  0  2.117315  0  -1.229189  0  -0.565809  -0.774702  0  2.173794  0
O  O131  1  0.17098998  0.13133446  0.80361900  1  0  -0.854305  0  1.931426  0  0  -0.791651  0  2.149761  0  0  -0.815252  0  2.117258  0  -1.229222  0  -0.565822  -0.774764  0  2.173742  0
O  O132  1  0.06359017  0.50227639  0.35942359  1  0  -0.831025  0  1.832199  0  0  -0.771287  0  2.018152  0  0  -0.793418  0  1.988892  0  -1.213503  0  -0.571048  -0.755506  0  2.03848  0
O  O133  1  0.93640763  0.49772543  0.64057727  1  0  -0.83093  0  1.832197  0  0  -0.771182  0  2.018112  0  0  -0.793308  0  1.988866  0  -1.213528  0  -0.570988  -0.755401  0  2.038437  0
O  O134  1  0.25186968  0.73169759  0.27114944  1  0  -0.897053  0  1.844124  0  0  -0.827931  0  2.052035  0  0  -0.852411  0  2.016398  0  -1.298525  0  -0.601986  -0.810408  0  2.076748  0
O  O135  1  0.74813096  0.26830032  0.72885059  1  0  -0.897149  0  1.84401  0  0  -0.827981  0  2.051986  0  0  -0.852462  0  2.016345  0  -1.298343  0  -0.601997  -0.810457  0  2.076701  0
