# generated using pymatgen
data_Cu2H34C27N6O7
_symmetry_space_group_name_H-M   'P 1'
_cell_length_a   12.77583255
_cell_length_b   14.35858066
_cell_length_c   16.26821567
_cell_angle_alpha   90.00011456
_cell_angle_beta   89.99995901
_cell_angle_gamma   90.00004987
_symmetry_Int_Tables_number   1
_chemical_formula_structural   Cu2H34C27N6O7
_chemical_formula_sum   'Cu8 H136 C108 N24 O28'
_cell_volume   2984.28739468
_cell_formula_units_Z   4
loop_
 _symmetry_equiv_pos_site_id
 _symmetry_equiv_pos_as_xyz
  1  'x, y, z'
loop_
 _atom_site_type_symbol
 _atom_site_label
 _atom_site_symmetry_multiplicity
 _atom_site_fract_x
 _atom_site_fract_y
 _atom_site_fract_z
 _atom_site_occupancy
 _atom_site_pbe_bader_charge
 _atom_site_pbe_bader_spin_density
 _atom_site_pbe_cm5_charge
 _atom_site_pbe_ddec_charge
 _atom_site_pbe_ddec_spin_density
 _atom_site_pbe_ddec_sum_bond_order
 _atom_site_pbe_magmom
Cu  Cu0  1  0.05162050  0.02612133  0.91287271  1  1.05133  0.580466  0.749049  0.740038  0.733253  2.316566  0.578
Cu  Cu1  1  0.44837889  0.97387824  0.41287207  1  1.051251  0.580462  0.749047  0.740048  0.733247  2.316574  0.578
Cu  Cu2  1  0.55161747  0.47388002  0.08712783  1  1.05143  0.58046  0.749025  0.740092  0.733238  2.316455  0.578
Cu  Cu3  1  0.94838124  0.52612128  0.58712789  1  1.051407  0.580463  0.749042  0.740085  0.733244  2.316542  0.578
Cu  Cu4  1  0.78138289  0.29478597  0.84306238  1  1.055302  0.580759  0.75535  0.742707  0.734853  2.357526  0.578
Cu  Cu5  1  0.71861480  0.70521313  0.34306140  1  1.055254  0.580762  0.755411  0.742825  0.73486  2.357505  0.578
Cu  Cu6  1  0.28138287  0.20521277  0.15693741  1  1.055214  0.580758  0.755396  0.742757  0.734855  2.357538  0.578
Cu  Cu7  1  0.21861598  0.79478760  0.65693808  1  1.055273  0.580756  0.755351  0.74265  0.734851  2.357605  0.578
H  H8  1  0.36377376  0.95715530  0.58308804  1  0.544967  0.000273  0.319038  0.276642  0.000264  1.005185  0.0
H  H9  1  0.13622594  0.04284421  0.08308840  1  0.544988  0.000273  0.319046  0.276692  0.000264  1.005154  0.0
H  H10  1  0.86377392  0.54284346  0.41691135  1  0.545  0.000273  0.319037  0.276704  0.000264  1.005154  0.0
H  H11  1  0.63622292  0.45715859  0.91691148  1  0.54503  0.000273  0.319075  0.276771  0.000264  1.005119  0.0
H  H12  1  0.78261737  0.37763867  0.67458915  1  0.537247  0.000431  0.317207  0.270176  0.000486  1.013856  0.001
H  H13  1  0.71738517  0.62235795  0.17459048  1  0.537263  0.000431  0.317232  0.270242  0.000486  1.013759  0.001
H  H14  1  0.28261789  0.12235867  0.32540695  1  0.537237  0.000431  0.317203  0.270134  0.000486  1.013872  0.001
H  H15  1  0.21738550  0.87763930  0.82540961  1  0.537262  0.000431  0.317218  0.27019  0.000486  1.013802  0.001
H  H16  1  0.94029927  0.02519029  0.70866690  1  0.095945  0.002437  0.11719  0.08963  0.001284  0.972737  0.001
H  H17  1  0.55970402  0.97480641  0.20866710  1  0.096332  0.002436  0.11719  0.089661  0.001284  0.972675  0.001
H  H18  1  0.44029704  0.47480579  0.29133464  1  0.095855  0.002437  0.117182  0.089663  0.001284  0.972665  0.001
H  H19  1  0.05970325  0.52519280  0.79133431  1  0.095841  0.002437  0.117176  0.089635  0.001284  0.9727  0.001
H  H20  1  0.01370535  0.18148877  0.67525799  1  0.063207  0.000416  0.094005  0.137488  0.000322  1.027663  0.0
H  H21  1  0.48629426  0.81850956  0.17525582  1  0.063023  0.000416  0.093995  0.137482  0.000322  1.027656  0.0
H  H22  1  0.51370508  0.31850768  0.32474257  1  0.06316  0.000416  0.093992  0.137431  0.000322  1.027682  0.0
H  H23  1  0.98629419  0.68149068  0.82474535  1  0.063034  0.000416  0.093983  0.137476  0.000322  1.02761  0.0
H  H24  1  0.08324835  0.09079244  0.62292824  1  0.044536  0.000936  0.090523  0.126165  0.000493  1.031185  0.001
H  H25  1  0.41675288  0.90920786  0.12292627  1  0.044493  0.000936  0.090505  0.126168  0.000493  1.031211  0.001
H  H26  1  0.58324734  0.40920545  0.37707290  1  0.044534  0.000936  0.090526  0.12616  0.000493  1.031209  0.001
H  H27  1  0.91675189  0.59079164  0.87707309  1  0.044509  0.000936  0.090506  0.12617  0.000493  1.031205  0.001
H  H28  1  0.13951238  0.14560717  0.71056972  1  0.028815  0.000154  0.090895  0.125801  2e-05  1.017224  0.0
H  H29  1  0.36048877  0.85439332  0.21056953  1  0.028839  0.000154  0.09086  0.125816  2e-05  1.017173  0.0
H  H30  1  0.63951061  0.35439145  0.28942954  1  0.028829  0.000154  0.090878  0.125797  2e-05  1.017264  0.0
H  H31  1  0.86048791  0.64560613  0.78943109  1  0.028857  0.000154  0.0909  0.125835  2e-05  1.017215  0.0
H  H32  1  0.85016309  0.25571300  0.06427931  1  0.072189  0.004389  0.11283  0.078837  0.002395  0.980329  0.002
H  H33  1  0.64983877  0.74428685  0.56427871  1  0.072189  0.004389  0.112842  0.078853  0.002396  0.980308  0.002
H  H34  1  0.35016474  0.24428440  0.93571921  1  0.072217  0.004389  0.112832  0.078892  0.002396  0.980291  0.002
H  H35  1  0.14983620  0.75571243  0.43572204  1  0.072192  0.004389  0.112848  0.078873  0.002395  0.980346  0.002
H  H36  1  0.01432329  0.34207702  0.02392425  1  0.046986  3e-05  0.09443  0.135861  -3e-06  0.998677  0.0
H  H37  1  0.48567567  0.65792723  0.52392453  1  0.046914  3e-05  0.094413  0.135872  -3e-06  0.998624  0.0
H  H38  1  0.51432463  0.15792151  0.97607385  1  0.047126  3e-05  0.094444  0.135905  -3e-06  0.998648  0.0
H  H39  1  0.98567608  0.84207858  0.47607357  1  0.047113  3e-05  0.094442  0.135866  -3e-06  0.998659  0.0
H  H40  1  0.92587094  0.41708833  0.07761341  1  0.045007  0.000231  0.091169  0.124933  0.000117  1.018183  0.0
H  H41  1  0.57412464  0.58291365  0.57761379  1  0.045036  0.000231  0.091144  0.124912  0.000117  1.01826  0.0
H  H42  1  0.42587324  0.08290983  0.92238507  1  0.045005  0.000231  0.091139  0.1249  0.000117  1.018214  0.0
H  H43  1  0.07413006  0.91708767  0.42238454  1  0.045024  0.000231  0.091159  0.124898  0.000117  1.018181  0.0
H  H44  1  0.93748231  0.42348970  0.96780692  1  0.059301  0.000289  0.091872  0.132456  0.000223  1.018229  0.0
H  H45  1  0.56251214  0.57651177  0.46780765  1  0.059344  0.000289  0.091888  0.132499  0.000223  1.018208  0.0
H  H46  1  0.43748541  0.07650707  0.03219094  1  0.059303  0.000289  0.091864  0.13245  0.000223  1.018223  0.0
H  H47  1  0.06251747  0.92349232  0.53219069  1  0.059352  0.000289  0.091876  0.132443  0.000223  1.018205  0.0
H  H48  1  0.28848186  0.02460155  0.72195804  1  0.059745  -0.000113  0.099226  0.14565  -0.000136  1.013973  0.0
H  H49  1  0.21151144  0.97539897  0.22195938  1  0.059838  -0.000113  0.099175  0.145544  -0.000136  1.014013  0.0
H  H50  1  0.78848492  0.47539650  0.27804360  1  0.059776  -0.000113  0.099165  0.145552  -0.000136  1.014026  0.0
H  H51  1  0.71151283  0.52460385  0.77804379  1  0.0598  -0.000113  0.099186  0.145586  -0.000136  1.014018  0.0
H  H52  1  0.32569044  0.13875913  0.75260746  1  0.040801  0.00041  0.097876  0.137676  0.00026  1.013418  0.0
H  H53  1  0.17430362  0.86124147  0.25260924  1  0.041413  0.000411  0.09792  0.137673  0.00026  1.013369  0.0
H  H54  1  0.82569185  0.36123895  0.24739231  1  0.041112  0.00041  0.097883  0.137647  0.00026  1.013403  0.0
H  H55  1  0.67430671  0.63875993  0.74739211  1  0.041155  0.000411  0.097892  0.137644  0.00026  1.013399  0.0
H  H56  1  0.41586925  0.04531330  0.76041337  1  0.051846  -0.000167  0.096835  0.136697  -0.000147  0.992695  0.0
H  H57  1  0.08412402  0.95468731  0.26041475  1  0.051709  -0.000167  0.096822  0.136626  -0.000147  0.99269  0.0
H  H58  1  0.91587154  0.45468554  0.23958573  1  0.051817  -0.000167  0.096824  0.136628  -0.000147  0.992693  0.0
H  H59  1  0.58412703  0.54531402  0.73958665  1  0.051796  -0.000167  0.096806  0.136614  -0.000147  0.992696  0.0
H  H60  1  0.47555326  0.17734267  0.39010611  1  0.058968  -0.000259  0.098049  0.145883  -0.000286  1.033885  0.0
H  H61  1  0.02444850  0.82265824  0.89010510  1  0.058923  -0.000259  0.098022  0.145839  -0.000286  1.033934  0.0
H  H62  1  0.97555196  0.32265901  0.60989419  1  0.058938  -0.000259  0.098028  0.145847  -0.000286  1.033896  0.0
H  H63  1  0.52444438  0.67734235  0.10989388  1  0.058959  -0.000259  0.098011  0.145815  -0.000286  1.033966  0.0
H  H64  1  0.58868716  0.19300380  0.45180985  1  0.004738  -0.000165  0.096727  0.137691  -0.000145  1.00311  0.0
H  H65  1  0.91131278  0.80699554  0.95180613  1  0.004724  -0.000165  0.09672  0.137692  -0.000145  1.003141  0.0
H  H66  1  0.08868923  0.30699549  0.54819435  1  0.004707  -0.000165  0.096699  0.137657  -0.000145  1.003146  0.0
H  H67  1  0.41130815  0.69300604  0.04819508  1  0.004632  -0.000165  0.096693  0.137608  -0.000145  1.003221  0.0
H  H68  1  0.48474329  0.27487119  0.45735758  1  0.041897  -0.000113  0.093584  0.127974  -9.5e-05  1.044048  0.0
H  H69  1  0.01525685  0.72512847  0.95735394  1  0.041874  -0.000113  0.093608  0.128034  -9.5e-05  1.043947  0.0
H  H70  1  0.98474352  0.22512910  0.54264517  1  0.041889  -0.000113  0.093592  0.127996  -9.5e-05  1.044019  0.0
H  H71  1  0.51525210  0.77487210  0.04264627  1  0.041879  -0.000113  0.09357  0.128023  -9.5e-05  1.043976  0.0
H  H72  1  0.55728553  0.26468963  0.87565235  1  0.090066  -0.000109  0.097989  0.144008  -0.000203  1.029386  0.0
H  H73  1  0.94271292  0.73531511  0.37565375  1  0.090119  -0.000109  0.097965  0.143945  -0.000203  1.02943  0.0
H  H74  1  0.05728556  0.23531381  0.12434696  1  0.090142  -0.000109  0.097989  0.143981  -0.000203  1.029386  0.0
H  H75  1  0.44271488  0.76468579  0.62434683  1  0.090153  -0.000109  0.097984  0.143979  -0.000203  1.029392  0.0
H  H76  1  0.53452534  0.16147949  0.81762193  1  0.058275  -0.000239  0.094246  0.129174  -0.000246  1.011622  0.0
H  H77  1  0.96547237  0.83852373  0.31762227  1  0.058181  -0.000239  0.094246  0.12912  -0.000246  1.011701  0.0
H  H78  1  0.03452543  0.33852323  0.18237862  1  0.058212  -0.000239  0.094217  0.129121  -0.000246  1.011665  0.0
H  H79  1  0.46547418  0.66147790  0.68237830  1  0.05822  -0.000239  0.094226  0.12913  -0.000246  1.011671  0.0
H  H80  1  0.44241397  0.25374275  0.81478644  1  0.060756  4.7e-05  0.0969  0.138652  3.5e-05  1.004715  0.0
H  H81  1  0.05758473  0.74626147  0.31478808  1  0.060861  4.7e-05  0.096921  0.138639  3.5e-05  1.004678  0.0
H  H82  1  0.94241377  0.24625890  0.18521449  1  0.06079  4.7e-05  0.0969  0.138593  3.5e-05  1.004776  0.0
H  H83  1  0.55758720  0.75373984  0.68521149  1  0.060853  4.7e-05  0.09691  0.138625  3.5e-05  1.004685  0.0
H  H84  1  0.38260347  0.28145562  0.68173379  1  0.045442  0.000427  0.095933  0.093476  0.000211  1.015989  0.0
H  H85  1  0.11739771  0.71854620  0.18173411  1  0.045418  0.000427  0.095938  0.093501  0.000211  1.01598  0.0
H  H86  1  0.88260546  0.21854320  0.31826779  1  0.045478  0.000427  0.095904  0.093465  0.000211  1.015995  0.0
H  H87  1  0.61739617  0.78145585  0.81826850  1  0.045463  0.000427  0.09593  0.093515  0.000211  1.015986  0.0
H  H88  1  0.41899176  0.32135014  0.58439308  1  0.036197  0.000319  0.097899  0.094834  0.000157  0.997771  0.0
H  H89  1  0.08100715  0.67865007  0.08439397  1  0.036228  0.000319  0.097879  0.094845  0.000158  0.997658  0.0
H  H90  1  0.91899598  0.17864941  0.41560848  1  0.036169  0.000319  0.097907  0.094865  0.000157  0.997774  0.0
H  H91  1  0.58100791  0.82135334  0.91560804  1  0.03618  0.000319  0.097864  0.094827  0.000158  0.997673  0.0
H  H92  1  0.70000366  0.43675784  0.54203382  1  0.073721  -1.3e-05  0.101689  0.150985  -6.1e-05  0.998999  0.0
H  H93  1  0.79999978  0.56323987  0.04203438  1  0.073722  -1.3e-05  0.10168  0.150993  -6.1e-05  0.999043  0.0
H  H94  1  0.20000401  0.06323944  0.45796541  1  0.07368  -1.3e-05  0.10168  0.150983  -6.1e-05  0.999045  0.0
H  H95  1  0.29999691  0.93675814  0.95796566  1  0.073724  -1.3e-05  0.101685  0.150997  -6.1e-05  0.999026  0.0
H  H96  1  0.57063909  0.40223764  0.51616375  1  0.043446  0.000107  0.096461  0.130933  3.9e-05  1.021636  0.0
H  H97  1  0.92936359  0.59776141  0.01616491  1  0.043383  0.000107  0.096461  0.130941  3.9e-05  1.021657  0.0
H  H98  1  0.07064023  0.09776094  0.48383371  1  0.04345  0.000107  0.096461  0.13094  3.9e-05  1.021646  0.0
H  H99  1  0.42936066  0.90223809  0.98383629  1  0.043432  0.000107  0.096463  0.130944  3.9e-05  1.021669  0.0
H  H100  1  0.67697499  0.32546475  0.49832027  1  0.039701  -9.8e-05  0.095568  0.132812  -9.3e-05  1.01176  0.0
H  H101  1  0.82302804  0.67453331  0.99832374  1  0.039783  -9.8e-05  0.095594  0.132863  -9.3e-05  1.011863  0.0
H  H102  1  0.17697541  0.17453321  0.50167651  1  0.039787  -9.8e-05  0.095579  0.132877  -9.3e-05  1.011805  0.0
H  H103  1  0.32302436  0.82546472  0.00167630  1  0.039727  -9.8e-05  0.095566  0.132833  -9.3e-05  1.01182  0.0
H  H104  1  0.80972840  0.93266311  0.24396097  1  0.059764  -7.2e-05  0.097281  0.097678  -0.000109  1.015977  0.0
H  H105  1  0.69027174  0.06733716  0.74395976  1  0.05976  -7.2e-05  0.09723  0.097594  -0.000109  1.015934  0.0
H  H106  1  0.30972613  0.56733909  0.75603907  1  0.059791  -7.2e-05  0.097225  0.09759  -0.000109  1.015898  0.0
H  H107  1  0.19027341  0.43266151  0.25604070  1  0.059772  -7.2e-05  0.097232  0.097587  -0.000109  1.015872  0.0
H  H108  1  0.74789006  0.03916125  0.35502954  1  0.081943  -1e-05  0.097684  0.106129  -2.1e-05  1.019994  0.0
H  H109  1  0.75211153  0.96083857  0.85502987  1  0.081948  -1e-05  0.097705  0.106169  -2.1e-05  1.019944  0.0
H  H110  1  0.24787967  0.46084304  0.64497089  1  0.081947  -1e-05  0.097697  0.106179  -2.1e-05  1.019931  0.0
H  H111  1  0.25211762  0.53915731  0.14497021  1  0.081944  -1e-05  0.097703  0.106221  -2.1e-05  1.01995  0.0
H  H112  1  0.66358723  0.18953467  0.31840859  1  0.025825  -4e-06  0.095137  0.089463  -2.1e-05  1.03625  0.0
H  H113  1  0.83641675  0.81046507  0.81840615  1  0.025828  -4e-06  0.095113  0.089444  -2.1e-05  1.036261  0.0
H  H114  1  0.16357822  0.31046815  0.68159249  1  0.025822  -4e-06  0.095127  0.089471  -2.1e-05  1.036238  0.0
H  H115  1  0.33642138  0.68953158  0.18159142  1  0.0258  -4e-06  0.095127  0.089468  -2.1e-05  1.036262  0.0
H  H116  1  0.64090073  0.23372689  0.17124007  1  0.084624  4e-05  0.096709  0.101117  -0.0  1.014194  0.0
H  H117  1  0.85910494  0.76627391  0.67123754  1  0.084562  4e-05  0.096748  0.101185  -0.0  1.014213  0.0
H  H118  1  0.14090016  0.26627383  0.82876164  1  0.084616  4e-05  0.096714  0.101137  -0.0  1.014158  0.0
H  H119  1  0.35910636  0.73372554  0.32875940  1  0.082028  4e-05  0.096741  0.10115  -0.0  1.01424  0.0
H  H120  1  0.69994816  0.12511159  0.06081974  1  0.053041  5e-06  0.097652  0.10102  -2.5e-05  1.01742  0.0
H  H121  1  0.80005527  0.87488965  0.56081743  1  0.052959  5e-06  0.097696  0.101091  -2.5e-05  1.017445  0.0
H  H122  1  0.19995072  0.37488778  0.93918133  1  0.053014  5e-06  0.097648  0.101041  -2.5e-05  1.017416  0.0
H  H123  1  0.30005570  0.62511254  0.43918139  1  0.052998  5e-06  0.097645  0.101025  -2.5e-05  1.017386  0.0
H  H124  1  0.86305335  0.91776108  0.09947060  1  0.065257  2e-05  0.093334  0.028006  1e-05  0.988475  0.0
H  H125  1  0.63694769  0.08223817  0.59947068  1  0.065206  2e-05  0.093351  0.028026  1e-05  0.988443  0.0
H  H126  1  0.36305567  0.58223907  0.90052880  1  0.065225  2e-05  0.093332  0.028005  1e-05  0.988485  0.0
H  H127  1  0.13694687  0.41776186  0.40052858  1  0.065274  2e-05  0.093332  0.027986  1e-05  0.98845  0.0
H  H128  1  0.73000135  0.82852788  0.02078891  1  0.028588  2.5e-05  0.085849  0.120481  9e-06  1.014861  0.0
H  H129  1  0.76999976  0.17147257  0.52078846  1  0.028583  2.5e-05  0.08585  0.120498  9e-06  1.014799  0.0
H  H130  1  0.23000133  0.67147425  0.97920994  1  0.028692  2.5e-05  0.085849  0.12048  9e-06  1.014873  0.0
H  H131  1  0.27000035  0.32852755  0.47921134  1  0.028714  2.5e-05  0.085841  0.120492  9e-06  1.014869  0.0
H  H132  1  0.63335171  0.91380023  0.04590056  1  0.019483  2.6e-05  0.086595  0.120727  1e-05  1.006108  0.0
H  H133  1  0.86664938  0.08620168  0.54589928  1  0.019465  2.6e-05  0.086599  0.120738  1e-05  1.006116  0.0
H  H134  1  0.13335241  0.58620114  0.95409835  1  0.019522  2.6e-05  0.086612  0.120773  1e-05  1.006108  0.0
H  H135  1  0.36664929  0.41380131  0.45409923  1  0.019187  2.6e-05  0.086576  0.120717  1e-05  1.006118  0.0
H  H136  1  0.68907247  0.84344241  0.12518268  1  0.072699  0.000153  0.092523  0.140104  0.000153  1.015701  0.0
H  H137  1  0.81092855  0.15655759  0.62518156  1  0.072704  0.000153  0.092546  0.140145  0.000153  1.015703  0.0
H  H138  1  0.18907410  0.65655760  0.87481620  1  0.07269  0.000153  0.092542  0.140126  0.000153  1.015735  0.0
H  H139  1  0.31092846  0.34344327  0.37481698  1  0.072691  0.000153  0.092531  0.140122  0.000153  1.015731  0.0
H  H140  1  0.86600933  0.03965189  0.00487064  1  0.597839  -0.000214  0.288341  0.319415  -0.000388  1.015678  0.0
H  H141  1  0.63399180  0.96034783  0.50486980  1  0.597848  -0.000214  0.288349  0.319432  -0.000388  1.015654  0.0
H  H142  1  0.36600958  0.46034830  0.99513034  1  0.597846  -0.000214  0.288328  0.319416  -0.000388  1.015686  0.0
H  H143  1  0.13399131  0.53965284  0.49513034  1  0.597859  -0.000214  0.288328  0.319408  -0.000388  1.015694  0.0
C  C144  1  0.08430305  0.96477034  0.74861089  1  1.54232  0.00023  0.220314  0.578859  -0.000212  4.101927  0.0
C  C145  1  0.41569806  0.03522677  0.24861231  1  1.54259  0.000229  0.220348  0.578952  -0.000213  4.101734  0.0
C  C146  1  0.58429945  0.53522681  0.25138866  1  1.542578  0.000228  0.220353  0.578948  -0.000214  4.101672  0.0
C  C147  1  0.91569833  0.46477277  0.75138741  1  1.542284  0.000228  0.220356  0.578976  -0.000213  4.101791  0.0
C  C148  1  0.01328728  0.04940336  0.73812647  1  0.341997  0.002151  0.006483  0.068103  0.001852  3.916058  0.0
C  C149  1  0.48671384  0.95059581  0.23812454  1  0.341617  0.002152  0.006514  0.068139  0.001853  3.916033  0.0
C  C150  1  0.51328563  0.45059448  0.26187531  1  0.342136  0.002152  0.00652  0.068074  0.001852  3.916085  0.0
C  C151  1  0.98671448  0.54940374  0.76187602  1  0.342023  0.002152  0.006529  0.06816  0.001853  3.915981  0.0
C  C152  1  0.06590230  0.12177468  0.68289735  1  -0.074113  0.001988  -0.243473  -0.401853  0.001477  3.884069  0.001
C  C153  1  0.43409808  0.87822576  0.18289471  1  -0.073932  0.001988  -0.243413  -0.401909  0.001477  3.884109  0.001
C  C154  1  0.56590210  0.37822390  0.31710379  1  -0.074109  0.001988  -0.243441  -0.401773  0.001477  3.884178  0.001
C  C155  1  0.93409796  0.62177584  0.81710465  1  -0.073982  0.001989  -0.243416  -0.401867  0.001477  3.884056  0.001
C  C156  1  0.92411794  0.15264104  0.83329901  1  1.398156  -0.001603  0.21357  0.362376  -0.001561  4.200914  0.0
C  C157  1  0.57588054  0.84735664  0.33329835  1  1.397985  -0.001598  0.213602  0.362488  -0.001561  4.200785  0.0
C  C158  1  0.42411570  0.34735920  0.16670009  1  1.398557  -0.001603  0.21351  0.362313  -0.001561  4.200899  0.0
C  C159  1  0.07588392  0.65264120  0.66670243  1  1.39865  -0.001603  0.213583  0.362442  -0.001561  4.200936  0.0
C  C160  1  0.91934641  0.17957417  0.92305811  1  1.38767  -0.001617  0.215274  0.35933  -0.001728  4.185361  -0.001
C  C161  1  0.58065200  0.82042511  0.42305740  1  1.387635  -0.001618  0.215313  0.359333  -0.001729  4.185419  -0.001
C  C162  1  0.41934500  0.32042607  0.07694161  1  1.387958  -0.001617  0.215293  0.359362  -0.001729  4.185316  -0.001
C  C163  1  0.08065391  0.67957621  0.57694400  1  1.387925  -0.001617  0.215324  0.35937  -0.001729  4.185318  -0.001
C  C164  1  0.85063433  0.30369192  0.01148500  1  0.350727  0.002193  0.006592  0.067016  0.001818  3.896092  0.0
C  C165  1  0.64936522  0.69630712  0.51148369  1  0.350776  0.002193  0.006571  0.067096  0.001818  3.896093  0.0
C  C166  1  0.35063590  0.19630548  0.98851537  1  0.350629  0.002193  0.006571  0.066943  0.001818  3.896156  0.0
C  C167  1  0.14936421  0.80369286  0.48851583  1  0.350739  0.002193  0.006548  0.066934  0.001818  3.896264  0.0
C  C168  1  0.93798366  0.37672216  0.02118985  1  -0.083341  0.000733  -0.238666  -0.395831  0.000466  3.876373  0.0
C  C169  1  0.56201354  0.62327969  0.52119031  1  -0.083361  0.000733  -0.238635  -0.395894  0.000466  3.876441  0.0
C  C170  1  0.43798673  0.12327461  0.97880862  1  -0.083433  0.000733  -0.238642  -0.395857  0.000466  3.876421  0.0
C  C171  1  0.06201652  0.87672302  0.47880803  1  -0.083529  0.000732  -0.238656  -0.395767  0.000466  3.876428  0.0
C  C172  1  0.74517196  0.35468299  0.00739059  1  1.561032  7.9e-05  0.218079  0.583485  -0.000181  4.094751  0.0
C  C173  1  0.75482760  0.64531674  0.50738851  1  1.561028  7.9e-05  0.218114  0.583377  -0.00018  4.094873  0.0
C  C174  1  0.24517347  0.14531572  0.99260923  1  1.560889  8e-05  0.218059  0.583364  -0.00018  4.094911  0.0
C  C175  1  0.25482664  0.85468263  0.49261094  1  1.561015  7.9e-05  0.218091  0.583365  -0.00018  4.094792  0.0
C  C176  1  0.35295675  0.07502857  0.72234778  1  -0.035686  0.000505  -0.231014  -0.42084  0.000324  3.950893  0.0
C  C177  1  0.14703656  0.92497265  0.22234907  1  -0.036271  0.000505  -0.230988  -0.420649  0.000324  3.950691  0.0
C  C178  1  0.85295897  0.42497023  0.27765259  1  -0.035974  0.000505  -0.230958  -0.420636  0.000324  3.950811  0.0
C  C179  1  0.64703956  0.57502942  0.77765230  1  -0.036004  0.000505  -0.230955  -0.420648  0.000324  3.950738  0.0
C  C180  1  0.39033753  0.09390918  0.63722228  1  0.395304  -0.000137  0.100462  0.198302  -0.000381  3.977325  0.001
C  C181  1  0.10965586  0.90609254  0.13722479  1  0.395141  -0.000136  0.100467  0.198392  -0.00038  3.977155  0.001
C  C182  1  0.89034279  0.40609103  0.36277622  1  0.3953  -0.000136  0.100498  0.198392  -0.00038  3.977202  0.001
C  C183  1  0.60965567  0.59391159  0.86277721  1  0.395854  -0.000136  0.100537  0.19847  -0.00038  3.977044  0.001
C  C184  1  0.42925012  0.17415594  0.59850206  1  0.052158  0.002813  -0.03775  -0.133186  0.001864  3.971127  0.002
C  C185  1  0.07074565  0.82584360  0.09850198  1  0.052138  0.002814  -0.0378  -0.133295  0.001864  3.971232  0.002
C  C186  1  0.92925527  0.32584291  0.40149827  1  0.052122  0.002814  -0.037769  -0.133195  0.001865  3.971085  0.002
C  C187  1  0.57074472  0.67416050  0.90150004  1  0.052149  0.002814  -0.037819  -0.133287  0.001865  3.971216  0.002
C  C188  1  0.45416358  0.14598455  0.51752203  1  0.410785  0.000769  0.094485  0.207621  0.000329  4.022333  0.002
C  C189  1  0.04583617  0.85401481  0.01752264  1  0.410801  0.000769  0.094533  0.207706  0.000329  4.022305  0.002
C  C190  1  0.95416634  0.35401502  0.48247766  1  0.410601  0.00077  0.094531  0.20765  0.00033  4.022404  0.002
C  C191  1  0.54583122  0.64598579  0.98247817  1  0.410486  0.000771  0.0945  0.207621  0.000329  4.022532  0.002
C  C192  1  0.50300664  0.20086945  0.45044464  1  0.014919  0.000168  -0.239796  -0.4406  -0.000136  3.965471  0.0
C  C193  1  0.99699330  0.79912920  0.95044270  1  0.014941  0.000168  -0.239845  -0.44071  -0.000136  3.96534  0.0
C  C194  1  0.00300714  0.29912977  0.54955715  1  0.014935  0.000168  -0.239781  -0.440594  -0.000136  3.965439  0.0
C  C195  1  0.49698789  0.70087175  0.04955785  1  0.015122  0.000168  -0.239747  -0.440541  -0.000136  3.965551  0.0
C  C196  1  0.52633726  0.23773354  0.81743452  1  -0.091622  0.000396  -0.235732  -0.435007  3.2e-05  3.970299  0.0
C  C197  1  0.97365967  0.76227037  0.31743595  1  -0.091744  0.000395  -0.235743  -0.434884  3.2e-05  3.970323  0.0
C  C198  1  0.02633884  0.26226918  0.18256542  1  -0.091673  0.000396  -0.235694  -0.434876  3.2e-05  3.970284  0.0
C  C199  1  0.47366233  0.73773056  0.68256462  1  -0.091801  0.000395  -0.235731  -0.434932  3.2e-05  3.97023  0.0
C  C200  1  0.58224365  0.28023420  0.74672426  1  0.438994  0.000846  0.09388  0.204312  0.000345  4.019707  0.002
C  C201  1  0.91775569  0.71976676  0.24672688  1  0.438828  0.000846  0.093912  0.204333  0.000345  4.019796  0.002
C  C202  1  0.08224512  0.21976508  0.25327503  1  0.438958  0.000846  0.093878  0.204356  0.000345  4.019739  0.002
C  C203  1  0.41775833  0.78023482  0.75327494  1  0.438782  0.000847  0.093911  0.204351  0.000345  4.019617  0.002
C  C204  1  0.54704677  0.29587492  0.66551747  1  0.03718  0.002697  -0.036851  -0.124255  0.001766  3.96372  0.002
C  C205  1  0.95295108  0.70412377  0.16552127  1  0.037245  0.002697  -0.036744  -0.12411  0.001766  3.963823  0.002
C  C206  1  0.04705128  0.20412433  0.33447938  1  0.037269  0.002697  -0.036722  -0.12411  0.001766  3.963724  0.002
C  C207  1  0.45295288  0.79587714  0.83447992  1  0.037414  0.002697  -0.036786  -0.124105  0.001766  3.963739  0.002
C  C208  1  0.44062005  0.27119343  0.63263249  1  0.032741  0.001605  -0.149602  -0.153864  0.001109  4.014869  0.001
C  C209  1  0.05937803  0.72880758  0.13263472  1  0.032714  0.001605  -0.149607  -0.153977  0.001109  4.014865  0.001
C  C210  1  0.94062436  0.22880543  0.36736659  1  0.03271  0.001605  -0.149613  -0.153998  0.001109  4.01489  0.001
C  C211  1  0.55937644  0.77119511  0.86736547  1  0.032635  0.001605  -0.149546  -0.153968  0.001109  4.01495  0.001
C  C212  1  0.63118301  0.33921415  0.62531824  1  0.401949  -0.000356  0.100686  0.19896  -0.000539  3.974656  0.0
C  C213  1  0.86881957  0.66078306  0.12532201  1  0.401981  -0.000356  0.10063  0.198985  -0.000539  3.974809  0.0
C  C214  1  0.13118275  0.16078308  0.37467795  1  0.401998  -0.000356  0.100614  0.198952  -0.000539  3.974689  0.0
C  C215  1  0.36881746  0.83921640  0.87467984  1  0.401999  -0.000356  0.100621  0.198926  -0.000539  3.97471  0.0
C  C216  1  0.64543420  0.37770533  0.54106625  1  -0.04001  0.000477  -0.230763  -0.426091  0.000244  3.958642  0.0
C  C217  1  0.85456925  0.62229239  0.04106935  1  -0.039953  0.000478  -0.230793  -0.426214  0.000244  3.958806  0.0
C  C218  1  0.14543460  0.12229191  0.45893055  1  -0.039999  0.000478  -0.230752  -0.426196  0.000244  3.958691  0.0
C  C219  1  0.35456554  0.87770636  0.95893251  1  -0.040005  0.000478  -0.230759  -0.426159  0.000244  3.95868  0.0
C  C220  1  0.77330811  0.99917244  0.22827216  1  -0.107955  0.000198  -0.09608  -0.134221  0.000112  3.987954  0.0
C  C221  1  0.72669282  0.00082849  0.72826897  1  -0.107858  0.000198  -0.096088  -0.134184  0.000112  3.987947  0.0
C  C222  1  0.27330341  0.50082834  0.77172729  1  -0.107935  0.000198  -0.096017  -0.134056  0.000112  3.987705  0.0
C  C223  1  0.22669611  0.49917160  0.27172839  1  -0.107892  0.000198  -0.096014  -0.134011  0.000112  3.987635  0.0
C  C224  1  0.73888247  0.05861087  0.29054308  1  -0.04394  0.000159  -0.096673  -0.082641  6.3e-05  4.014371  0.0
C  C225  1  0.76111997  0.94139438  0.79054152  1  -0.044078  0.000159  -0.096646  -0.082609  6.3e-05  4.014315  0.0
C  C226  1  0.23887513  0.44139132  0.70945797  1  -0.04407  0.000159  -0.096738  -0.082741  6.3e-05  4.014439  0.0
C  C227  1  0.26112523  0.55860917  0.20945732  1  -0.044032  0.000159  -0.09671  -0.082834  6.3e-05  4.014422  0.0
C  C228  1  0.69089660  0.14308784  0.26996316  1  -0.062659  7.8e-05  -0.102457  -0.105653  1.3e-05  4.036191  0.0
C  C229  1  0.80910585  0.85691527  0.76996143  1  -0.062503  7.8e-05  -0.102434  -0.105655  1.3e-05  4.036039  0.0
C  C230  1  0.19088682  0.35691780  0.73003730  1  -0.062494  7.8e-05  -0.102397  -0.105643  1.3e-05  4.036084  0.0
C  C231  1  0.30911275  0.64308483  0.23003677  1  -0.062511  7.8e-05  -0.102404  -0.105608  1.3e-05  4.036043  0.0
C  C232  1  0.67757776  0.16760130  0.18751591  1  -0.078483  0.000377  -0.098591  -0.089004  0.00025  4.03091  0.0
C  C233  1  0.82242869  0.83239883  0.68751352  1  -0.07849  0.000377  -0.098561  -0.088981  0.00025  4.030818  0.0
C  C234  1  0.17757335  0.33240084  0.81248517  1  -0.078491  0.000377  -0.098585  -0.088995  0.00025  4.030798  0.0
C  C235  1  0.32243005  0.66759920  0.31248529  1  -0.075931  0.000377  -0.09861  -0.088988  0.00025  4.030949  0.0
C  C236  1  0.71111451  0.10718511  0.12541684  1  -0.082268  0.000237  -0.099821  -0.137119  0.000158  3.993502  0.0
C  C237  1  0.78888964  0.89281628  0.62541334  1  -0.082125  0.000237  -0.099934  -0.137243  0.000158  3.993586  0.0
C  C238  1  0.21111402  0.39281497  0.87458483  1  -0.082325  0.000237  -0.099849  -0.137189  0.000158  3.993603  0.0
C  C239  1  0.28889011  0.60718451  0.37458425  1  -0.082069  0.000237  -0.099863  -0.137177  0.000158  3.993579  0.0
C  C240  1  0.75902523  0.02238289  0.14523085  1  0.040255  0.000205  -0.018999  0.033501  0.000155  3.948623  0.0
C  C241  1  0.74097812  0.97761645  0.64522691  1  0.040175  0.000205  -0.019003  0.033445  0.000155  3.948805  0.0
C  C242  1  0.25902328  0.47761792  0.85477080  1  0.040268  0.000205  -0.018997  0.033475  0.000155  3.948603  0.0
C  C243  1  0.24097774  0.52238291  0.35477132  1  0.040036  0.000205  -0.019009  0.033427  0.000155  3.948578  0.0
C  C244  1  0.79060409  0.95314126  0.07900867  1  0.459967  -0.0  -0.002993  0.236803  3e-06  3.911472  0.0
C  C245  1  0.70939776  0.04685863  0.57900802  1  0.460056  -0.0  -0.002948  0.236894  3e-06  3.911468  0.0
C  C246  1  0.29060478  0.54685883  0.92099139  1  0.460018  -0.0  -0.002993  0.236805  3e-06  3.911569  0.0
C  C247  1  0.20939695  0.45314214  0.42099058  1  0.459946  -0.0  -0.002963  0.23693  3e-06  3.911342  0.0
C  C248  1  0.70554894  0.87969315  0.06722245  1  -0.093245  0.000242  -0.245925  -0.42076  0.000184  3.903184  0.0
C  C249  1  0.79445292  0.12030741  0.56722189  1  -0.093275  0.000242  -0.245972  -0.420863  0.000184  3.903184  0.0
C  C250  1  0.20555048  0.62030758  0.93277642  1  -0.09337  0.000242  -0.245958  -0.420829  0.000184  3.903271  0.0
C  C251  1  0.29445125  0.37969412  0.43277728  1  -0.093061  0.000242  -0.24594  -0.420858  0.000184  3.903254  0.0
N  N252  1  0.99116326  0.08557663  0.81912774  1  -1.231418  0.109742  -0.417176  -0.41724  0.070106  3.632764  0.09
N  N253  1  0.50883524  0.91442311  0.31912601  1  -1.231242  0.109738  -0.417165  -0.417255  0.070106  3.632676  0.09
N  N254  1  0.49116107  0.41442297  0.18087378  1  -1.231897  0.109744  -0.417111  -0.417197  0.070107  3.632764  0.09
N  N255  1  0.00883541  0.58557606  0.68087482  1  -1.231882  0.109745  -0.417175  -0.417329  0.070108  3.632716  0.09
N  N256  1  0.86382677  0.25474036  0.93476015  1  -1.211132  0.111288  -0.412357  -0.399496  0.071267  3.631291  0.091
N  N257  1  0.63617241  0.74525894  0.43475928  1  -1.211145  0.111287  -0.412383  -0.39956  0.071267  3.631357  0.091
N  N258  1  0.36382843  0.24525705  0.06523960  1  -1.211121  0.111286  -0.412379  -0.399475  0.071266  3.631274  0.091
N  N259  1  0.13617128  0.75474242  0.56524147  1  -1.211172  0.111286  -0.412407  -0.39948  0.071266  3.631344  0.091
N  N260  1  0.43063944  0.05526038  0.50765978  1  -0.755877  0.046105  -0.296155  -0.260207  0.03106  3.595294  0.039
N  N261  1  0.06935876  0.94473756  0.00766115  1  -0.755878  0.046105  -0.296118  -0.26011  0.03106  3.595366  0.039
N  N262  1  0.93064384  0.44473778  0.49233870  1  -0.755675  0.046102  -0.296115  -0.260065  0.031059  3.595306  0.039
N  N263  1  0.56935371  0.55526375  0.99233903  1  -0.755606  0.046103  -0.2961  -0.260082  0.031059  3.595363  0.039
N  N264  1  0.39345591  0.02483544  0.58065302  1  -0.808281  0.002731  -0.283769  -0.133407  0.001369  3.66518  0.002
N  N265  1  0.10654144  0.97516476  0.08065319  1  -0.80807  0.002731  -0.283795  -0.133556  0.001369  3.66521  0.002
N  N266  1  0.89345806  0.47516339  0.41934732  1  -0.808238  0.002731  -0.283859  -0.133656  0.001369  3.665258  0.002
N  N267  1  0.60653957  0.52483728  0.91934758  1  -0.808939  0.002731  -0.283892  -0.133711  0.001369  3.665233  0.002
N  N268  1  0.70966163  0.34544466  0.68073979  1  -0.823627  0.003383  -0.28435  -0.134162  0.001733  3.687234  0.002
N  N269  1  0.79034012  0.65455128  0.18074175  1  -0.824006  0.003385  -0.284389  -0.134302  0.001734  3.687585  0.002
N  N270  1  0.20966063  0.15455193  0.31925697  1  -0.823992  0.003385  -0.284382  -0.134169  0.001733  3.687549  0.002
N  N271  1  0.29033963  0.84544672  0.81925830  1  -0.824005  0.003385  -0.284355  -0.134172  0.001734  3.687649  0.002
N  N272  1  0.68126970  0.31110081  0.75463478  1  -0.748794  0.050873  -0.296594  -0.254396  0.034312  3.599024  0.043
N  N273  1  0.81872729  0.68889808  0.25463555  1  -0.748368  0.050876  -0.29661  -0.254388  0.034315  3.599239  0.043
N  N274  1  0.18127192  0.18889785  0.24536323  1  -0.748561  0.050875  -0.29661  -0.254435  0.034314  3.599284  0.043
N  N275  1  0.31872997  0.81110203  0.74536510  1  -0.748446  0.050874  -0.296574  -0.254386  0.034313  3.599259  0.043
O  O276  1  0.10629453  0.93939466  0.82365105  1  -1.11474  0.103024  -0.313198  -0.530094  0.065211  2.352369  0.095
O  O277  1  0.39370965  0.06060679  0.32364822  1  -1.115241  0.103006  -0.313224  -0.530137  0.065202  2.352581  0.095
O  O278  1  0.60629023  0.56060529  0.17635218  1  -1.11522  0.103012  -0.313216  -0.530148  0.065206  2.352445  0.095
O  O279  1  0.89370918  0.43939482  0.67635151  1  -1.114855  0.103007  -0.313211  -0.530141  0.065202  2.35263  0.095
O  O280  1  0.12039464  0.92538547  0.68643931  1  -1.164507  0.034949  -0.308456  -0.53986  0.021878  2.266491  0.031
O  O281  1  0.37959791  0.07461010  0.18643343  1  -1.164219  0.034963  -0.308503  -0.53993  0.021886  2.266024  0.031
O  O282  1  0.62040041  0.57461171  0.31356637  1  -1.164222  0.034963  -0.308512  -0.539945  0.021886  2.26607  0.031
O  O283  1  0.87959731  0.42538871  0.81356569  1  -1.164229  0.034962  -0.308515  -0.539959  0.021886  2.266098  0.031
O  O284  1  0.96818153  0.12984997  0.97692382  1  -1.126257  0.111037  -0.311094  -0.485213  0.070689  2.279822  0.099
O  O285  1  0.53181917  0.87015082  0.47692323  1  -1.126236  0.111041  -0.311089  -0.485229  0.070691  2.279873  0.099
O  O286  1  0.46818023  0.37015100  0.02307709  1  -1.126487  0.111037  -0.311073  -0.485232  0.070689  2.279865  0.099
O  O287  1  0.03181952  0.62984977  0.52307819  1  -1.126422  0.111044  -0.311072  -0.485222  0.070693  2.279815  0.099
O  O288  1  0.86742032  0.19638902  0.78081328  1  -1.111654  0.11568  -0.310096  -0.480458  0.07342  2.289467  0.104
O  O289  1  0.63257822  0.80360785  0.28081252  1  -1.111608  0.11568  -0.310159  -0.480555  0.073421  2.289484  0.104
O  O290  1  0.36741642  0.30361048  0.21918646  1  -1.111597  0.115687  -0.310109  -0.48045  0.073424  2.289446  0.104
O  O291  1  0.13257846  0.69639073  0.71918701  1  -1.111689  0.115678  -0.31015  -0.480511  0.073419  2.289586  0.104
O  O292  1  0.71043370  0.39419043  0.07008712  1  -1.170169  0.027091  -0.3142  -0.544185  0.016715  2.219372  0.023
O  O293  1  0.78956737  0.60580805  0.57008557  1  -1.170099  0.02709  -0.314175  -0.544129  0.016715  2.219418  0.023
O  O294  1  0.21043523  0.10580616  0.92991210  1  -1.169838  0.027093  -0.314185  -0.544116  0.016715  2.219363  0.023
O  O295  1  0.28956650  0.89418926  0.42991202  1  -1.169983  0.027096  -0.31418  -0.54412  0.016718  2.219353  0.023
O  O296  1  0.69969035  0.35699414  0.93570630  1  -1.124734  0.09795  -0.317022  -0.540529  0.061973  2.355002  0.09
O  O297  1  0.80030726  0.64300586  0.43570393  1  -1.124777  0.097946  -0.317103  -0.540555  0.06197  2.355127  0.09
O  O298  1  0.19969192  0.14300593  0.06429231  1  -1.124735  0.097942  -0.317035  -0.540484  0.061968  2.35514  0.09
O  O299  1  0.30030858  0.85699354  0.56429366  1  -1.124748  0.097946  -0.317032  -0.540416  0.06197  2.355081  0.09
O  O300  1  0.80733182  0.99548520  0.00060121  1  -1.121261  -0.0001  -0.413812  -0.529842  -0.000174  2.257131  0.0
O  O301  1  0.69267009  0.00451382  0.50059866  1  -1.121302  -0.0001  -0.41384  -0.529894  -0.000174  2.257055  0.0
O  O302  1  0.30733397  0.50451630  0.99939945  1  -1.121319  -0.0001  -0.413794  -0.529851  -0.000174  2.257134  0.0
O  O303  1  0.19266769  0.49548555  0.49940057  1  -1.121286  -0.0001  -0.413795  -0.529864  -0.000174  2.257056  0.0
