# generated using pymatgen
data_Zr3H41C69O16
_symmetry_space_group_name_H-M   'P 1'
_cell_length_a   19.99952174
_cell_length_b   20.01808121
_cell_length_c   20.14784619
_cell_angle_alpha   92.71431368
_cell_angle_beta   91.94458448
_cell_angle_gamma   92.86756646
_symmetry_Int_Tables_number   1
_chemical_formula_structural   Zr3H41C69O16
_chemical_formula_sum   'Zr6 H82 C138 O32'
_cell_volume   8041.76353726
_cell_formula_units_Z   2
loop_
 _symmetry_equiv_pos_site_id
 _symmetry_equiv_pos_as_xyz
  1  'x, y, z'
loop_
 _atom_site_type_symbol
 _atom_site_label
 _atom_site_symmetry_multiplicity
 _atom_site_fract_x
 _atom_site_fract_y
 _atom_site_fract_z
 _atom_site_occupancy
 _atom_site_pbe_bader_charge
 _atom_site_pbe_bader_spin_density
 _atom_site_pbe_cm5_charge
 _atom_site_pbe_ddec_charge
 _atom_site_pbe_ddec_spin_density
 _atom_site_pbe_ddec_sum_bond_order
 _atom_site_pbe_magmom
Zr  Zr0  1  0.18756357  0.13351790  0.04079068  1  2.635238  0  1.621791  2.372644  0  2.76692  0
Zr  Zr1  1  0.22624381  0.99618980  0.13583977  1  2.6326  0  1.620929  2.371778  0  2.761776  0
Zr  Zr2  1  0.02132770  0.06761229  0.01538199  1  2.632077  0  1.622506  2.371676  0  2.76218  0
Zr  Zr3  1  0.09105933  0.09460483  0.17896461  1  2.630165  0  1.620455  2.372495  0  2.758379  0
Zr  Zr4  1  0.15582172  0.96843626  0.97292226  1  2.631174  0  1.625631  2.373208  0  2.774424  0
Zr  Zr5  1  0.05955211  0.92995892  0.11098282  1  2.630587  0  1.624767  2.372156  0  2.772704  0
H  H6  1  0.08556865  0.41025254  0.71340864  1  0.045974  0  0.101361  0.103863  0  1.011949  0
H  H7  1  0.09215483  0.62513119  0.73245827  1  0.048462  0  0.099186  0.096913  0  1.036119  0
H  H8  1  0.05815778  0.50846248  0.90357786  1  0.06261  0  0.099785  0.098356  0  1.029336  0
H  H9  1  0.19002321  0.55918303  0.25066038  1  0.064811  0  0.099678  0.09959  0  1.023702  0
H  H10  1  0.13944164  0.43790146  0.41466364  1  0.064296  0  0.099963  0.098737  0  1.030237  0
H  H11  1  0.14398493  0.65250101  0.43866219  1  0.077223  0  0.101131  0.103538  0  1.012188  0
H  H12  1  0.95569457  0.96672217  0.55899008  1  0.021998  0  0.100537  0.100344  0  1.020568  0
H  H13  1  0.77669111  0.98427417  0.66984431  1  0.078529  0  0.100473  0.099108  0  1.026823  0
H  H14  1  0.76508706  0.97796930  0.45587274  1  0.064975  0  0.101137  0.103238  0  1.012426  0
H  H15  1  0.29701975  0.08788842  0.59661424  1  0.06761  0  0.100031  0.099073  0  1.029097  0
H  H16  1  0.46424403  0.03477132  0.47918133  1  0.073984  0  0.100157  0.098756  0  1.031063  0
H  H17  1  0.48496451  0.04822115  0.69235890  1  0.08479  0  0.100914  0.102491  0  1.014297  0
H  H18  1  0.50092238  0.66818183  0.04387516  1  0.086855  0  0.100579  0.101922  0  1.013152  0
H  H19  1  0.71605125  0.69298657  0.04915721  1  0.059903  0  0.101025  0.101094  0  1.022739  0
H  H20  1  0.59603680  0.85960207  0.00724308  1  0.07763  0  0.10161  0.104605  0  1.011739  0
H  H21  1  0.74598945  0.39849193  0.10838636  1  0.085955  0  0.101365  0.103501  0  1.012532  0
H  H22  1  0.53121044  0.36987847  0.10200996  1  0.026277  0  0.100916  0.100994  0  1.024503  0
H  H23  1  0.65427598  0.20386158  0.13781592  1  0.039845  0  0.101636  0.10611  0  1.009712  0
H  H24  1  0.22965707  0.13375598  0.17638225  1  0.616347  0  0.33086  0.422886  0  0.857905  0
H  H25  1  0.11859530  0.08987863  0.91942721  1  0.616345  0  0.332228  0.425055  0  0.855156  0
H  H26  1  0.96659560  0.02951858  0.13699065  1  0.619509  0  0.330926  0.423851  0  0.856731  0
H  H27  1  0.17855840  0.87293309  0.07046396  1  0.623265  0  0.330609  0.423173  0  0.85798  0
H  H28  1  0.76261674  0.23210056  0.22867769  1  0.038543  0  0.100242  0.100609  0  0.999508  0
H  H29  1  0.80042774  0.30288081  0.03427917  1  0.083677  0  0.102447  0.103103  0  0.995467  0
H  H30  1  0.90565658  0.24132563  0.03207672  1  0.100859  0  0.10966  0.115484  0  0.990932  0
H  H31  1  0.87199824  0.17690682  0.22939034  1  0.090973  0  0.107317  0.110312  0  0.989671  0
H  H32  1  0.48056650  0.29019544  0.03454734  1  0.088785  0  0.100252  0.09898  0  1.005239  0
H  H33  1  0.55243876  0.17171315  0.19262701  1  0.053781  0  0.100628  0.100746  0  1.002813  0
H  H34  1  0.44623710  0.10078732  0.18264317  1  0.097636  0  0.106034  0.108525  0  0.991596  0
H  H35  1  0.37359068  0.22183443  0.02795340  1  0.091025  0  0.110338  0.116485  0  0.996306  0
H  H36  1  0.69799333  0.88697796  0.95017497  1  0.05757  0  0.100915  0.100678  0  1.002713  0
H  H37  1  0.76746278  0.77484136  0.11404180  1  0.044201  0  0.100043  0.098285  0  1.007621  0
H  H38  1  0.87504846  0.84214314  0.11863957  1  0.107389  0  0.108963  0.114407  0  0.998667  0
H  H39  1  0.80476622  0.95720886  0.95810714  1  0.06823  0  0.107266  0.110537  0  0.988872  0
H  H40  1  0.44885406  0.76477731  0.11454498  1  0.062067  0  0.102056  0.103549  0  0.997828  0
H  H41  1  0.48816611  0.83508471  0.92025287  1  0.065826  0  0.101721  0.102306  0  0.998681  0
H  H42  1  0.38071453  0.89369778  0.92017950  1  0.102275  0  0.10993  0.114008  0  0.983679  0
H  H43  1  0.34595932  0.82991783  0.11746157  1  0.085537  0  0.105428  0.107433  0  1.004036  0
H  H44  1  0.70098848  0.62015159  0.13147559  1  0.051116  0  0.099986  0.098784  0  1.005197  0
H  H45  1  0.53170228  0.56340388  0.99933433  1  0.05608  0  0.101677  0.102205  0  1.000055  0
H  H46  1  0.54457437  0.44506444  0.02269281  1  0.063421  0  0.100055  0.098717  0  1.005898  0
H  H47  1  0.71386379  0.50173608  0.15488170  1  0.047864  0  0.101739  0.10231  0  0.999659  0
H  H48  1  0.26989644  0.00840522  0.67714862  1  0.064214  0  0.101126  0.101265  0  1.002684  0
H  H49  1  0.42913759  0.13795270  0.76809140  1  0.062765  0  0.101787  0.103462  0  0.998065  0
H  H50  1  0.36743890  0.14352104  0.87378506  1  0.080165  0  0.107  0.109193  0  0.989653  0
H  H51  1  0.21119104  0.01019977  0.78389904  1  0.087424  0  0.107755  0.112827  0  0.997807  0
H  H52  1  0.41808133  0.07900704  0.40375966  1  0.032805  0  0.100749  0.098863  0  1.012342  0
H  H53  1  0.23779528  0.05837054  0.51461126  1  0.012056  0  0.099509  0.097856  0  1.014818  0
H  H54  1  0.16970070  0.06226883  0.41040989  1  0.073956  0  0.104938  0.105895  0  0.998662  0
H  H55  1  0.34947172  0.07316685  0.29948534  1  0.102459  0  0.106771  0.11002  0  0.998995  0
H  H56  1  0.98449502  0.90813910  0.65214156  1  0.03669  0  0.100858  0.101374  0  1.002587  0
H  H57  1  0.84783753  0.04792660  0.73294088  1  0.078988  0  0.102552  0.103153  0  1.004005  0
H  H58  1  0.91464923  0.05609735  0.83923934  1  0.105852  0  0.110699  0.116802  0  0.995964  0
H  H59  1  0.05265592  0.91920228  0.75839672  1  0.095889  0  0.106155  0.109105  0  0.994592  0
H  H60  1  0.83491688  0.89458471  0.38460495  1  0.043963  0  0.102023  0.103982  0  0.997027  0
H  H61  1  0.97163064  0.04783631  0.47584393  1  0.0394  0  0.10236  0.103743  0  0.998729  0
H  H62  1  0.03119187  0.05490853  0.36944750  1  0.082609  0  0.10928  0.114794  0  0.996805  0
H  H63  1  0.89802122  0.89865357  0.27969132  1  0.084138  0  0.106193  0.108963  0  0.993971  0
H  H64  1  0.68885846  0.05879246  0.48420041  1  0.058427  0  0.100996  0.100987  0  1.000999  0
H  H65  1  0.67294617  0.93270772  0.65098899  1  0.068528  0  0.101665  0.101495  0  1.001136  0
H  H66  1  0.55477368  0.95973070  0.66127873  1  0.057208  0  0.101599  0.101545  0  1.000577  0
H  H67  1  0.57070090  0.08562030  0.49441904  1  0.07025  0  0.100728  0.100013  0  1.00307  0
H  H68  1  0.27039460  0.66873377  0.27428908  1  0.06272  0  0.102046  0.103913  0  0.995067  0
H  H69  1  0.07177688  0.70258298  0.34018383  1  0.060313  0  0.101367  0.101934  0  0.99866  0
H  H70  1  0.07081043  0.80700433  0.27748030  1  0.061374  0  0.108925  0.115222  0  0.992576  0
H  H71  1  0.27182900  0.77707617  0.21757288  1  0.09476  0  0.103977  0.104851  0  1.00067  0
H  H72  1  0.18959824  0.36470879  0.36670769  1  0.063935  0  0.101388  0.099768  0  1.009556  0
H  H73  1  0.15326579  0.47482732  0.19108431  1  0.058595  0  0.100641  0.100319  0  1.01056  0
H  H74  1  0.15461473  0.36974499  0.12176004  1  0.04535  0  0.104875  0.106008  0  0.995807  0
H  H75  1  0.18061818  0.25935448  0.29802413  1  0.055693  0  0.107601  0.111893  0  0.991388  0
H  H76  1  0.07992406  0.59163631  0.96025939  1  0.057664  0  0.100062  0.0988  0  1.014416  0
H  H77  1  0.05535350  0.70201444  0.78265903  1  0.044761  0  0.100141  0.098307  0  1.013548  0
H  H78  1  0.06292500  0.80738957  0.85140065  1  0.106502  0  0.10724  0.11076  0  0.998078  0
H  H79  1  0.07761752  0.69687983  0.02863614  1  0.039898  0  0.106983  0.109967  0  0.989052  0
H  H80  1  0.99547035  0.33605082  0.78435511  1  0.053435  0  0.1025  0.104357  0  0.996815  0
H  H81  1  0.14939820  0.42915937  0.91749252  1  0.074241  0  0.102009  0.102612  0  0.999607  0
H  H82  1  0.15315488  0.32421478  0.97924738  1  0.086744  0  0.109344  0.114605  0  0.995267  0
H  H83  1  0.99582922  0.23284905  0.84973328  1  0.088472  0  0.106219  0.108045  0  0.992065  0
H  H84  1  0.16731820  0.44253544  0.63742546  1  0.069394  0  0.101606  0.101384  0  1.000659  0
H  H85  1  0.03726041  0.60734827  0.63031592  1  0.048993  0  0.099631  0.098836  0  1.005225  0
H  H86  1  0.06080636  0.61915393  0.51213339  1  0.06466  0  0.100042  0.098919  0  1.004257  0
H  H87  1  0.19085624  0.45438666  0.51925790  1  0.04735  0  0.10077  0.100016  0  1.004007  0
C  C88  1  0.07275054  0.45324874  0.81222758  1  0.012113  0  -0.008427  0.07559  0  4.041077  0
C  C89  1  0.08181478  0.45640412  0.74380364  1  -0.062288  0  -0.089438  -0.182497  0  3.934406  0
C  C90  1  0.08773472  0.51874335  0.71464653  1  -0.015916  0  -0.008348  0.079187  0  4.028202  0
C  C91  1  0.08365359  0.57727942  0.75509746  1  -0.011458  0  -0.08951  -0.178554  0  3.931947  0
C  C92  1  0.07246359  0.57558745  0.82346121  1  -0.072004  0  -0.009199  0.076213  0  4.026154  0
C  C93  1  0.06727775  0.51259666  0.85090308  1  -0.016836  0  -0.090719  -0.18142  0  3.944274  0
C  C94  1  0.16651487  0.61228691  0.34125387  1  -0.016474  0  -0.008405  0.077609  0  4.039887  0
C  C95  1  0.17649376  0.55412062  0.30218391  1  -0.059025  0  -0.089669  -0.180472  0  3.938075  0
C  C96  1  0.16682045  0.49033367  0.32744309  1  -0.013863  0  -0.00906  0.076802  0  4.02292  0
C  C97  1  0.14988921  0.48663849  0.39431819  1  -0.053298  0  -0.090173  -0.181837  0  3.93251  0
C  C98  1  0.14248343  0.54407571  0.43549500  1  0.002369  0  -0.00879  0.07913  0  4.031042  0
C  C99  1  0.14950707  0.60697094  0.40779283  1  -0.069989  0  -0.090845  -0.185672  0  3.939851  0
C  C100  1  0.86378237  0.97050737  0.50067124  1  0.023995  0  -0.009147  0.076709  0  4.035281  0
C  C101  1  0.90142567  0.96937586  0.56054963  1  -0.075592  0  -0.090393  -0.183735  0  3.944988  0
C  C102  1  0.87074589  0.97379103  0.62195179  1  -0.019542  0  -0.010197  0.075868  0  4.042093  0
C  C103  1  0.80116073  0.97950912  0.62243561  1  -0.065675  0  -0.089724  -0.180955  0  3.935744  0
C  C104  1  0.76230704  0.98154662  0.56340074  1  -0.023622  0  -0.007696  0.079742  0  4.030233  0
C  C105  1  0.79425078  0.97608756  0.50247415  1  -0.027972  0  -0.089138  -0.182172  0  3.930851  0
C  C106  1  0.38708892  0.06757257  0.65099202  1  -0.009955  0  -0.008576  0.076966  0  4.035029  0
C  C107  1  0.34869343  0.07387577  0.59228996  1  -0.051219  0  -0.090718  -0.182481  0  3.941089  0
C  C108  1  0.37534738  0.06352430  0.52943345  1  0.002424  0  -0.00943  0.076438  0  4.024667  0
C  C109  1  0.44266598  0.04697367  0.52690400  1  -0.073065  0  -0.090358  -0.180849  0  3.9308  0
C  C110  1  0.48297507  0.04221721  0.58462230  1  -0.044846  0  -0.008698  0.078177  0  4.028467  0
C  C111  1  0.45462877  0.05274346  0.64687709  1  -0.02376  0  -0.08888  -0.180211  0  3.929331  0
C  C112  1  0.54175846  0.76603679  0.02185519  1  -0.054791  0  -0.008607  0.077417  0  4.035853  0
C  C113  1  0.54668054  0.69906680  0.03793284  1  -0.066295  0  -0.089825  -0.184282  0  3.937894  0
C  C114  1  0.60941685  0.67185611  0.04785064  1  0.013558  0  -0.009336  0.079244  0  4.033794  0
C  C115  1  0.66704017  0.71385181  0.04297255  1  -0.062844  0  -0.09047  -0.183123  0  3.937454  0
C  C116  1  0.66344851  0.78151652  0.02848515  1  -0.010103  0  -0.0091  0.075754  0  4.032523  0
C  C117  1  0.60029219  0.80668787  0.01633238  1  -0.027859  0  -0.089777  -0.182918  0  3.93553  0
C  C118  1  0.70695864  0.29909085  0.12686267  1  0.005008  0  -0.007553  0.079868  0  4.030807  0
C  C119  1  0.70076091  0.36651950  0.11313906  1  -0.122349  0  -0.09048  -0.186347  0  3.938076  0
C  C120  1  0.63749918  0.39287875  0.10415556  1  0.013969  0  -0.008234  0.08165  0  4.035673  0
C  C121  1  0.58057193  0.34964540  0.10742901  1  -0.031324  0  -0.091141  -0.184534  0  3.942923  0
C  C122  1  0.58531377  0.28146747  0.11921338  1  -0.002204  0  -0.009783  0.074742  0  4.029766  0
C  C123  1  0.64903900  0.25705377  0.13059339  1  -0.004983  0  -0.089754  -0.184662  0  3.930504  0
C  C124  1  0.08054505  0.21080294  0.95620510  1  1.570126  0  0.235343  0.640188  0  4.106822  0
C  C125  1  0.33594969  0.12078221  0.10110968  1  1.564801  0  0.234274  0.636781  0  4.108032  0
C  C126  1  0.15789572  0.24178015  0.16727878  1  1.55734  0  0.234419  0.639528  0  4.105928  0
C  C127  1  0.24852707  0.07281153  0.89814224  1  1.552256  0  0.235337  0.641469  0  4.105501  0
C  C128  1  0.16561175  0.85744232  0.20189820  1  1.527852  0  0.235655  0.641057  0  4.103608  0
C  C129  1  0.91350536  0.94060454  0.04349179  1  1.550096  0  0.235309  0.640106  0  4.103261  0
C  C130  1  0.21701576  0.06054705  0.28318734  1  1.577606  0  0.234355  0.638799  0  4.107641  0
C  C131  1  0.29865394  0.90827048  0.02639613  1  1.552251  0  0.237007  0.643284  0  4.100042  0
C  C132  1  0.02643291  0.99658846  0.87011004  1  1.528202  0  0.232325  0.63373  0  4.114678  0
C  C133  1  0.95340046  0.16236532  0.12327445  1  1.547439  0  0.237237  0.645946  0  4.098314  0
C  C134  1  0.00414969  0.98575053  0.25551044  1  1.568808  0  0.234847  0.637974  0  4.109121  0
C  C135  1  0.08183725  0.82412623  0.98284146  1  1.54005  0  0.237029  0.643411  0  4.10228  0
C  C136  1  0.79470913  0.23517822  0.18608828  1  -0.045992  0  -0.092738  -0.138875  0  3.996503  0
C  C137  1  0.77380866  0.27042410  0.13111618  1  -0.048511  0  -0.004974  0.07307  0  4.001612  0
C  C138  1  0.81612237  0.27529880  0.07706748  1  -0.060733  0  -0.089748  -0.132026  0  3.988872  0
C  C139  1  0.87510738  0.24155945  0.07588542  1  -0.035347  0  -0.081864  -0.085402  0  3.978986  0
C  C140  1  0.89496376  0.20525025  0.13044661  1  -0.010942  0  -0.017071  -0.038898  0  3.974768  0
C  C141  1  0.85569647  0.20416875  0.18662027  1  0.000892  0  -0.083481  -0.09196  0  3.993588  0
C  C142  1  0.47278535  0.24973363  0.06829112  1  -0.101991  0  -0.091884  -0.135159  0  3.991399  0
C  C143  1  0.52377715  0.23709697  0.11524453  1  -0.037695  0  -0.000824  0.082405  0  3.984703  0
C  C144  1  0.51369746  0.18234868  0.15573113  1  -0.061901  0  -0.092677  -0.140451  0  3.980408  0
C  C145  1  0.45415362  0.14267914  0.15060369  1  -0.007308  0  -0.080887  -0.083373  0  3.983226  0
C  C146  1  0.40293497  0.15742566  0.10521796  1  -0.070997  0  -0.021057  -0.050252  0  3.976855  0
C  C147  1  0.41326058  0.21107617  0.06364376  1  0.02459  0  -0.081985  -0.080801  0  3.98645  0
C  C148  1  0.73634288  0.87771618  0.98796432  1  -0.046608  0  -0.091918  -0.139245  0  3.978011  0
C  C149  1  0.72549538  0.82497427  0.03073965  1  -0.072824  0  -0.001368  0.081442  0  3.989611  0
C  C150  1  0.77597168  0.81362431  0.07860964  1  0.016704  0  -0.09231  -0.135008  0  4.000991  0
C  C151  1  0.83579114  0.85171528  0.08208314  1  -0.08193  0  -0.083166  -0.082919  0  3.990082  0
C  C152  1  0.84681055  0.90350064  0.03844829  1  -0.011281  0  -0.020136  -0.049513  0  3.97438  0
C  C153  1  0.79618931  0.91691052  0.99189366  1  0.02781  0  -0.079433  -0.080997  0  3.97909  0
C  C154  1  0.43378624  0.79279199  0.07184277  1  -0.079043  0  -0.092435  -0.136931  0  3.996779  0
C  C155  1  0.47584473  0.79637682  0.01753147  1  -0.004823  0  -0.004012  0.076369  0  4.002222  0
C  C156  1  0.45604499  0.83266701  0.96286850  1  -0.011942  0  -0.092184  -0.139685  0  3.991975  0
C  C157  1  0.39616043  0.86560619  0.96267546  1  -0.101852  0  -0.081489  -0.088877  0  3.981809  0
C  C158  1  0.35709748  0.86544346  0.01896566  1  -0.030028  0  -0.017075  -0.036426  0  3.97285  0
C  C159  1  0.37613396  0.82856266  0.07340347  1  0.019303  0  -0.084186  -0.08907  0  3.993121  0
C  C160  1  0.66704100  0.58177787  0.10662118  1  -0.060381  0  -0.092855  -0.12797  0  3.999908  0
C  C161  1  0.61558261  0.60093020  0.06330894  1  -0.023061  0  -0.010097  0.065515  0  4.006098  0
C  C162  1  0.57114235  0.55030478  0.03440837  1  -0.074134  0  -0.092498  -0.128221  0  3.998695  0
C  C163  1  0.57847119  0.48342540  0.04765039  1  0.005783  0  -0.092733  -0.127726  0  3.999217  0
C  C164  1  0.63027511  0.46414690  0.09053421  1  -0.019351  0  -0.010015  0.065551  0  4.003095  0
C  C165  1  0.67435459  0.51487892  0.11988791  1  -0.058362  0  -0.092377  -0.128651  0  3.995763  0
C  C166  1  0.29110639  0.03844110  0.72007778  1  -0.015487  0  -0.092846  -0.137193  0  4.005394  0
C  C167  1  0.35354933  0.07310363  0.71520102  1  -0.077723  0  -0.004505  0.075811  0  4.000752  0
C  C168  1  0.38090987  0.11053092  0.77127401  1  0.028802  0  -0.091614  -0.139493  0  3.984722  0
C  C169  1  0.34645726  0.11392579  0.83045350  1  -0.1001  0  -0.081988  -0.087505  0  3.983287  0
C  C170  1  0.28532137  0.07753209  0.83513002  1  0.018381  0  -0.018514  -0.042105  0  3.972079  0
C  C171  1  0.25808042  0.03950850  0.77940678  1  -0.072458  0  -0.084397  -0.086201  0  3.993762  0
C  C172  1  0.36372937  0.07365707  0.40598230  1  -0.023217  0  -0.091087  -0.129738  0  3.992349  0
C  C173  1  0.33362855  0.06771911  0.46773151  1  0.024689  0  -0.003393  0.075776  0  3.983229  0
C  C174  1  0.26306826  0.06414830  0.46798569  1  0.041812  0  -0.091094  -0.133438  0  3.979845  0
C  C175  1  0.22424980  0.06555179  0.40932673  1  -0.035661  0  -0.083732  -0.090956  0  3.994552  0
C  C176  1  0.25526461  0.06757204  0.34819909  1  -0.117362  0  -0.01727  -0.037147  0  3.976872  0
C  C177  1  0.32544509  0.07178994  0.34719049  1  -0.039098  0  -0.083123  -0.088126  0  3.993132  0
C  C178  1  0.96944518  0.94134958  0.69284327  1  -0.023017  0  -0.092127  -0.138103  0  3.982206  0
C  C179  1  0.91100859  0.97700248  0.68493009  1  0.006396  0  -0.001877  0.080544  0  3.993475  0
C  C180  1  0.89184360  0.01838336  0.73859465  1  -0.108077  0  -0.092584  -0.138158  0  3.996258  0
C  C181  1  0.92934266  0.02377033  0.79787774  1  -0.014672  0  -0.082214  -0.080638  0  3.985152  0
C  C182  1  0.98768015  0.98826258  0.80538336  1  -0.029794  0  -0.02166  -0.051025  0  3.981035  0
C  C183  1  0.00750509  0.94697252  0.75228450  1  -0.019887  0  -0.082555  -0.087334  0  3.994536  0
C  C184  1  0.87841296  0.92927548  0.38151876  1  0.025179  0  -0.091543  -0.138281  0  3.98736  0
C  C185  1  0.89917823  0.97074975  0.43737629  1  -0.028744  0  -0.003866  0.078151  0  3.99881  0
C  C186  1  0.95566656  0.01487045  0.43295803  1  0.009936  0  -0.09233  -0.139156  0  3.998604  0
C  C187  1  0.98912299  0.01886833  0.37402116  1  -0.056635  0  -0.08248  -0.083372  0  3.986793  0
C  C188  1  0.96849379  0.97693644  0.31853964  1  -0.003919  0  -0.019465  -0.044981  0  3.978365  0
C  C189  1  0.91357389  0.93132109  0.32290867  1  -0.097196  0  -0.083948  -0.09132  0  3.991706  0
C  C190  1  0.65930305  0.03571705  0.52235427  1  -0.080195  0  -0.093289  -0.129306  0  3.998124  0
C  C191  1  0.69009143  0.99366951  0.56680816  1  0.041971  0  -0.010584  0.065431  0  4.002614  0
C  C192  1  0.65094439  0.96694509  0.61683716  1  -0.13754  0  -0.093014  -0.129569  0  4.001469  0
C  C193  1  0.58423420  0.98235934  0.62281224  1  -0.034197  0  -0.092415  -0.127927  0  4.000988  0
C  C194  1  0.55370227  0.02502577  0.57882096  1  -0.011896  0  -0.009536  0.066736  0  4.003181  0
C  C195  1  0.59259720  0.05103794  0.52825865  1  -0.009569  0  -0.093275  -0.128729  0  4.000325  0
C  C196  1  0.22711363  0.69979292  0.27611078  1  -0.031196  0  -0.093078  -0.140927  0  3.988462  0
C  C197  1  0.17086430  0.67823546  0.31083653  1  0.005864  0  -0.003509  0.078373  0  3.997156  0
C  C198  1  0.11571814  0.71902220  0.31346454  1  -0.11799  0  -0.091956  -0.138057  0  3.992767  0
C  C199  1  0.11510637  0.77743238  0.27892998  1  0.072697  0  -0.082078  -0.083519  0  3.982726  0
C  C200  1  0.17120785  0.79832479  0.24381873  1  -0.035921  0  -0.018846  -0.041154  0  3.977244  0
C  C201  1  0.22800816  0.76017220  0.24419760  1  -0.066281  0  -0.083865  -0.090762  0  3.995932  0
C  C202  1  0.18032872  0.36653752  0.31324848  1  -0.123307  0  -0.091319  -0.130075  0  3.990176  0
C  C203  1  0.17074768  0.42837793  0.28470347  1  -0.002992  0  -0.004184  0.074559  0  3.984395  0
C  C204  1  0.16220353  0.42822589  0.21501769  1  -0.013099  0  -0.091715  -0.135085  0  3.980308  0
C  C205  1  0.16207935  0.36899003  0.17561543  1  -0.016633  0  -0.083861  -0.09311  0  3.993763  0
C  C206  1  0.16737176  0.30763216  0.20535122  1  0.019501  0  -0.016073  -0.032411  0  3.969625  0
C  C207  1  0.17678550  0.30712476  0.27468987  1  0.001424  0  -0.083814  -0.090162  0  3.988372  0
C  C208  1  0.07380341  0.63825951  0.93547363  1  -0.012542  0  -0.091514  -0.132499  0  3.97671  0
C  C209  1  0.06880592  0.63801116  0.86549963  1  -0.014745  0  -0.004103  0.074676  0  3.982391  0
C  C210  1  0.06195535  0.70000361  0.83640107  1  -0.030164  0  -0.090582  -0.13096  0  3.990975  0
C  C211  1  0.06477394  0.75949075  0.87480192  1  -0.043079  0  -0.08137  -0.084102  0  3.986461  0
C  C212  1  0.07081890  0.75889577  0.94431720  1  0.053952  0  -0.016669  -0.034296  0  3.976528  0
C  C213  1  0.07323157  0.69755236  0.97455947  1  -0.073791  0  -0.083747  -0.095722  0  3.998088  0
C  C214  1  0.02968307  0.33361246  0.82742858  1  -0.040424  0  -0.091796  -0.139766  0  3.984378  0
C  C215  1  0.07214625  0.38963895  0.84682057  1  -0.009605  0  -0.002145  0.082067  0  3.994009  0
C  C216  1  0.11567571  0.38608921  0.90274309  1  -0.034648  0  -0.093005  -0.140527  0  3.999382  0
C  C217  1  0.11775559  0.32803304  0.93743484  1  -0.047247  0  -0.08234  -0.081906  0  3.985685  0
C  C218  1  0.07430615  0.27267678  0.91857281  1  -0.055821  0  -0.020352  -0.047329  0  3.980748  0
C  C219  1  0.02969198  0.27597136  0.86385965  1  -0.026406  0  -0.083033  -0.087639  0  3.987958  0
C  C220  1  0.14278872  0.48066857  0.60989221  1  -0.013285  0  -0.092585  -0.127701  0  3.997226  0
C  C221  1  0.10044184  0.52403536  0.64306935  1  -0.015098  0  -0.010345  0.065347  0  3.999351  0
C  C222  1  0.07174217  0.57408132  0.60634441  1  -0.062415  0  -0.093331  -0.129895  0  4.000876  0
C  C223  1  0.08502637  0.58075074  0.53954277  1  -0.060452  0  -0.092501  -0.12717  0  4.000628  0
C  C224  1  0.12754929  0.53752961  0.50638077  1  0.025745  0  -0.009655  0.066275  0  3.99937  0
C  C225  1  0.15607247  0.48739106  0.54309927  1  -0.083991  0  -0.092847  -0.127801  0  3.997339  0
O  O226  1  0.03126333  0.16872973  0.95953498  1  -1.187666  0  -0.333404  -0.601945  0  2.220619  0
O  O227  1  0.32565987  0.06621880  0.12969427  1  -1.179614  0  -0.33077  -0.599365  0  2.207891  0
O  O228  1  0.18221880  0.23242655  0.11044566  1  -1.17579  0  -0.331355  -0.600475  0  2.204452  0
O  O229  1  0.24788403  0.12153212  0.94061377  1  -1.172417  0  -0.329827  -0.597857  0  2.196829  0
O  O230  1  0.21772857  0.01520204  0.90268476  1  -1.183413  0  -0.383445  -0.641078  0  2.343078  0
O  O231  1  0.12413367  0.19761294  0.19871253  1  -1.172956  0  -0.378473  -0.638416  0  2.313261  0
O  O232  1  0.29116065  0.15081446  0.06789565  1  -1.184453  0  -0.384445  -0.643454  0  2.344811  0
O  O233  1  0.13934399  0.20530522  0.98281348  1  -1.184933  0  -0.380754  -0.639735  0  2.330533  0
O  O234  1  0.20647261  0.03292092  0.04351070  1  -1.199947  0  -0.792254  -1.150357  0  2.132412  0
O  O235  1  0.09411131  0.11548462  0.07920609  1  -1.201705  0  -0.790669  -1.150203  0  2.126761  0
O  O236  1  0.19915297  0.10494762  0.14808604  1  -1.246236  0  -0.694457  -1.069629  0  2.360277  0
O  O237  1  0.12059937  0.07359929  0.96397881  1  -1.246461  0  -0.695973  -1.06972  0  2.363085  0
O  O238  1  0.21617834  0.89658423  0.19315095  1  -1.173773  0  -0.336046  -0.604011  0  2.214982  0
O  O239  1  0.92365809  0.99589501  0.01604416  1  -1.178696  0  -0.333833  -0.602105  0  2.203232  0
O  O240  1  0.16100358  0.08682525  0.27531965  1  -1.176807  0  -0.33256  -0.602147  0  2.212147  0
O  O241  1  0.25757133  0.91539217  0.97819795  1  -1.180765  0  -0.333864  -0.599939  0  2.214468  0
O  O242  1  0.08155107  0.96862616  0.87835074  1  -1.177762  0  -0.332627  -0.601949  0  2.22272  0
O  O243  1  0.99308643  0.15350682  0.17223788  1  -1.171535  0  -0.335531  -0.601951  0  2.212539  0
O  O244  1  0.00462479  0.93793048  0.21176059  1  -1.19271  0  -0.336927  -0.604665  0  2.228466  0
O  O245  1  0.05847323  0.83319832  0.04019881  1  -1.177781  0  -0.334909  -0.601663  0  2.211583  0
O  O246  1  0.03192011  0.04456617  0.25082233  1  -1.183072  0  -0.376486  -0.634832  0  2.32866  0
O  O247  1  0.11785386  0.86724107  0.95245248  1  -1.189431  0  -0.378462  -0.63779  0  2.319837  0
O  O248  1  0.24713316  0.02680983  0.23827312  1  -1.189106  0  -0.378495  -0.636464  0  2.318274  0
O  O249  1  0.95692392  0.13537184  0.06430541  1  -1.184687  0  -0.377673  -0.638463  0  2.314364  0
O  O250  1  0.99941425  0.03433168  0.91403933  1  -1.183468  0  -0.380405  -0.639185  0  2.349878  0
O  O251  1  0.29536199  0.93514638  0.08544714  1  -1.180411  0  -0.379188  -0.635566  0  2.317119  0
O  O252  1  0.10653951  0.86237632  0.17590551  1  -1.179727  0  -0.377532  -0.637832  0  2.319047  0
O  O253  1  0.95756085  0.91131413  0.07820937  1  -1.186272  0  -0.383427  -0.641095  0  2.355443  0
O  O254  1  0.06762267  0.97796373  0.02248591  1  -1.199256  0  -0.793268  -1.150821  0  2.13442  0
O  O255  1  0.12621983  0.00058438  0.15876548  1  -1.200927  0  -0.791387  -1.150917  0  2.126036  0
O  O256  1  0.01112044  0.03040626  0.11934435  1  -1.25009  0  -0.693831  -1.069115  0  2.357085  0
O  O257  1  0.16349143  0.91824820  0.07159751  1  -1.25459  0  -0.694229  -1.071663  0  2.359281  0
