# generated using pymatgen
data_CuH2C8N3
_symmetry_space_group_name_H-M   'P 1'
_cell_length_a   35.37462387
_cell_length_b   35.77641967
_cell_length_c   35.76737340
_cell_angle_alpha   89.99842021
_cell_angle_beta   89.99324540
_cell_angle_gamma   89.99180617
_symmetry_Int_Tables_number   1
_chemical_formula_structural   CuH2C8N3
_chemical_formula_sum   'Cu12 H24 C96 N36'
_cell_volume   45266.37826354
_cell_formula_units_Z   12
loop_
 _symmetry_equiv_pos_site_id
 _symmetry_equiv_pos_as_xyz
  1  'x, y, z'
loop_
 _atom_site_type_symbol
 _atom_site_label
 _atom_site_symmetry_multiplicity
 _atom_site_fract_x
 _atom_site_fract_y
 _atom_site_fract_z
 _atom_site_occupancy
 _atom_site_pbe_bader_charge
 _atom_site_pbe_bader_spin_density
 _atom_site_pbe_cm5_charge
 _atom_site_pbe_ddec_charge
 _atom_site_pbe_ddec_spin_density
 _atom_site_pbe_ddec_sum_bond_order
 _atom_site_pbe_magmom
Cu  Cu0  1  0.37505297  0.59069598  0.65976547  1  0.554884  0  0.498184  0.217966  0  2.095669  0
Cu  Cu1  1  0.33830186  0.62636117  0.58730313  1  0.55394  0  0.49619  0.21889  0  2.079321  0
Cu  Cu2  1  0.41182340  0.66332962  0.62414093  1  0.553785  0  0.499855  0.218231  0  2.095527  0
Cu  Cu3  1  0.62475017  0.91005542  0.15940512  1  0.553807  0  0.500799  0.217303  0  2.108549  0
Cu  Cu4  1  0.66143647  0.87435130  0.08693025  1  0.555638  0  0.499758  0.218161  0  2.096899  0
Cu  Cu5  1  0.58787059  0.83771160  0.12362113  1  0.556073  0  0.498678  0.218048  0  2.090847  0
Cu  Cu6  1  0.87477335  0.40938335  0.84017458  1  0.556453  0  0.496867  0.218039  0  2.089547  0
Cu  Cu7  1  0.83777673  0.37357801  0.91260032  1  0.554761  0  0.49668  0.218628  0  2.081344  0
Cu  Cu8  1  0.91147562  0.33672992  0.87585652  1  0.552632  0  0.497847  0.218537  0  2.087041  0
Cu  Cu9  1  0.12501869  0.08989285  0.34047226  1  0.553487  0  0.499077  0.217227  0  2.099596  0
Cu  Cu10  1  0.16197918  0.12569993  0.41301218  1  0.554878  0  0.499437  0.218406  0  2.094182  0
Cu  Cu11  1  0.08824431  0.16228129  0.37624569  1  0.557126  0  0.49584  0.218641  0  2.077914  0
H  H12  1  0.31987085  0.52193056  0.67347681  1  0.133834  0  0.130968  0.12452  0  0.973516  0
H  H13  1  0.26929863  0.57007946  0.57407765  1  0.107872  0  0.13119  0.125237  0  0.973634  0
H  H14  1  0.48070271  0.67661624  0.68020937  1  0.121453  0  0.131225  0.12479  0  0.973835  0
H  H15  1  0.43037335  0.57711671  0.72836060  1  0.13752  0  0.131302  0.125199  0  0.972666  0
H  H16  1  0.32520715  0.68193117  0.51908719  1  0.117421  0  0.131055  0.124566  0  0.974603  0
H  H17  1  0.42498734  0.73158306  0.56892413  1  0.097108  0  0.13141  0.125838  0  0.973191  0
H  H18  1  0.68009453  0.97842547  0.17325261  1  0.130856  0  0.131262  0.124947  0  0.973297  0
H  H19  1  0.73051194  0.93023701  0.07375217  1  0.131681  0  0.131465  0.125393  0  0.973251  0
H  H20  1  0.51882587  0.82463848  0.17975875  1  0.107107  0  0.131287  0.125626  0  0.974535  0
H  H21  1  0.56958863  0.92384600  0.22803825  1  0.137462  0  0.131197  0.124958  0  0.973359  0
H  H22  1  0.67463248  0.81915322  0.01863151  1  0.111184  0  0.131102  0.124947  0  0.973734  0
H  H23  1  0.57461032  0.76957414  0.06814782  1  0.126099  0  0.131068  0.124918  0  0.974012  0
H  H24  1  0.81947509  0.47809860  0.82650515  1  0.133342  0  0.130848  0.124663  0  0.972999  0
H  H25  1  0.76873786  0.42976836  0.92573488  1  0.108626  0  0.131109  0.125048  0  0.973625  0
H  H26  1  0.98060846  0.32353187  0.81986807  1  0.122805  0  0.131297  0.125127  0  0.973565  0
H  H27  1  0.93035952  0.42304614  0.77166923  1  0.138842  0  0.131057  0.124794  0  0.973197  0
H  H28  1  0.82451816  0.31802041  0.98072145  1  0.116317  0  0.131044  0.124927  0  0.975368  0
H  H29  1  0.92448520  0.26842240  0.93114955  1  0.111184  0  0.13113  0.124832  0  0.97435  0
H  H30  1  0.18044296  0.02146849  0.32671784  1  0.130206  0  0.131149  0.124857  0  0.973943  0
H  H31  1  0.23100401  0.06975322  0.42604863  1  0.123895  0  0.131601  0.125853  0  0.972684  0
H  H32  1  0.01897770  0.17525157  0.32014558  1  0.112378  0  0.13131  0.125463  0  0.97517  0
H  H33  1  0.06967469  0.07597021  0.27191991  1  0.136961  0  0.131022  0.124903  0  0.973984  0
H  H34  1  0.17524487  0.18100886  0.48118687  1  0.102744  0  0.131293  0.125684  0  0.973143  0
H  H35  1  0.07516923  0.23055613  0.43177013  1  0.119868  0  0.130988  0.124782  0  0.973828  0
C  C36  1  0.31234977  0.53859397  0.64926791  1  0.435444  0  0.02455  -0.034584  0  3.911358  0
C  C37  1  0.28223293  0.53355849  0.62389416  1  0.067805  0  -0.02463  0.031858  0  4.199219  0
C  C38  1  0.28648820  0.56323119  0.59822582  1  0.477526  0  0.024622  -0.035786  0  3.91002  0
C  C39  1  0.46354448  0.65245900  0.68707089  1  0.454925  0  0.024835  -0.035468  0  3.911593  0
C  C40  1  0.46783564  0.62679916  0.71671123  1  0.110928  0  -0.024618  0.032733  0  4.204867  0
C  C41  1  0.43779912  0.60136015  0.71171433  1  0.424209  0  0.024752  -0.035908  0  3.911787  0
C  C42  1  0.34945850  0.68914872  0.53615892  1  0.459531  0  0.024307  -0.035677  0  3.913838  0
C  C43  1  0.37508609  0.71902725  0.53179366  1  0.136437  0  -0.024725  0.032714  0  4.206505  0
C  C44  1  0.40071798  0.71455163  0.56164972  1  0.474935  0  0.024018  -0.037823  0  3.914152  0
C  C45  1  0.68757950  0.96177767  0.14902291  1  0.427607  0  0.024858  -0.03469  0  3.912531  0
C  C46  1  0.71767466  0.96669815  0.12362720  1  0.11372  0  -0.024523  0.031957  0  4.206884  0
C  C47  1  0.71333738  0.93712527  0.09790083  1  0.437668  0  0.024988  -0.035332  0  3.911099  0
C  C48  1  0.53610298  0.84871655  0.18660367  1  0.433965  0  0.024459  -0.037268  0  3.913368  0
C  C49  1  0.53192678  0.87437199  0.21625798  1  0.111179  0  -0.024227  0.033256  0  4.205339  0
C  C50  1  0.56206465  0.89968089  0.21131966  1  0.447695  0  0.024726  -0.035126  0  3.912621  0
C  C51  1  0.65029500  0.81194517  0.03559969  1  0.469102  0  0.024623  -0.035962  0  3.912383  0
C  C52  1  0.62460582  0.78214463  0.03110179  1  0.114091  0  -0.024274  0.03324  0  4.204103  0
C  C53  1  0.59892205  0.78656809  0.06094287  1  0.443508  0  0.024361  -0.036406  0  3.91189  0
C  C54  1  0.81192326  0.46138921  0.85067525  1  0.459339  0  0.024536  -0.035065  0  3.911139  0
C  C55  1  0.78175371  0.46634981  0.87600982  1  0.127663  0  -0.024341  0.031919  0  4.199579  0
C  C56  1  0.78599638  0.43665344  0.90164329  1  0.411252  0  0.02477  -0.03556  0  3.909785  0
C  C57  1  0.96344350  0.34768783  0.81299450  1  0.455818  0  0.02441  -0.035657  0  3.910161  0
C  C58  1  0.96782747  0.37336764  0.78337254  1  0.120756  0  -0.024315  0.03257  0  4.20232  0
C  C59  1  0.93775396  0.39880028  0.78833176  1  0.412253  0  0.024019  -0.036064  0  3.912394  0
C  C60  1  0.84883829  0.31080219  0.96373579  1  0.449607  0  0.024621  -0.036502  0  3.914091  0
C  C61  1  0.87449032  0.28094359  0.96820522  1  0.17766  0  -0.025062  0.032089  0  4.203316  0
C  C62  1  0.90019745  0.28544529  0.93839579  1  0.423727  0  0.024325  -0.035946  0  3.913842  0
C  C63  1  0.18792129  0.03817146  0.35090658  1  0.425499  0  0.024406  -0.036109  0  3.91301  0
C  C64  1  0.21806428  0.03328113  0.37624332  1  0.168481  0  -0.024342  0.032905  0  4.208116  0
C  C65  1  0.21377420  0.06287401  0.40194294  1  0.43706  0  0.024306  -0.03698  0  3.913583  0
C  C66  1  0.03623131  0.15116112  0.31327902  1  0.436406  0  0.024491  -0.037337  0  3.912597  0
C  C67  1  0.03196982  0.12545444  0.28365347  1  0.113015  0  -0.024011  0.0335  0  4.20173  0
C  C68  1  0.06216504  0.10018074  0.28858741  1  0.439462  0  0.024764  -0.035714  0  3.913766  0
C  C69  1  0.15088300  0.18821450  0.46424577  1  0.447346  0  0.024041  -0.037549  0  3.913907  0
C  C70  1  0.12520907  0.21804095  0.46874651  1  0.121748  0  -0.024094  0.033355  0  4.203953  0
C  C71  1  0.09948364  0.21355004  0.43894739  1  0.481573  0  0.024577  -0.035819  0  3.911163  0
C  C72  1  0.84903686  0.09836397  0.12506958  1  1.198507  0  0.258002  0.434735  0  4.113229  0
C  C73  1  0.87504408  0.15025121  0.09933525  1  1.141732  0  0.258068  0.436701  0  4.107843  0
C  C74  1  0.90100075  0.12454278  0.15132847  1  1.19271  0  0.258006  0.437212  0  4.106873  0
C  C75  1  0.15127724  0.40113895  0.62516003  1  1.195574  0  0.258137  0.438541  0  4.103543  0
C  C76  1  0.12538170  0.34908465  0.59954486  1  1.165021  0  0.257943  0.435997  0  4.104263  0
C  C77  1  0.09931212  0.37484875  0.65146472  1  1.19272  0  0.258529  0.438007  0  4.104784  0
C  C78  1  0.34938152  0.90152596  0.37503633  1  1.190327  0  0.257862  0.436897  0  4.10998  0
C  C79  1  0.37544188  0.84966073  0.40074622  1  1.170118  0  0.257746  0.436529  0  4.110867  0
C  C80  1  0.40131139  0.87531314  0.34873316  1  1.197898  0  0.258164  0.437631  0  4.109996  0
C  C81  1  0.65092282  0.59888548  0.87500628  1  1.191049  0  0.257986  0.437806  0  4.105229  0
C  C82  1  0.59904031  0.62523989  0.84867823  1  1.191291  0  0.258472  0.437989  0  4.107748  0
C  C83  1  0.62504340  0.65095360  0.90059128  1  1.182011  0  0.257278  0.436846  0  4.107221  0
C  C84  1  0.74542061  0.99454068  0.12390015  1  -0.269862  0  -0.014853  -0.043963  0  4.076068  0
C  C85  1  0.76967647  0.01905183  0.12417830  1  0.138881  0  -0.038207  -0.05765  0  4.293413  0
C  C86  1  0.79640363  0.04583987  0.12450274  1  -0.328578  0  -0.012521  0.030389  0  4.256147  0
C  C87  1  0.82079006  0.07014933  0.12484639  1  0.128521  0  -0.009209  -0.11775  0  3.920929  0
C  C88  1  0.25457141  0.50553744  0.62414664  1  -0.26145  0  -0.014508  -0.044215  0  4.069069  0
C  C89  1  0.23041612  0.48089494  0.62437971  1  0.070048  0  -0.038345  -0.057278  0  4.286139  0
C  C90  1  0.20376170  0.45395496  0.62468666  1  -0.323344  0  -0.012363  0.030849  0  4.248096  0
C  C91  1  0.17948566  0.42949299  0.62490843  1  0.196908  0  -0.009154  -0.119365  0  3.912861  0
C  C92  1  0.24584347  0.00547240  0.37594472  1  -0.237072  0  -0.014819  -0.043723  0  4.076808  0
C  C93  1  0.27010823  0.98097062  0.37571149  1  0.042906  0  -0.038502  -0.058733  0  4.292803  0
C  C94  1  0.29682304  0.95414838  0.37544160  1  -0.371035  0  -0.012739  0.031519  0  4.255065  0
C  C95  1  0.32116157  0.92978518  0.37522103  1  0.236672  0  -0.009046  -0.119189  0  3.920982  0
C  C96  1  0.75406903  0.49434883  0.87578842  1  -0.228309  0  -0.014599  -0.043501  0  4.067222  0
C  C97  1  0.72988575  0.51896662  0.87549490  1  0.039116  0  -0.038742  -0.058739  0  4.285101  0
C  C98  1  0.70327530  0.54595651  0.87531526  1  -0.370683  0  -0.012503  0.03141  0  4.248102  0
C  C99  1  0.67907266  0.57049215  0.87522360  1  0.242098  0  -0.009232  -0.119429  0  3.914038  0
C  C100  1  0.00424062  0.12506729  0.25573520  1  -0.243768  0  -0.014752  -0.043797  0  4.069228  0
C  C101  1  0.97995808  0.12473660  0.23121636  1  0.12022  0  -0.038391  -0.057973  0  4.287028  0
C  C102  1  0.95332848  0.12464580  0.20426365  1  -0.325304  0  -0.012566  0.03056  0  4.251118  0
C  C103  1  0.92914803  0.12467208  0.17971203  1  0.128473  0  -0.009362  -0.118978  0  3.915827  0
C  C104  1  0.49551359  0.62654342  0.74464524  1  -0.263532  0  -0.014599  -0.043513  0  4.072443  0
C  C105  1  0.51981008  0.62624910  0.76913325  1  0.073208  0  -0.03855  -0.058639  0  4.289489  0
C  C106  1  0.54651794  0.62589100  0.79597846  1  -0.346283  0  -0.012479  0.031125  0  4.252548  0
C  C107  1  0.57085073  0.62551336  0.82036529  1  0.212389  0  -0.009262  -0.119147  0  3.918053  0
C  C108  1  0.99561551  0.37363901  0.75549839  1  -0.245275  0  -0.014405  -0.043318  0  4.069809  0
C  C109  1  0.01997801  0.37395254  0.73105114  1  0.061688  0  -0.038623  -0.058427  0  4.286921  0
C  C110  1  0.04673900  0.37431222  0.70421071  1  -0.376119  0  -0.012971  0.030136  0  4.250262  0
C  C111  1  0.07106827  0.37462013  0.67979119  1  0.242859  0  -0.008844  -0.11826  0  3.91402  0
C  C112  1  0.50428802  0.87468568  0.24420901  1  -0.248613  0  -0.014899  -0.044488  0  4.074596  0
C  C113  1  0.48009665  0.87498911  0.26878900  1  0.104297  0  -0.038152  -0.056835  0  4.291588  0
C  C114  1  0.45354908  0.87514073  0.29577654  1  -0.308002  0  -0.012724  0.029522  0  4.25564  0
C  C115  1  0.42942734  0.87515431  0.32036166  1  0.1242  0  -0.009401  -0.118487  0  3.919517  0
C  C116  1  0.87448469  0.25323581  0.99583467  1  -0.241752  0  -0.014525  -0.042936  0  4.069801  0
C  C117  1  0.87458329  0.22897103  0.02010045  1  0.040543  0  -0.038613  -0.058753  0  4.28821  0
C  C118  1  0.87475755  0.20241697  0.04682730  1  -0.251715  0  -0.012788  0.03037  0  4.252739  0
C  C119  1  0.87498611  0.17834183  0.07120775  1  0.090436  0  -0.008907  -0.1181  0  3.91707  0
C  C120  1  0.37515476  0.74670849  0.50417014  1  -0.239398  0  -0.0142  -0.042279  0  4.072127  0
C  C121  1  0.37528193  0.77097238  0.47992047  1  0.031697  0  -0.038701  -0.059503  0  4.290512  0
C  C122  1  0.37540733  0.79749239  0.45318824  1  -0.255145  0  -0.012506  0.031533  0  4.25327  0
C  C123  1  0.37546962  0.82159217  0.42884658  1  0.116843  0  -0.009004  -0.118978  0  3.918698  0
C  C124  1  0.62464385  0.75450534  0.00344313  1  -0.27682  0  -0.0148  -0.04417  0  4.073569  0
C  C125  1  0.62471872  0.73021471  0.97922191  1  0.131552  0  -0.038228  -0.057171  0  4.289573  0
C  C126  1  0.62483749  0.70348543  0.95269183  1  -0.344413  0  -0.01318  0.029317  0  4.254269  0
C  C127  1  0.62501989  0.67914750  0.92858563  1  0.204548  0  -0.008701  -0.118041  0  3.916361  0
C  C128  1  0.12528919  0.24571967  0.49640161  1  -0.262608  0  -0.014936  -0.043983  0  4.071515  0
C  C129  1  0.12536733  0.26999674  0.52065059  1  0.040034  0  -0.038321  -0.057799  0  4.287762  0
C  C130  1  0.12539719  0.29666401  0.54727417  1  -0.26219  0  -0.01235  0.030409  0  4.251986  0
C  C131  1  0.12542476  0.32090919  0.57149069  1  0.202788  0  -0.009777  -0.118617  0  3.914177  0
N  N132  1  0.31661259  0.58405392  0.60776241  1  -0.767468  0  -0.330852  -0.137326  0  3.761206  0
N  N133  1  0.33265468  0.56873958  0.63931053  1  -0.768652  0  -0.332624  -0.138277  0  3.770492  0
N  N134  1  0.41743838  0.61129387  0.68159899  1  -0.780057  0  -0.333286  -0.138084  0  3.769064  0
N  N135  1  0.43342131  0.64285670  0.66630357  1  -0.770609  0  -0.332544  -0.136583  0  3.768115  0
N  N136  1  0.39091557  0.68449055  0.58198507  1  -0.783795  0  -0.333054  -0.137264  0  3.770303  0
N  N137  1  0.35923153  0.66869389  0.56616700  1  -0.777469  0  -0.330341  -0.136745  0  3.762182  0
N  N138  1  0.68313424  0.91644695  0.10743323  1  -0.774716  0  -0.333207  -0.137605  0  3.769352  0
N  N139  1  0.66716010  0.93176308  0.13898541  1  -0.775685  0  -0.334047  -0.137701  0  3.776435  0
N  N140  1  0.58236185  0.88968014  0.18119233  1  -0.78881  0  -0.334053  -0.137657  0  3.77648  0
N  N141  1  0.56627250  0.85820417  0.16583933  1  -0.759241  0  -0.332076  -0.136633  0  3.766584  0
N  N142  1  0.60875483  0.81653186  0.08139893  1  -0.779103  0  -0.33172  -0.136213  0  3.766547  0
N  N143  1  0.64049806  0.83227496  0.06566483  1  -0.777725  0  -0.333152  -0.137441  0  3.771019  0
N  N144  1  0.81617140  0.41588463  0.89212494  1  -0.764555  0  -0.331204  -0.137263  0  3.762021  0
N  N145  1  0.83226529  0.43125662  0.86062562  1  -0.773386  0  -0.331816  -0.137726  0  3.766965  0
N  N146  1  0.91729650  0.38884623  0.81838996  1  -0.77574  0  -0.331787  -0.137726  0  3.765335  0
N  N147  1  0.93324465  0.35725548  0.83370554  1  -0.777182  0  -0.33115  -0.136722  0  3.762347  0
N  N148  1  0.89042684  0.31548950  0.91800365  1  -0.781914  0  -0.331746  -0.137292  0  3.767162  0
N  N149  1  0.85867196  0.33125236  0.93374314  1  -0.773022  0  -0.330845  -0.136546  0  3.762684  0
N  N150  1  0.18355517  0.08355849  0.39244674  1  -0.80739  0  -0.332504  -0.136977  0  3.769326  0
N  N151  1  0.16751028  0.06821745  0.36093277  1  -0.766371  0  -0.332861  -0.136452  0  3.770106  0
N  N152  1  0.08253346  0.11021994  0.31866133  1  -0.789123  0  -0.333464  -0.137771  0  3.77192  0
N  N153  1  0.06645736  0.14172715  0.33401442  1  -0.757678  0  -0.330704  -0.136526  0  3.75975  0
N  N154  1  0.10926040  0.18353269  0.41850649  1  -0.789016  0  -0.330419  -0.136659  0  3.76029  0
N  N155  1  0.14104125  0.16781977  0.43423453  1  -0.773755  0  -0.332693  -0.13722  0  3.77032  0
N  N156  1  0.84747094  0.12420826  0.09758420  1  -1.076526  0  -0.30392  -0.40051  0  3.0816  0
N  N157  1  0.90259231  0.15198753  0.12543249  1  -1.057695  0  -0.304004  -0.40214  0  3.080965  0
N  N158  1  0.87499074  0.09694874  0.15271938  1  -1.154915  0  -0.30413  -0.400978  0  3.082064  0
N  N159  1  0.15289870  0.37520837  0.59774596  1  -1.128414  0  -0.304012  -0.40182  0  3.078878  0
N  N160  1  0.09782178  0.34733721  0.62563709  1  -1.128422  0  -0.304304  -0.402128  0  3.080563  0
N  N161  1  0.12526132  0.40252537  0.65278852  1  -1.138067  0  -0.304147  -0.402638  0  3.079468  0
N  N162  1  0.34787289  0.87571439  0.40254778  1  -1.120902  0  -0.303864  -0.401298  0  3.082216  0
N  N163  1  0.40295464  0.84788265  0.37462134  1  -1.074207  0  -0.304078  -0.401967  0  3.081412  0
N  N164  1  0.37529427  0.90290138  0.34734379  1  -1.148873  0  -0.303874  -0.401922  0  3.082536  0
N  N165  1  0.62494496  0.59753045  0.84736284  1  -1.130883  0  -0.304145  -0.402251  0  3.08  0
N  N166  1  0.59751862  0.65275480  0.87448753  1  -1.145056  0  -0.303489  -0.401534  0  3.082353  0
N  N167  1  0.65253335  0.62480322  0.90242065  1  -1.135363  0  -0.304015  -0.402417  0  3.080236  0
