# generated using pymatgen
data_Cu3H16C16(NO6)2
_symmetry_space_group_name_H-M   'P 1'
_cell_length_a   7.63447618
_cell_length_b   7.18773309
_cell_length_c   17.67702467
_cell_angle_alpha   85.70805918
_cell_angle_beta   82.70555730
_cell_angle_gamma   87.39144009
_symmetry_Int_Tables_number   1
_chemical_formula_structural   Cu3H16C16(NO6)2
_chemical_formula_sum   'Cu6 H32 C32 N4 O24'
_cell_volume   958.83436723
_cell_formula_units_Z   2
loop_
 _symmetry_equiv_pos_site_id
 _symmetry_equiv_pos_as_xyz
  1  'x, y, z'
loop_
 _atom_site_type_symbol
 _atom_site_label
 _atom_site_symmetry_multiplicity
 _atom_site_fract_x
 _atom_site_fract_y
 _atom_site_fract_z
 _atom_site_occupancy
 _atom_site_hle17_ddec_charge
 _atom_site_hle17_ddec_spin_density
 _atom_site_hle17_ddec_sum_bond_order
 _atom_site_hle17_magmom
 _atom_site_hse06_10hf_ddec_charge
 _atom_site_hse06_10hf_ddec_spin_density
 _atom_site_hse06_10hf_ddec_sum_bond_order
 _atom_site_hse06_10hf_magmom
 _atom_site_hse06_ddec_charge
 _atom_site_hse06_ddec_spin_density
 _atom_site_hse06_ddec_sum_bond_order
 _atom_site_hse06_magmom
 _atom_site_pbe_cm5_charge
 _atom_site_pbe_ddec_charge
 _atom_site_pbe_ddec_spin_density
 _atom_site_pbe_ddec_sum_bond_order
 _atom_site_pbe_magmom
Cu  Cu0  1  0.17502161  0.23553327  0.38544175  1  0.929574  -0.72783  1.815496  -0.516  0.926959  -0.817584  2.218275  -0.641  1.028656  -0.898347  2.124469  -0.728  0.711871  0.870908  -0.753703  2.270138  -0.58
Cu  Cu1  1  0.82509412  0.76461031  0.61472914  1  0.929858  0.689085  1.817424  0.51  0.926474  0.789756  2.218822  0.637  1.027847  0.865135  2.125151  0.727  0.712022  0.870073  0.725405  2.270904  0.57
Cu  Cu2  1  0.99909106  0.50036572  0.50013925  1  1.040865  -0.758166  1.717751  -0.536  1.050023  -0.845846  2.11014  -0.663  1.137174  -0.919354  2.038949  -0.744  0.68841  0.992384  -0.777217  2.165517  -0.597
Cu  Cu3  1  0.20980434  0.87240247  0.03713722  1  0.94218  0.696219  1.74392  0.51  0.933118  0.784258  2.138838  0.627  1.023901  0.850651  2.068118  0.708  0.724019  0.872598  0.733814  2.193897  0.571
Cu  Cu4  1  0.79053108  0.12758675  0.96291277  1  0.94218  0.695591  1.74409  0.509  0.933414  0.784004  2.138797  0.626  1.023965  0.850712  2.068368  0.708  0.723966  0.872056  0.732282  2.194598  0.57
Cu  Cu5  1  0.50026921  0.50009989  0.00001827  1  1.084579  0.757883  1.655442  0.563  1.104337  0.848413  2.036868  0.689  1.186646  0.910257  1.978666  0.77  0.692404  1.048585  0.797971  2.083981  0.631
H  H6  1  0.36683358  0.52415148  0.45562104  1  0.424123  0.000167  0.881168  0.0  0.398976  0.000169  0.937042  0.0  0.40983  0.000155  0.921138  0.0  0.292822  0.391323  0.000156  0.948264  0.0
H  H7  1  0.63304810  0.47598454  0.54427677  1  0.423466  -5e-05  0.882289  0.0  0.398429  -4.3e-05  0.938019  0.0  0.409347  -3.6e-05  0.922024  0.0  0.292582  0.390984  -4e-05  0.94901  0.0
H  H8  1  0.41254165  0.32276814  0.49222260  1  0.438203  -7e-06  0.854956  0.0  0.415771  6e-05  0.904159  0.0  0.42677  3e-05  0.888174  0.0  0.296363  0.408316  8.2e-05  0.914971  0.0
H  H9  1  0.58857204  0.67734047  0.50732817  1  0.43974  -3.8e-05  0.852455  0.0  0.416914  -5.9e-05  0.902474  0.0  0.427922  -4e-05  0.886472  0.0  0.296558  0.40958  -7.1e-05  0.913148  0.0
H  H10  1  0.18032092  0.47659763  0.91003349  1  0.409433  -0.00012  0.893502  0.0  0.38215  -7.5e-05  0.953532  0.0  0.392163  -6.6e-05  0.938777  0.0  0.28181  0.374921  -6.3e-05  0.96417  0.0
H  H11  1  0.82011877  0.52341151  0.08997737  1  0.409107  -0.000119  0.893873  0.0  0.381975  -7.5e-05  0.953775  0.0  0.391967  -6.6e-05  0.93902  0.0  0.281943  0.375071  -6.3e-05  0.963944  0.0
H  H12  1  0.21904209  0.28916340  0.95515456  1  0.411939  -5.3e-05  0.894033  0.0  0.384647  2.7e-05  0.954568  0.0  0.395675  -1e-05  0.938071  0.0  0.281091  0.377116  7.7e-05  0.965963  0.0
H  H13  1  0.78143190  0.71090227  0.04489579  1  0.41176  -5.4e-05  0.894279  0.0  0.384478  2.6e-05  0.954843  0.0  0.395468  -1.1e-05  0.938383  0.0  0.280743  0.376417  7.5e-05  0.966888  0.0
H  H14  1  0.91522516  0.18431879  0.48012147  1  0.407072  0.001215  0.881062  0.004  0.386893  -0.000904  0.942332  0.0  0.39944  -0.000564  0.925161  0.0  0.279834  0.377876  -0.001176  0.954828  -0.001
H  H15  1  0.08524041  0.81604243  0.52035154  1  0.405185  -0.000816  0.884261  -0.001  0.385794  -0.000452  0.944031  0.0  0.398444  -0.000289  0.926635  0.0  0.278382  0.376974  -0.000564  0.956268  0.0
H  H16  1  0.19772417  0.53406997  0.06076729  1  0.397951  -0.000695  0.900551  -0.003  0.372861  0.001294  0.970078  0.001  0.385358  0.000788  0.952405  0.001  0.278395  0.364181  0.001705  0.9821  0.002
H  H17  1  0.80289857  0.46593987  0.93933854  1  0.397272  -0.000679  0.900597  -0.003  0.372426  0.001302  0.970463  0.001  0.384904  0.000797  0.952823  0.001  0.278756  0.3643  0.00171  0.981677  0.002
H  H18  1  0.88973129  0.95494230  0.34994225  1  0.12695  -9.6e-05  0.919659  0.0  0.137914  -0.000312  0.978649  0.0  0.142857  -0.000217  0.973949  0.0  0.120815  0.133687  -0.000394  0.983406  0.0
H  H19  1  0.10973750  0.04509007  0.65001099  1  0.127728  -0.000415  0.919245  0.0  0.138296  -0.000624  0.978594  0.0  0.143218  -0.000483  0.973905  0.0  0.121014  0.134  -0.000719  0.983055  0.0
H  H20  1  0.19515035  0.62507260  0.18234122  1  0.112715  0.001027  0.936787  0.002  0.121369  0.000946  0.997874  0.002  0.125332  0.000663  0.993457  0.001  0.127795  0.118422  0.001188  1.000717  0.002
H  H21  1  0.80445292  0.37471562  0.81777593  1  0.11293  0.001275  0.93657  0.002  0.121834  0.001131  0.997457  0.002  0.125816  0.000774  0.993018  0.001  0.127907  0.118635  0.001446  1.000602  0.002
H  H22  1  0.75879465  0.24122606  0.31065394  1  0.126679  0.000381  0.92789  0.001  0.151414  0.000252  0.979596  0.0  0.153206  0.000164  0.979421  0.0  0.097183  0.149615  0.00033  0.979032  0.001
H  H23  1  0.24046436  0.75861019  0.68911169  1  0.126731  0.000334  0.928139  0.001  0.151375  0.000247  0.979842  0.0  0.153174  0.000137  0.979631  0.0  0.096942  0.149382  0.00036  0.979977  0.001
H  H24  1  0.74971490  0.30441511  0.21100345  1  0.115582  -2.5e-05  0.965278  0.0  0.137008  -1.7e-05  1.024555  0.0  0.137045  6e-06  1.02627  0.0  0.09452  0.136826  -3.2e-05  1.02328  0.0
H  H25  1  0.25077882  0.69610283  0.78874203  1  0.114593  5.5e-05  0.966008  0.0  0.136427  1.6e-05  1.025053  0.0  0.136476  3.6e-05  1.026778  0.0  0.094356  0.136481  6e-06  1.023718  0.0
H  H26  1  0.92686158  0.37323710  0.25560996  1  0.127543  0.000211  0.97214  0.0  0.145798  0.000179  1.038838  0.0  0.147081  0.00017  1.038859  0.0  0.097438  0.145061  0.000192  1.039138  0.0
H  H27  1  0.07312322  0.62661975  0.74465344  1  0.12747  6.1e-05  0.971507  0.0  0.1457  1e-05  1.038325  0.0  0.146983  -1e-06  1.03837  0.0  0.097557  0.144891  4e-05  1.038951  0.0
H  H28  1  0.64562756  0.81689658  0.16855734  1  0.132447  0.000116  0.961389  0.0  0.141157  0.000187  1.020911  0.0  0.144735  0.000133  1.017768  0.0  0.11179  0.13859  0.000233  1.023856  0.0
H  H29  1  0.35414290  0.18284018  0.83138438  1  0.132275  0.000285  0.961915  0.0  0.141247  0.000126  1.021152  0.0  0.144824  7.7e-05  1.018008  0.0  0.111709  0.138428  0.00018  1.023626  0.0
H  H30  1  0.33302376  0.31863595  0.21895855  1  0.109286  -0.000724  0.925808  -0.001  0.116891  -0.000613  0.987825  -0.001  0.120515  -0.000468  0.984017  -0.001  0.127633  0.114078  -0.000701  0.991336  -0.001
H  H31  1  0.66741683  0.68155847  0.78100241  1  0.109413  0.000603  0.926214  0.001  0.11691  0.00057  0.988451  0.001  0.120519  0.000422  0.984655  0.001  0.127427  0.113789  0.000688  0.991647  0.001
H  H32  1  0.67691825  0.65007800  0.35681774  1  0.134263  -8.2e-05  0.942923  0.0  0.155051  -8.3e-05  1.000457  0.0  0.157131  -6.2e-05  0.999543  0.0  0.100224  0.152999  -0.000109  1.000588  0.0
H  H33  1  0.32281999  0.34956845  0.64303367  1  0.134359  0.000187  0.942658  0.0  0.155182  0.000152  1.000017  0.0  0.157237  0.00012  0.999148  0.0  0.100373  0.153308  0.000194  1.000316  0.0
H  H34  1  0.49131042  0.54844186  0.32987562  1  0.127632  1.5e-05  0.953241  0.0  0.146684  1.4e-05  1.016948  0.0  0.147429  -4e-06  1.017637  0.0  0.097318  0.145713  2.4e-05  1.016731  0.0
H  H35  1  0.50806394  0.45145497  0.67019271  1  0.128112  4.2e-05  0.952119  0.0  0.146974  -4e-06  1.015964  0.0  0.14772  -3e-06  1.016634  0.0  0.097619  0.146401  8e-06  1.015341  0.0
H  H36  1  0.67850465  0.58885827  0.26052261  1  0.113881  -0.000349  0.964507  0.0  0.137509  -0.000267  1.020694  0.0  0.13797  -0.000153  1.021889  0.0  0.093842  0.137412  -0.000379  1.019573  0.0
H  H37  1  0.32069470  0.41061481  0.73938914  1  0.114559  0.000382  0.963904  0.001  0.138157  0.000291  1.020099  0.0  0.138614  0.000177  1.021286  0.0  0.09416  0.137903  0.000414  1.019165  0.001
C  C38  1  0.02720785  0.05475973  0.16191277  1  0.053815  -0.001251  3.658946  -0.002  0.051078  0.000991  3.902509  0.0  0.054078  -0.000221  3.922517  -0.001  0.11547  0.048782  0.001929  3.890358  0.001
C  C39  1  0.97289396  0.94524268  0.83809530  1  0.053385  -0.003574  3.658436  -0.004  0.050358  7e-06  3.902384  -0.001  0.053378  -0.001092  3.922354  -0.002  0.115245  0.048821  0.000803  3.88973  0.0
C  C40  1  0.93893290  0.08406541  0.23500135  1  0.119215  0.004004  3.700517  0.004  0.138646  0.002249  3.946704  0.002  0.135906  0.002356  3.969988  0.002  0.014385  0.140341  0.002183  3.932854  0.002
C  C41  1  0.06095761  0.91598217  0.76495838  1  0.119977  0.005683  3.699968  0.006  0.139355  0.0028  3.946462  0.003  0.136585  0.00277  3.969812  0.003  0.014251  0.140241  0.002894  3.931537  0.003
C  C42  1  0.95241140  0.93877189  0.29169043  1  -0.072053  -0.005164  3.638956  -0.005  -0.114879  -0.002607  3.901229  -0.003  -0.109927  -0.002669  3.913789  -0.003  -0.056032  -0.119571  -0.002553  3.894594  -0.003
C  C43  1  0.04719118  0.06125629  0.70828192  1  -0.07316  -0.006736  3.638858  -0.006  -0.115962  -0.002778  3.901275  -0.002  -0.111038  -0.003167  3.913858  -0.003  -0.056091  -0.119244  -0.002448  3.893419  -0.001
C  C44  1  0.04735528  0.77311326  0.27522100  1  -0.090788  -0.005619  3.725848  -0.006  -0.068584  -0.004558  3.964657  -0.005  -0.07982  -0.002769  3.985008  -0.003  -0.005544  -0.061856  -0.005641  3.951086  -0.006
C  C45  1  0.95212550  0.22682429  0.72480160  1  -0.091302  0.006863  3.726262  0.008  -0.068715  0.003839  3.964928  0.005  -0.079916  0.00356  3.985212  0.005  -0.005518  -0.063015  0.004162  3.952496  0.005
C  C46  1  0.12235862  0.75146901  0.20002693  1  0.13975  -0.004258  3.639413  -0.005  0.100428  -0.000784  3.890054  -0.002  0.111829  -0.001965  3.90521  -0.003  0.06066  0.093474  0.000223  3.879462  -0.001
C  C47  1  0.87732601  0.24841925  0.80002985  1  0.13972  -0.006339  3.639006  -0.007  0.099965  -0.001286  3.88983  -0.003  0.111356  -0.002534  3.904921  -0.004  0.060185  0.093295  -0.000221  3.879859  -0.002
C  C48  1  0.04948032  0.19940613  0.09547147  1  0.631573  -0.002629  3.887523  -0.004  0.574436  0.000755  4.197881  0.0  0.610719  0.000493  4.189259  0.0  0.21625  0.549862  0.001152  4.203336  0.0
C  C49  1  0.95096439  0.80060366  0.90456852  1  0.63262  -0.002563  3.886793  -0.004  0.575512  0.000758  4.197334  0.0  0.611795  0.000509  4.188666  0.0  0.216231  0.55006  0.001134  4.20341  0.0
C  C50  1  0.83652097  0.25984818  0.25419594  1  -0.351291  0.00102  3.731827  0.001  -0.439383  0.000891  3.975833  0.001  -0.442077  0.000662  3.987275  0.001  -0.246996  -0.437556  0.00106  3.968225  0.001
C  C51  1  0.16339023  0.74023747  0.74571986  1  -0.34982  0.000813  3.731522  0.001  -0.438168  0.000689  3.975314  0.001  -0.440901  0.000399  3.986823  0.001  -0.246743  -0.436618  0.000956  3.968786  0.001
C  C52  1  0.07063631  0.62242341  0.33716808  1  0.65682  0.004846  3.864656  0.01  0.615113  -0.000676  4.154199  0.003  0.654184  -3.8e-05  4.149411  0.003  0.222732  0.587765  -0.00135  4.158353  0.003
C  C53  1  0.92858591  0.37758841  0.66294615  1  0.657713  0.000334  3.864972  0.0  0.615576  0.000328  4.154998  0.0  0.65456  0.000247  4.150329  0.0  0.223399  0.589874  0.000441  4.15722  0.0
C  C54  1  0.41515923  0.94934156  0.33406147  1  0.032857  0.002649  3.681653  0.003  0.029167  0.000966  3.929794  0.002  0.032618  0.001346  3.949322  0.002  0.106647  0.025333  0.000877  3.918898  0.001
C  C55  1  0.58468028  0.05058434  0.66586791  1  0.032507  -0.004003  3.680671  -0.004  0.02912  -0.000293  3.92841  -0.001  0.032612  -0.001056  3.947931  -0.002  0.106863  0.02538  0.000277  3.918335  0.0
C  C56  1  0.52435138  0.83445930  0.28552751  1  0.124083  -0.00239  3.686362  -0.002  0.145993  -0.001369  3.924104  -0.001  0.14342  -0.001631  3.947196  -0.002  0.013964  0.147733  -0.001139  3.910825  -0.001
C  C57  1  0.47535644  0.16534123  0.71442177  1  0.124679  0.004192  3.685503  0.004  0.146233  0.001693  3.923727  0.002  0.143633  0.001767  3.946827  0.002  0.013772  0.147855  0.001774  3.910291  0.002
C  C58  1  0.56451730  0.90291385  0.20911109  1  -0.066433  0.004387  3.604998  0.004  -0.098145  0.002983  3.841675  0.003  -0.092892  0.002765  3.857123  0.003  -0.058879  -0.102086  0.003285  3.832217  0.003
C  C59  1  0.43533507  0.09691154  0.79083804  1  -0.066338  -0.006482  3.605534  -0.006  -0.098462  -0.001906  3.842504  -0.002  -0.093171  -0.002273  3.857934  -0.002  -0.058446  -0.101575  -0.001608  3.83197  -0.002
C  C60  1  0.49876920  0.07755188  0.18402308  1  -0.086526  0.009233  3.731106  0.01  -0.065556  0.005316  3.969827  0.006  -0.078306  0.002877  3.990377  0.004  -0.005645  -0.058076  0.007219  3.957467  0.008
C  C61  1  0.50133199  0.92241692  0.81593997  1  -0.085684  0.02075  3.731444  0.023  -0.064381  0.011446  3.970152  0.014  -0.077152  0.008576  3.990739  0.011  -0.005769  -0.058085  0.013715  3.957479  0.016
C  C62  1  0.38904702  0.18209025  0.23582830  1  0.13129  0.004181  3.651087  0.005  0.09072  0.00172  3.912503  0.003  0.101715  0.002244  3.928841  0.003  0.056997  0.083268  0.00126  3.902688  0.002
C  C63  1  0.61118055  0.81800300  0.76412875  1  0.130805  -0.00532  3.650538  -0.006  0.089889  -0.000559  3.912454  -0.001  0.100898  -0.001578  3.928858  -0.002  0.057137  0.083537  0.000242  3.901221  0.0
C  C64  1  0.35267405  0.89754170  0.41690147  1  0.631712  0.003617  3.884593  0.006  0.579332  -0.000172  4.187799  0.001  0.614407  -0.000119  4.18252  0.001  0.218162  0.555466  -0.000233  4.191981  0.001
C  C65  1  0.64711507  0.10248813  0.58303604  1  0.632486  -0.003847  3.885363  -0.006  0.580436  0.000107  4.188274  -0.001  0.615558  5.1e-05  4.182888  -0.001  0.218196  0.556166  0.000216  4.192228  -0.002
C  C66  1  0.59711515  0.64530709  0.30963733  1  -0.345135  -0.000706  3.700172  -0.001  -0.426937  -0.000666  3.930268  -0.001  -0.429474  -0.000428  3.941578  0.0  -0.243937  -0.424395  -0.000885  3.922243  -0.001
C  C67  1  0.40235671  0.35438331  0.69030054  1  -0.345938  0.000914  3.699188  0.001  -0.427625  0.000836  3.929688  0.001  -0.430156  0.000526  3.941019  0.001  -0.24424  -0.425705  0.001131  3.922545  0.001
C  C68  1  0.54847132  0.15681172  0.10350415  1  0.650663  -0.004733  3.883836  -0.009  0.606279  0.001502  4.185617  -0.001  0.646947  0.000686  4.177453  -0.001  0.221227  0.577821  0.00243  4.191949  -0.001
C  C69  1  0.45176236  0.84315437  0.89645709  1  0.649995  -0.003966  3.885222  -0.008  0.605246  0.002228  4.187524  0.0  0.645942  0.001187  4.179327  0.0  0.221239  0.578391  0.003343  4.19104  0.0
N  N70  1  0.11047651  0.88953443  0.14585104  1  -0.316792  0.072867  3.37792  0.093  -0.275177  0.056838  3.67724  0.077  -0.305306  0.047682  3.697587  0.068  -0.347643  -0.257292  0.060929  3.666253  0.079
N  N71  1  0.88953753  0.11039701  0.85419337  1  -0.317134  0.073559  3.378781  0.094  -0.275177  0.056694  3.678106  0.077  -0.305198  0.047758  3.698387  0.069  -0.347407  -0.25712  0.060509  3.666363  0.079
N  N72  1  0.34922946  0.11782288  0.30855795  1  -0.334107  -0.049998  3.4  -0.061  -0.295458  -0.039411  3.712008  -0.052  -0.325156  -0.033759  3.73001  -0.046  -0.35099  -0.278652  -0.041556  3.701523  -0.053
N  N73  1  0.65086135  0.88219082  0.69136820  1  -0.333309  0.051806  3.400381  0.066  -0.294867  0.039385  3.712641  0.053  -0.324682  0.03312  3.730673  0.047  -0.351384  -0.278197  0.042554  3.702516  0.055
O  O74  1  0.33171756  0.39290732  0.46034517  1  -0.889367  0.003658  1.898172  0.002  -0.864118  0.002915  2.100032  0.002  -0.887017  0.002885  2.057182  0.002  -0.603951  -0.848375  0.002761  2.128299  0.002
O  O75  1  0.66928126  0.60689288  0.53917533  1  -0.889918  -0.001584  1.898544  -0.002  -0.864559  -0.000958  2.100472  -0.001  -0.887532  -0.000819  2.05751  -0.001  -0.603004  -0.849066  -0.001028  2.12889  -0.001
O  O76  1  0.27476141  0.38093339  0.91602160  1  -0.834119  0.001788  1.788387  0.004  -0.797754  0.000651  1.946139  0.002  -0.81509  -0.000246  1.912703  0.001  -0.601465  -0.784238  0.002147  1.969369  0.004
O  O77  1  0.72565729  0.61903117  0.08397121  1  -0.833707  0.001742  1.789751  0.004  -0.797497  0.000636  1.947172  0.002  -0.814722  -0.000253  1.91388  0.001  -0.601177  -0.78376  0.002106  1.970158  0.004
O  O78  1  0.95216418  0.29017321  0.44394639  1  -0.830759  -0.232035  1.843738  -0.292  -0.866519  -0.129236  2.155254  -0.176  -0.935063  -0.097591  2.124802  -0.139  -0.595071  -0.821371  -0.147145  2.175249  -0.194
O  O79  1  0.04852655  0.71019767  0.55653695  1  -0.844357  0.033904  1.845032  0.046  -0.870394  0.010561  2.150704  0.016  -0.936903  0.006264  2.11935  0.011  -0.597991  -0.826785  0.012087  2.171478  0.018
O  O80  1  0.29577469  0.62106258  0.05440321  1  -0.870841  0.205031  1.92227  0.274  -0.898197  0.119191  2.252444  0.171  -0.959176  0.090227  2.219084  0.137  -0.597675  -0.855569  0.138318  2.276469  0.191
O  O81  1  0.70478162  0.37902521  0.94569283  1  -0.870343  0.204624  1.922155  0.273  -0.898011  0.118938  2.252551  0.171  -0.958895  0.090059  2.219235  0.137  -0.598105  -0.855573  0.137899  2.276265  0.19
O  O82  1  0.11395402  0.13485359  0.03079385  1  -0.630602  0.062256  2.149514  0.086  -0.59749  0.046849  2.447523  0.07  -0.639347  0.036777  2.434483  0.058  -0.315807  -0.569126  0.053003  2.457497  0.075
O  O83  1  0.88662840  0.86519698  0.96926156  1  -0.631129  0.062122  2.149468  0.085  -0.597928  0.046834  2.447107  0.07  -0.639787  0.036783  2.434185  0.058  -0.315564  -0.569021  0.052846  2.457295  0.075
O  O84  1  0.01343698  0.36839864  0.10441512  1  -0.576906  0.013337  1.986214  0.017  -0.511042  0.008559  2.202365  0.012  -0.536053  0.004516  2.192537  0.007  -0.285372  -0.493454  0.012926  2.20815  0.017
O  O85  1  0.98710649  0.63166059  0.89561597  1  -0.577433  0.013124  1.987219  0.017  -0.511324  0.008454  2.203196  0.012  -0.536299  0.004446  2.193346  0.006  -0.285487  -0.49375  0.012758  2.208053  0.017
O  O86  1  0.00971393  0.66327454  0.40420161  1  -0.581514  -0.062937  2.102523  -0.083  -0.545229  -0.044022  2.372251  -0.064  -0.582643  -0.034241  2.360547  -0.052  -0.304506  -0.51901  -0.050291  2.380603  -0.07
O  O87  1  0.98897511  0.33678998  0.59584764  1  -0.582254  -0.062002  2.103843  -0.081  -0.54541  -0.043544  2.374029  -0.062  -0.58295  -0.034743  2.362741  -0.052  -0.304208  -0.519475  -0.048848  2.381681  -0.067
O  O88  1  0.15082785  0.47128644  0.31668795  1  -0.602408  -0.059001  2.091315  -0.077  -0.564142  -0.045004  2.363687  -0.065  -0.606659  -0.035087  2.353722  -0.053  -0.309352  -0.536367  -0.050863  2.369787  -0.071
O  O89  1  0.84880441  0.52883215  0.68354518  1  -0.601646  0.060653  2.091332  0.082  -0.564056  0.045552  2.364108  0.066  -0.606733  0.035776  2.354358  0.055  -0.309355  -0.53683  0.051701  2.369804  0.072
O  O90  1  0.22615671  0.00156500  0.44840671  1  -0.570842  -0.086556  2.028143  -0.114  -0.531837  -0.061473  2.290482  -0.089  -0.573675  -0.04749  2.278931  -0.072  -0.307182  -0.506482  -0.069192  2.297317  -0.097
O  O91  1  0.77340499  0.99824940  0.55146318  1  -0.57006  0.08457  2.026258  0.116  -0.532163  0.059761  2.288695  0.089  -0.57402  0.045587  2.277129  0.072  -0.306807  -0.506485  0.068254  2.296336  0.097
O  O92  1  0.42091114  0.75865354  0.45096177  1  -0.590747  -0.014869  2.025745  -0.019  -0.530225  -0.007765  2.236733  -0.011  -0.556987  -0.003566  2.226689  -0.005  -0.292724  -0.510843  -0.01246  2.243971  -0.017
O  O93  1  0.57913358  0.24160038  0.54906361  1  -0.590589  0.014688  2.028018  0.019  -0.530476  0.007701  2.238955  0.011  -0.557243  0.003512  2.228876  0.005  -0.292813  -0.511087  0.012599  2.244452  0.017
O  O94  1  0.68987716  0.08485662  0.06892336  1  -0.581337  0.068139  2.109421  0.093  -0.546813  0.046271  2.393683  0.069  -0.588961  0.03593  2.383596  0.056  -0.315524  -0.517505  0.052474  2.401788  0.075
O  O95  1  0.31025682  0.91490760  0.93105858  1  -0.580907  0.069445  2.109349  0.095  -0.546277  0.04693  2.39415  0.07  -0.588431  0.036388  2.384027  0.057  -0.315831  -0.518194  0.053448  2.40094  0.076
O  O96  1  0.44782470  0.28560943  0.07889269  1  -0.593833  0.056329  2.12059  0.077  -0.561216  0.038831  2.399126  0.057  -0.598097  0.028603  2.38771  0.044  -0.306209  -0.535395  0.045969  2.407131  0.064
O  O97  1  0.55253162  0.71450690  0.92107529  1  -0.593875  0.056618  2.120868  0.077  -0.561266  0.038939  2.399798  0.057  -0.59805  0.028772  2.388253  0.044  -0.306165  -0.535944  0.04612  2.407335  0.064
