# generated using pymatgen
data_SnH11C5SNO2
_symmetry_space_group_name_H-M   'P 1'
_cell_length_a   9.62029881
_cell_length_b   10.58672241
_cell_length_c   11.00568105
_cell_angle_alpha   89.99974219
_cell_angle_beta   89.99996983
_cell_angle_gamma   90.00005149
_symmetry_Int_Tables_number   1
_chemical_formula_structural   SnH11C5SNO2
_chemical_formula_sum   'Sn4 H44 C20 S4 N4 O8'
_cell_volume   1120.90036341
_cell_formula_units_Z   4
loop_
 _symmetry_equiv_pos_site_id
 _symmetry_equiv_pos_as_xyz
  1  'x, y, z'
loop_
 _atom_site_type_symbol
 _atom_site_label
 _atom_site_symmetry_multiplicity
 _atom_site_fract_x
 _atom_site_fract_y
 _atom_site_fract_z
 _atom_site_occupancy
 _atom_site_pbe_bader_spin_density
 _atom_site_pbe_cm5_charge
 _atom_site_pbe_ddec_charge
 _atom_site_pbe_ddec_spin_density
 _atom_site_pbe_ddec_sum_bond_order
 _atom_site_pbe_magmom
Sn  Sn0  1  0.08872053  0.05909776  0.75484728  1  0  0.524133  1.097122  0  3.448444  0
Sn  Sn1  1  0.41127242  0.94090174  0.25485263  1  0  0.524103  1.0971  0  3.448351  0
Sn  Sn2  1  0.91127630  0.55909235  0.74514557  1  0  0.524084  1.097104  0  3.448379  0
Sn  Sn3  1  0.58872197  0.44090289  0.24515503  1  0  0.52416  1.097157  0  3.448255  0
H  H4  1  0.21598906  0.28849665  0.68075320  1  0  0.302594  0.289977  0  0.951635  0
H  H5  1  0.28401225  0.71150414  0.18075142  1  0  0.302582  0.289857  0  0.951789  0
H  H6  1  0.78401319  0.78849457  0.81924684  1  0  0.302594  0.289912  0  0.951723  0
H  H7  1  0.71598816  0.21150316  0.31924723  1  0  0.302574  0.289898  0  0.951723  0
H  H8  1  0.29208334  0.17521820  0.59396007  1  0  0.289435  0.295729  0  1.007977  0
H  H9  1  0.20791802  0.82478394  0.09395784  1  0  0.289446  0.295784  0  1.007913  0
H  H10  1  0.70791984  0.67521564  0.90603864  1  0  0.28945  0.295761  0  1.00799  0
H  H11  1  0.79208665  0.32477979  0.40603942  1  0  0.28944  0.295721  0  1.007993  0
H  H12  1  0.17571491  0.28458001  0.45102005  1  0  0.105989  0.075407  0  1.002457  0
H  H13  1  0.32429143  0.71542423  0.95102177  1  0  0.106013  0.07546  0  1.00246  0
H  H14  1  0.82428764  0.78457262  0.04897738  1  0  0.105963  0.075399  0  1.002368  0
H  H15  1  0.67571595  0.21541977  0.54897859  1  0  0.105995  0.075385  0  1.002489  0
H  H16  1  0.09459987  0.06440608  0.44573600  1  0  0.09963  0.111246  0  0.982622  0
H  H17  1  0.40539816  0.93560196  0.94573583  1  0  0.09965  0.111217  0  0.982583  0
H  H18  1  0.90540248  0.56439968  0.05426419  1  0  0.099649  0.111228  0  0.982549  0
H  H19  1  0.59460215  0.43559552  0.55426540  1  0  0.099669  0.111255  0  0.982644  0
H  H20  1  0.95832258  0.16858799  0.40451232  1  0  0.100737  0.114752  0  0.987095  0
H  H21  1  0.54168080  0.83142162  0.90451458  1  0  0.100731  0.11475  0  0.987109  0
H  H22  1  0.04168402  0.66858349  0.09548015  1  0  0.100745  0.11476  0  0.98714  0
H  H23  1  0.45832462  0.33140920  0.59548800  1  0  0.100726  0.114757  0  0.987071  0
H  H24  1  0.98085087  0.24578355  0.89162422  1  0  0.087042  0.170563  0  1.053727  0
H  H25  1  0.51914212  0.75421573  0.39162691  1  0  0.086984  0.170427  0  1.05391  0
H  H26  1  0.01914302  0.74578463  0.60837783  1  0  0.086979  0.17042  0  1.053922  0
H  H27  1  0.48085002  0.25421650  0.10838064  1  0  0.087019  0.170502  0  1.053759  0
H  H28  1  0.16493235  0.25263042  0.90554811  1  0  0.083892  0.168396  0  1.042493  0
H  H29  1  0.33506051  0.74736647  0.40555341  1  0  0.083917  0.168419  0  1.042357  0
H  H30  1  0.83506155  0.75263227  0.59444937  1  0  0.08391  0.168419  0  1.04239  0
H  H31  1  0.66493058  0.24737029  0.09445236  1  0  0.083886  0.16837  0  1.042473  0
H  H32  1  0.06919927  0.13392300  0.98793947  1  0  0.08679  0.179202  0  1.050281  0
H  H33  1  0.43079457  0.86607350  0.48794513  1  0  0.086801  0.1792  0  1.050361  0
H  H34  1  0.93079659  0.63392910  0.51205397  1  0  0.086805  0.179205  0  1.050317  0
H  H35  1  0.56919559  0.36607574  0.01206195  1  0  0.0868  0.179219  0  1.050273  0
H  H36  1  0.22653685  0.88116369  0.62720958  1  0  0.089682  0.176121  0  1.032684  0
H  H37  1  0.27346138  0.11883452  0.12721035  1  0  0.089701  0.176164  0  1.032657  0
H  H38  1  0.77346030  0.38116251  0.87279097  1  0  0.089695  0.176151  0  1.032655  0
H  H39  1  0.72654206  0.61883685  0.37278779  1  0  0.089695  0.176165  0  1.032668  0
H  H40  1  0.24059560  0.84501427  0.78565419  1  0  0.083147  0.163077  0  1.076216  0
H  H41  1  0.25939837  0.15498792  0.28565481  1  0  0.083178  0.163105  0  1.076186  0
H  H42  1  0.75939735  0.34501005  0.71434834  1  0  0.083141  0.163074  0  1.076209  0
H  H43  1  0.74059886  0.65498534  0.21434318  1  0  0.08314  0.163075  0  1.076227  0
H  H44  1  0.34992388  0.96434791  0.71744368  1  0  0.087312  0.175199  0  1.029181  0
H  H45  1  0.15007221  0.03565365  0.21744486  1  0  0.087322  0.175232  0  1.029136  0
H  H46  1  0.65007334  0.46434611  0.78255833  1  0  0.087291  0.175215  0  1.029133  0
H  H47  1  0.84992283  0.53564990  0.28255455  1  0  0.087335  0.175246  0  1.029159  0
C  C48  1  0.01864495  0.36179432  0.56440227  1  0  0.219998  0.558287  0  4.175829  0
C  C49  1  0.48135435  0.63821647  0.06440889  1  0  0.219917  0.557966  0  4.176004  0
C  C50  1  0.98136257  0.86178807  0.93560200  1  0  0.219992  0.558215  0  4.176014  0
C  C51  1  0.51864806  0.13820816  0.43559644  1  0  0.219958  0.558217  0  4.175912  0
C  C52  1  0.10958075  0.24958502  0.52616860  1  0  -0.001023  0.039191  0  3.881895  0
C  C53  1  0.39042169  0.75041649  0.02617024  1  0  -0.001027  0.039264  0  3.882073  0
C  C54  1  0.89042250  0.74958135  0.97382616  1  0  -0.000964  0.039238  0  3.881936  0
C  C55  1  0.60958395  0.25041376  0.47383006  1  0  -0.001011  0.03927  0  3.881919  0
C  C56  1  0.02419667  0.13784985  0.48018080  1  0  -0.149782  -0.173497  0  3.94448  0
C  C57  1  0.47580238  0.86215708  0.98018454  1  0  -0.149782  -0.173457  0  3.944284  0
C  C58  1  0.97580574  0.63784462  0.01981272  1  0  -0.149847  -0.173534  0  3.944323  0
C  C59  1  0.52419787  0.36215074  0.51981882  1  0  -0.149782  -0.173492  0  3.944423  0
C  C60  1  0.07502243  0.18902052  0.90400270  1  0  -0.330129  -0.721551  0  3.752543  0
C  C61  1  0.42497043  0.81097922  0.40400678  1  0  -0.330097  -0.721426  0  3.752616  0
C  C62  1  0.92497037  0.68902150  0.59599414  1  0  -0.330101  -0.721445  0  3.752607  0
C  C63  1  0.57502072  0.31097917  0.09600053  1  0  -0.330092  -0.721456  0  3.75246  0
C  C64  1  0.24673372  0.92038903  0.71773274  1  0  -0.329486  -0.719426  0  3.732516  0
C  C65  1  0.25326134  0.07961253  0.21773459  1  0  -0.329511  -0.719496  0  3.73245  0
C  C66  1  0.75326139  0.42038449  0.78226764  1  0  -0.329443  -0.719434  0  3.732445  0
C  C67  1  0.74673687  0.57961341  0.28226553  1  0  -0.3295  -0.719508  0  3.732494  0
S  S68  1  0.91038633  0.07123727  0.59650702  1  0  -0.163657  -0.351032  0  2.269084  0
S  S69  1  0.58961099  0.92876717  0.09651075  1  0  -0.163634  -0.351032  0  2.268973  0
S  S70  1  0.08961155  0.57123325  0.90348487  1  0  -0.163592  -0.350959  0  2.268873  0
S  S71  1  0.41038754  0.42876176  0.40349514  1  0  -0.163653  -0.351045  0  2.269109  0
N  N72  1  0.19908520  0.21006079  0.62809875  1  0  -0.591414  -0.580568  0  3.304358  0
N  N73  1  0.30091822  0.78994214  0.12809935  1  0  -0.591405  -0.580526  0  3.304443  0
N  N74  1  0.80091802  0.71005658  0.87189799  1  0  -0.591486  -0.580593  0  3.304469  0
N  N75  1  0.69908746  0.28993996  0.37189988  1  0  -0.59143  -0.580522  0  3.304462  0
O  O76  1  0.05655125  0.41643518  0.66413518  1  0  -0.288228  -0.524185  0  2.27932  0
O  O77  1  0.44346150  0.58357324  0.16413479  1  0  -0.288184  -0.523979  0  2.279568  0
O  O78  1  0.94345424  0.91643315  0.83586340  1  0  -0.288285  -0.524218  0  2.279014  0
O  O79  1  0.55655022  0.08356355  0.33586532  1  0  -0.28822  -0.524133  0  2.279244  0
O  O80  1  0.91912013  0.39592345  0.49923474  1  0  -0.306669  -0.54405  0  2.211173  0
O  O81  1  0.58088942  0.60408004  0.99922251  1  0  -0.306687  -0.544003  0  2.210641  0
O  O82  1  0.08087525  0.89591849  0.00077039  1  0  -0.306635  -0.543933  0  2.211465  0
O  O83  1  0.41911993  0.10408031  0.50076742  1  0  -0.306666  -0.544052  0  2.211132  0
