# generated using pymatgen
data_ZnH3C8NClO6
_symmetry_space_group_name_H-M   'P 1'
_cell_length_a   9.86643003
_cell_length_b   11.11960311
_cell_length_c   11.89712762
_cell_angle_alpha   94.12581190
_cell_angle_beta   103.66315979
_cell_angle_gamma   94.26469778
_symmetry_Int_Tables_number   1
_chemical_formula_structural   ZnH3C8NClO6
_chemical_formula_sum   'Zn2 H6 C16 N2 Cl2 O12'
_cell_volume   1259.38671952
_cell_formula_units_Z   2
loop_
 _symmetry_equiv_pos_site_id
 _symmetry_equiv_pos_as_xyz
  1  'x, y, z'
loop_
 _atom_site_type_symbol
 _atom_site_label
 _atom_site_symmetry_multiplicity
 _atom_site_fract_x
 _atom_site_fract_y
 _atom_site_fract_z
 _atom_site_occupancy
 _atom_site_pbe_bader_charge
 _atom_site_pbe_bader_spin_density
 _atom_site_pbe_cm5_charge
 _atom_site_pbe_ddec_charge
 _atom_site_pbe_ddec_spin_density
 _atom_site_pbe_ddec_sum_bond_order
 _atom_site_pbe_magmom
Zn  Zn0  1  0.64305830  0.48222879  0.53747154  1  1.299166  0  0.680387  0.844942  0  2.395353  0
Zn  Zn1  1  0.35863062  0.51588799  0.47985843  1  1.2997  0  0.680544  0.843359  0  2.403561  0
H  H2  1  0.40147894  0.88354082  0.49314324  1  0.130932  0  0.111303  0.133034  0  1.003601  0
H  H3  1  0.62083656  0.11016968  0.53391333  1  0.120765  0  0.103071  0.11474  0  1.029168  0
H  H4  1  0.88747377  0.59517306  0.47998198  1  0.155446  0  0.145632  0.122573  0  0.962685  0
H  H5  1  0.13223992  0.43544258  0.57682120  1  0.191824  0  0.146616  0.123007  0  0.959707  0
H  H6  1  0.92336544  0.17066714  0.54477223  1  0.631993  0  0.34943  0.391808  0  0.856458  0
H  H7  1  0.97886819  0.61973634  0.21241296  1  0.635975  0  0.374287  0.414806  0  0.806023  0
C  C8  1  0.43712508  0.26688290  0.49688552  1  1.588979  0  0.211723  0.582187  0  4.190526  0
C  C9  1  0.61423040  0.86289048  0.53428375  1  0.01482  0  0.013235  0.013944  0  3.911948  0
C  C10  1  0.51693796  0.06135747  0.51527780  1  0.068783  0  -0.087969  -0.098337  0  4.007682  0
C  C11  1  0.50541532  0.93294107  0.51358266  1  0.081367  0  -0.084791  -0.094492  0  3.992192  0
C  C12  1  0.07674017  0.49443825  0.51523770  1  0.669519  0  0.130895  0.158938  0  3.785761  0
C  C13  1  0.93068336  0.51312514  0.51344285  1  0.702471  0  0.131448  0.155599  0  3.781269  0
C  C14  1  0.89266737  0.32899286  0.59787491  1  1.928685  0  0.330219  0.699333  0  4.165822  0
C  C15  1  0.08706378  0.62667711  0.36749635  1  1.91625  0  0.333467  0.703726  0  4.173291  0
C  C16  1  0.58883034  0.72771290  0.52863718  1  1.605699  0  0.210977  0.580652  0  4.196108  0
C  C17  1  0.48938469  0.51183460  0.72626806  1  1.660837  0  0.222253  0.659108  0  4.242017  0
C  C18  1  0.48796923  0.49774701  0.28654612  1  1.694603  0  0.220693  0.660394  0  4.244476  0
C  C19  1  0.49068340  0.51264768  0.84785724  1  0.237634  0  -0.011419  -0.138561  0  3.862889  0
C  C20  1  0.48980333  0.50245001  0.16596858  1  0.11043  0  -0.015302  -0.144012  0  3.865753  0
C  C21  1  0.49090202  0.51026814  0.95053653  1  -0.345005  0  -0.016064  0.019194  0  4.252079  0
C  C22  1  0.49099434  0.50667409  0.06372345  1  -0.226429  0  -0.013375  0.023244  0  4.252605  0
C  C23  1  0.40878169  0.13220043  0.49467259  1  0.016509  0  0.013527  0.012688  0  3.928534  0
N  N24  1  0.14597984  0.54554284  0.44997697  1  -1.147467  0  -0.274361  -0.263073  0  3.353487  0
N  N25  1  0.84915968  0.43924000  0.55119927  1  -1.142109  0  -0.273917  -0.260392  0  3.352486  0
Cl  Cl26  1  0.78752453  0.92180670  0.56868578  1  -0.213734  0  -0.010603  -0.067099  0  1.499745  0
Cl  Cl27  1  0.23649179  0.07396838  0.46455867  1  -0.175744  0  8.1e-05  -0.041236  0  1.508285  0
O  O28  1  0.56574463  0.30596349  0.51282283  1  -1.163449  0  -0.315432  -0.536097  0  2.349782  0
O  O29  1  0.90478912  0.24804647  0.51191260  1  -1.100982  0  -0.310817  -0.47649  0  2.205716  0
O  O30  1  0.11413024  0.73545334  0.38517145  1  -1.075348  0  -0.260308  -0.471114  0  2.043924  0
O  O31  1  0.00834202  0.56302914  0.27090561  1  -1.094815  0  -0.304607  -0.468157  0  2.173877  0
O  O32  1  0.46061502  0.68563148  0.50167388  1  -1.164594  0  -0.311793  -0.53648  0  2.356609  0
O  O33  1  0.33392665  0.33071338  0.48295725  1  -1.140701  0  -0.315152  -0.539123  0  2.341283  0
O  O34  1  0.69423957  0.66621012  0.55046661  1  -1.150313  0  -0.317089  -0.539311  0  2.336065  0
O  O35  1  0.60496433  0.49669715  0.69973780  1  -1.127947  0  -0.30138  -0.518839  0  2.25416  0
O  O36  1  0.36884547  0.50129313  0.31043138  1  -1.130024  0  -0.30943  -0.524858  0  2.244939  0
O  O37  1  0.37242810  0.52565342  0.65722834  1  -1.143876  0  -0.30955  -0.543147  0  2.268107  0
O  O38  1  0.60539749  0.49096732  0.35742311  1  -1.144002  0  -0.310008  -0.545758  0  2.263255  0
O  O39  1  0.90816080  0.31485905  0.69985048  1  -1.075849  0  -0.256425  -0.450699  0  2.009385  0
