# generated using pymatgen
data_ZnPH16C10NCl2O3
_symmetry_space_group_name_H-M   'P 1'
_cell_length_a   7.74685170
_cell_length_b   7.82311168
_cell_length_c   27.94460324
_cell_angle_alpha   89.99990609
_cell_angle_beta   89.99997631
_cell_angle_gamma   117.35880884
_symmetry_Int_Tables_number   1
_chemical_formula_structural   ZnPH16C10NCl2O3
_chemical_formula_sum   'Zn4 P4 H64 C40 N4 Cl8 O12'
_cell_volume   1504.13593201
_cell_formula_units_Z   4
loop_
 _symmetry_equiv_pos_site_id
 _symmetry_equiv_pos_as_xyz
  1  'x, y, z'
loop_
 _atom_site_type_symbol
 _atom_site_label
 _atom_site_symmetry_multiplicity
 _atom_site_fract_x
 _atom_site_fract_y
 _atom_site_fract_z
 _atom_site_occupancy
 _atom_site_hle17_bader_spin_density
 _atom_site_hle17_ddec_charge
 _atom_site_hle17_ddec_spin_density
 _atom_site_hle17_ddec_sum_bond_order
 _atom_site_hle17_magmom
 _atom_site_hse06_10hf_bader_spin_density
 _atom_site_hse06_10hf_ddec_charge
 _atom_site_hse06_10hf_ddec_spin_density
 _atom_site_hse06_10hf_ddec_sum_bond_order
 _atom_site_hse06_10hf_magmom
 _atom_site_hse06_bader_spin_density
 _atom_site_hse06_ddec_charge
 _atom_site_hse06_ddec_spin_density
 _atom_site_hse06_ddec_sum_bond_order
 _atom_site_hse06_magmom
 _atom_site_pbe_bader_spin_density
 _atom_site_pbe_cm5_charge
 _atom_site_pbe_ddec_charge
 _atom_site_pbe_ddec_spin_density
 _atom_site_pbe_ddec_sum_bond_order
 _atom_site_pbe_magmom
Zn  Zn0  1  0.61343525  0.95567927  0.30049319  1  0  0.936962  0  2.10548  0  0  0.766641  0  2.611482  0  0  0.807856  0  2.558312  0  0  0.559702  0.738039  0  2.647881  0
Zn  Zn1  1  0.38656544  0.04432143  0.80049407  1  0  0.936968  0  2.105467  0  0  0.766621  0  2.61144  0  0  0.807827  0  2.558271  0  0  0.559681  0.738018  0  2.647834  0
Zn  Zn2  1  0.76849356  0.54933328  0.55208353  1  0  0.94598  0  2.088714  0  0  0.777136  0  2.591504  0  0  0.817912  0  2.538631  0  0  0.564039  0.748864  0  2.627601  0
Zn  Zn3  1  0.23150582  0.45066661  0.05208185  1  0  0.945929  0  2.088794  0  0  0.777094  0  2.591553  0  0  0.81787  0  2.538685  0  0  0.563993  0.748816  0  2.627647  0
P  P4  1  0.60182245  0.19371771  0.20336513  1  0  1.40396  0  4.665004  0  0  1.247267  0  5.1637  0  0  1.296801  0  5.12765  0  0  0.406872  1.212858  0  5.188049  0
P  P5  1  0.39817485  0.80628093  0.70336673  1  0  1.404081  0  4.66492  0  0  1.247406  0  5.163634  0  0  1.296906  0  5.127605  0  0  0.406932  1.213003  0  5.187988  0
P  P6  1  0.00711575  0.58931460  0.45010896  1  0  1.408032  0  4.655826  0  0  1.251334  0  5.153814  0  0  1.300822  0  5.117596  0  0  0.408955  1.216865  0  5.178376  0
P  P7  1  0.99288808  0.41068773  0.95010853  1  0  1.407928  0  4.656028  0  0  1.251229  0  5.154025  0  0  1.300715  0  5.11781  0  0  0.408906  1.216767  0  5.178585  0
H  H8  1  0.85974933  0.36822684  0.09607387  1  0  0.089801  0  0.948413  0  0  0.093834  0  1.020825  0  0  0.096893  0  1.017885  0  0  0.10958  0.091591  0  1.022998  0
H  H9  1  0.14024786  0.63177125  0.59607630  1  0  0.089767  0  0.948427  0  0  0.093833  0  1.020809  0  0  0.096885  0  1.017877  0  0  0.109588  0.09159  0  1.022983  0
H  H10  1  0.57800707  0.77095062  0.13787829  1  0  0.101027  0  0.938921  0  0  0.113075  0  0.998764  0  0  0.115828  0  0.996577  0  0  0.106976  0.111006  0  1.000445  0
H  H11  1  0.42199578  0.22905142  0.63787765  1  0  0.101034  0  0.938901  0  0  0.113079  0  0.998742  0  0  0.115832  0  0.996555  0  0  0.106964  0.111006  0  1.000424  0
H  H12  1  0.86002837  0.74039095  0.10167881  1  0  0.113522  0  0.953982  0  0  0.119832  0  1.01791  0  0  0.122945  0  1.017297  0  0  0.103182  0.117545  0  1.018601  0
H  H13  1  0.13997467  0.25961140  0.60167818  1  0  0.113499  0  0.954008  0  0  0.119809  0  1.017939  0  0  0.122922  0  1.017327  0  0  0.103173  0.117522  0  1.018631  0
H  H14  1  0.13386064  0.03331486  0.06609897  1  0  0.082287  0  0.947315  0  0  0.088558  0  1.015177  0  0  0.09106  0  1.013299  0  0  0.11031  0.086657  0  1.016659  0
H  H15  1  0.86614450  0.96668633  0.56609759  1  0  0.082298  0  0.947325  0  0  0.088566  0  1.015182  0  0  0.091068  0  1.013303  0  0  0.110302  0.086666  0  1.016662  0
H  H16  1  0.40436535  0.96711075  0.14605551  1  0  0.158954  0  0.946712  0  0  0.172753  0  1.000729  0  0  0.175249  0  1.000192  0  0  0.109058  0.170882  0  1.001309  0
H  H17  1  0.59563544  0.03288691  0.64605744  1  0  0.158947  0  0.946704  0  0  0.172781  0  1.000709  0  0  0.175273  0  1.000167  0  0  0.109063  0.170912  0  1.001291  0
H  H18  1  0.50679375  0.20536325  0.12240817  1  0  0.15381  0  0.967038  0  0  0.161589  0  1.034174  0  0  0.164405  0  1.033448  0  0  0.101191  0.159529  0  1.034806  0
H  H19  1  0.49320655  0.79463605  0.62241013  1  0  0.153842  0  0.967003  0  0  0.161617  0  1.034182  0  0  0.164426  0  1.033456  0  0  0.101223  0.159557  0  1.034814  0
H  H20  1  0.96146844  0.47641429  0.25397338  1  0  0.053341  0  0.936017  0  0  0.065962  0  1.002976  0  0  0.065958  0  1.003235  0  0  0.09815  0.065852  0  1.002931  0
H  H21  1  0.03852129  0.52357387  0.75397587  1  0  0.053368  0  0.93598  0  0  0.065971  0  1.002937  0  0  0.065971  0  1.003196  0  0  0.098167  0.065861  0  1.002892  0
H  H22  1  0.76200824  0.53070751  0.26052098  1  0  0.046942  0  0.929217  0  0  0.060568  0  0.994569  0  0  0.060258  0  0.995332  0  0  0.10098  0.06068  0  0.994171  0
H  H23  1  0.23798943  0.46929210  0.76052240  1  0  0.046899  0  0.929236  0  0  0.060507  0  0.994597  0  0  0.060202  0  0.99536  0  0  0.100955  0.060616  0  0.9942  0
H  H24  1  0.09641419  0.72757004  0.18849096  1  0  0.106341  0  0.955585  0  0  0.124192  0  1.022195  0  0  0.125744  0  1.021819  0  0  0.08182  0.123015  0  1.022543  0
H  H25  1  0.90358828  0.27242582  0.68849132  1  0  0.106292  0  0.955495  0  0  0.124146  0  1.022116  0  0  0.125699  0  1.02174  0  0  0.081783  0.12297  0  1.022464  0
H  H26  1  0.07899959  0.82787273  0.24464669  1  0  0.117596  0  0.960058  0  0  0.134208  0  1.028228  0  0  0.135441  0  1.028434  0  0  0.086273  0.133277  0  1.028152  0
H  H27  1  0.92100123  0.17211978  0.74464673  1  0  0.117635  0  0.960021  0  0  0.134225  0  1.028215  0  0  0.135458  0  1.028422  0  0  0.086302  0.133293  0  1.02814  0
H  H28  1  0.90412211  0.78870809  0.19928297  1  0  0.102705  0  0.954929  0  0  0.12563  0  1.013256  0  0  0.12643  0  1.014359  0  0  0.086039  0.125015  0  1.012517  0
H  H29  1  0.09588624  0.21129486  0.69928381  1  0  0.102647  0  0.954971  0  0  0.125595  0  1.013278  0  0  0.126395  0  1.01439  0  0  0.08602  0.12498  0  1.012539  0
H  H30  1  0.41861191  0.47405223  0.23672250  1  0  0.056616  0  0.934804  0  0  0.069285  0  1.000329  0  0  0.069999  0  0.999529  0  0  0.096549  0.068661  0  1.001027  0
H  H31  1  0.58138773  0.52594324  0.73672349  1  0  0.056623  0  0.934874  0  0  0.069265  0  1.000418  0  0  0.069981  0  0.999619  0  0  0.096549  0.068641  0  1.001115  0
H  H32  1  0.44847737  0.42290040  0.17573828  1  0  0.039942  0  0.940001  0  0  0.053483  0  1.007365  0  0  0.05397  0  1.006217  0  0  0.10028  0.053032  0  1.008258  0
H  H33  1  0.55151811  0.57709704  0.67573926  1  0  0.039919  0  0.939877  0  0  0.053447  0  1.007246  0  0  0.053935  0  1.006099  0  0  0.100276  0.052999  0  1.008138  0
H  H34  1  0.10666229  0.14991078  0.17621144  1  0  0.102439  0  0.962656  0  0  0.12382  0  1.023507  0  0  0.124045  0  1.026199  0  0  0.086205  0.123594  0  1.021718  0
H  H35  1  0.89333583  0.85008952  0.67621225  1  0  0.10245  0  0.962665  0  0  0.12385  0  1.023492  0  0  0.124079  0  1.026176  0  0  0.086229  0.123626  0  1.021704  0
H  H36  1  0.11127419  0.37438717  0.18902854  1  0  0.113215  0  0.952733  0  0  0.133333  0  1.015408  0  0  0.134003  0  1.016478  0  0  0.092531  0.132788  0  1.014729  0
H  H37  1  0.88872318  0.62561159  0.68902909  1  0  0.113253  0  0.952726  0  0  0.133368  0  1.015407  0  0  0.134041  0  1.016472  0  0  0.092544  0.132824  0  1.014729  0
H  H38  1  0.07670475  0.20770468  0.23625845  1  0  0.118711  0  0.953711  0  0  0.135075  0  1.020624  0  0  0.136962  0  1.020145  0  0  0.086141  0.133664  0  1.021027  0
H  H39  1  0.92329237  0.79229369  0.73625928  1  0  0.118744  0  0.953684  0  0  0.135111  0  1.020587  0  0  0.136993  0  1.020116  0  0  0.086166  0.133699  0  1.020993  0
H  H40  1  0.89276774  0.30193760  0.34927018  1  0  0.089848  0  0.95286  0  0  0.093651  0  1.025666  0  0  0.096841  0  1.02266  0  0  0.110014  0.091235  0  1.027996  0
H  H41  1  0.10723202  0.69806126  0.84926936  1  0  0.089843  0  0.952885  0  0  0.093645  0  1.025698  0  0  0.096835  0  1.022691  0  0  0.110017  0.091231  0  1.028029  0
H  H42  1  0.59676467  0.63181920  0.38953550  1  0  0.098834  0  0.940654  0  0  0.110034  0  1.002965  0  0  0.112544  0  1.001151  0  0  0.107374  0.108195  0  1.004282  0
H  H43  1  0.40323623  0.36818221  0.88953623  1  0  0.098889  0  0.940726  0  0  0.110034  0  1.003094  0  0  0.112546  0  1.001273  0  0  0.107379  0.108196  0  1.00441  0
H  H44  1  0.28783025  0.35837930  0.35982144  1  0  0.115011  0  0.948518  0  0  0.121717  0  1.010786  0  0  0.12515  0  1.00944  0  0  0.105165  0.119213  0  1.011992  0
H  H45  1  0.71216885  0.64162092  0.85982236  1  0  0.114991  0  0.948535  0  0  0.121701  0  1.010802  0  0  0.125133  0  1.009458  0  0  0.105167  0.119198  0  1.012007  0
H  H46  1  0.29892158  0.06656165  0.32620392  1  0  0.089252  0  0.944044  0  0  0.093107  0  1.015747  0  0  0.095963  0  1.013131  0  0  0.110591  0.090941  0  1.017807  0
H  H47  1  0.70108032  0.93344171  0.82620543  1  0  0.089227  0  0.944051  0  0  0.093067  0  1.01578  0  0  0.095923  0  1.013165  0  0  0.110555  0.090902  0  1.017842  0
H  H48  1  0.95338391  0.78270385  0.39257897  1  0  0.155624  0  0.951753  0  0  0.168855  0  1.007988  0  0  0.17124  0  1.007788  0  0  0.108685  0.167093  0  1.008256  0
H  H49  1  0.04661434  0.21729466  0.89257873  1  0  0.155605  0  0.951779  0  0  0.168838  0  1.00802  0  0  0.171224  0  1.007819  0  0  0.108675  0.167076  0  1.00829  0
H  H50  1  0.08127851  0.66538244  0.36723927  1  0  0.156384  0  0.963154  0  0  0.163987  0  1.030028  0  0  0.166938  0  1.029119  0  0  0.102351  0.161803  0  1.03082  0
H  H51  1  0.91871920  0.33461484  0.86723852  1  0  0.156382  0  0.963171  0  0  0.163994  0  1.03004  0  0  0.166945  0  1.029132  0  0  0.102348  0.161811  0  1.030833  0
H  H52  1  0.95105036  0.26351190  0.50461467  1  0  0.046992  0  0.968004  0  0  0.058079  0  1.038914  0  0  0.058377  0  1.038922  0  0  0.093015  0.057694  0  1.039076  0
H  H53  1  0.04895057  0.73648838  0.00461396  1  0  0.047039  0  0.968071  0  0  0.058131  0  1.038979  0  0  0.058427  0  1.038989  0  0  0.09305  0.057749  0  1.039137  0
H  H54  1  0.20948299  0.38821884  0.49889193  1  0  0.055912  0  0.957034  0  0  0.067716  0  1.02375  0  0  0.068438  0  1.022967  0  0  0.090917  0.067079  0  1.024426  0
H  H55  1  0.79051733  0.61178166  0.99889143  1  0  0.0559  0  0.957092  0  0  0.067773  0  1.023747  0  0  0.068495  0  1.022964  0  0  0.090928  0.067134  0  1.02443  0
H  H56  1  0.93836579  0.03928473  0.43753236  1  0  0.099496  0  0.959116  0  0  0.117997  0  1.025354  0  0  0.11942  0  1.024993  0  0  0.084714  0.116926  0  1.025679  0
H  H57  1  0.06163553  0.96071771  0.93753143  1  0  0.099494  0  0.959059  0  0  0.117999  0  1.025298  0  0  0.119423  0  1.024936  0  0  0.084711  0.116927  0  1.025623  0
H  H58  1  0.08506691  0.03248263  0.48600438  1  0  0.115042  0  0.962824  0  0  0.134204  0  1.024996  0  0  0.135155  0  1.026008  0  0  0.092586  0.133511  0  1.024294  0
H  H59  1  0.91493476  0.96751797  0.98600406  1  0  0.115019  0  0.962804  0  0  0.134176  0  1.024988  0  0  0.135127  0  1.026001  0  0  0.092573  0.133484  0  1.024286  0
H  H60  1  0.19588813  0.16347192  0.43333228  1  0  0.101001  0  0.968445  0  0  0.121295  0  1.031973  0  0  0.122206  0  1.033166  0  0  0.086572  0.120615  0  1.031198  0
H  H61  1  0.80411191  0.83653057  0.93333239  1  0  0.100993  0  0.968455  0  0  0.121289  0  1.031974  0  0  0.122201  0  1.033167  0  0  0.08657  0.120609  0  1.031196  0
H  H62  1  0.37753126  0.82006587  0.41099471  1  0  0.039679  0  0.944898  0  0  0.051231  0  1.01688  0  0  0.051268  0  1.016547  0  0  0.09522  0.051061  0  1.017278  0
H  H63  1  0.62246953  0.17993536  0.91099479  1  0  0.039696  0  0.944894  0  0  0.051237  0  1.01687  0  0  0.051274  0  1.016536  0  0  0.095223  0.051068  0  1.017269  0
H  H64  1  0.43695260  0.71812755  0.46211086  1  0  0.052846  0  0.935708  0  0  0.065507  0  1.001349  0  0  0.066172  0  1.000259  0  0  0.096984  0.064892  0  1.002229  0
H  H65  1  0.56304791  0.28187326  0.96211125  1  0  0.052833  0  0.935731  0  0  0.065486  0  1.001366  0  0  0.06615  0  1.000279  0  0  0.096974  0.064874  0  1.002244  0
H  H66  1  0.47272220  0.12750833  0.45791126  1  0  0.109101  0  0.948603  0  0  0.130992  0  1.006967  0  0  0.132041  0  1.007998  0  0  0.090132  0.130179  0  1.006327  0
H  H67  1  0.52728029  0.87249394  0.95791174  1  0  0.109128  0  0.948572  0  0  0.130995  0  1.006967  0  0  0.132045  0  1.007997  0  0  0.090132  0.130185  0  1.006327  0
H  H68  1  0.66808603  0.06954315  0.45348178  1  0  0.107675  0  0.95974  0  0  0.131161  0  1.018119  0  0  0.131226  0  1.019944  0  0  0.09271  0.131057  0  1.016897  0
H  H69  1  0.33191453  0.93045773  0.95348262  1  0  0.10765  0  0.959792  0  0  0.131156  0  1.018155  0  0  0.131221  0  1.019981  0  0  0.092684  0.131051  0  1.016938  0
H  H70  1  0.53415826  0.02358059  0.50780678  1  0  0.116348  0  0.947704  0  0  0.13222  0  1.014829  0  0  0.133898  0  1.014846  0  0  0.087698  0.130948  0  1.014912  0
H  H71  1  0.46584333  0.97642110  0.00780734  1  0  0.116354  0  0.947801  0  0  0.132225  0  1.014928  0  0  0.133902  0  1.014948  0  0  0.087697  0.130956  0  1.015009  0
C  C72  1  0.85252789  0.22586209  0.09808216  1  0  0.084141  0  3.645818  0  0  0.043268  0  3.895476  0  0  0.049683  0  3.912869  0  0  0.049287  0.038903  0  3.884272  0
C  C73  1  0.14747192  0.77413886  0.59808310  1  0  0.084199  0  3.645814  0  0  0.043284  0  3.89548  0  0  0.049702  0  3.912877  0  0  0.049289  0.038925  0  3.884265  0
C  C74  1  0.69702676  0.07266885  0.12032085  1  0  0.112281  0  3.734671  0  0  0.137781  0  3.965836  0  0  0.134485  0  3.991018  0  0  0.007469  0.139649  0  3.948973  0
C  C75  1  0.30297619  0.92733335  0.62032169  1  0  0.112232  0  3.73474  0  0  0.137764  0  3.965926  0  0  0.134469  0  3.991085  0  0  0.007436  0.139631  0  3.949064  0
C  C76  1  0.69862735  0.89457922  0.12149405  1  0  -0.042048  0  3.667061  0  0  -0.07221  0  3.913523  0  0  -0.068868  0  3.931297  0  0  -0.057365  -0.074083  0  3.901435  0
C  C77  1  0.30137491  0.10542153  0.62149384  1  0  -0.04205  0  3.667063  0  0  -0.072192  0  3.913492  0  0  -0.068853  0  3.931268  0  0  -0.057342  -0.074066  0  3.901405  0
C  C78  1  0.85429571  0.87677209  0.10139035  1  0  -0.110177  0  3.744118  0  0  -0.120647  0  3.996936  0  0  -0.12797  0  4.019323  0  0  -0.079603  -0.116033  0  3.982018  0
C  C79  1  0.14570734  0.12323025  0.60138943  1  0  -0.110144  0  3.744087  0  0  -0.120629  0  3.996917  0  0  -0.127951  0  4.019301  0  0  -0.079607  -0.116014  0  3.981999  0
C  C80  1  0.00590565  0.03793546  0.08100633  1  0  0.114806  0  3.704859  0  0  0.082365  0  3.954721  0  0  0.088993  0  3.973347  0  0  0.044135  0.078146  0  3.942094  0
C  C81  1  0.99409621  0.96206706  0.58100565  1  0  0.114777  0  3.704902  0  0  0.082335  0  3.954757  0  0  0.088964  0  3.973383  0  0  0.04414  0.078116  0  3.942131  0
C  C82  1  0.53856598  0.10374469  0.14334891  1  0  -0.493671  0  3.709885  0  0  -0.512807  0  3.935394  0  0  -0.522914  0  3.944299  0  0  -0.15981  -0.505718  0  3.929597  0
C  C83  1  0.46143225  0.89625301  0.64335082  1  0  -0.49369  0  3.70983  0  0  -0.512926  0  3.935455  0  0  -0.522999  0  3.944311  0  0  -0.159829  -0.505838  0  3.929662  0
C  C84  1  0.87289643  0.53270692  0.23562099  1  0  0.189172  0  3.570256  0  0  0.132406  0  3.841612  0  0  0.141845  0  3.846531  0  0  -0.058689  0.126024  0  3.83822  0
C  C85  1  0.12709935  0.46728857  0.73562278  1  0  0.189274  0  3.570243  0  0  0.132586  0  3.841478  0  0  0.142011  0  3.846415  0  0  -0.058606  0.126206  0  3.838081  0
C  C86  1  0.99535703  0.73105068  0.21558022  1  0  -0.324181  0  3.707461  0  0  -0.402686  0  3.955059  0  0  -0.40567  0  3.963975  0  0  -0.25363  -0.400379  0  3.948919  0
C  C87  1  0.00464468  0.26894640  0.71558068  1  0  -0.324093  0  3.70739  0  0  -0.402626  0  3.954993  0  0  -0.405612  0  3.963912  0  0  -0.253601  -0.400315  0  3.948851  0
C  C88  1  0.37041973  0.36077504  0.20930292  1  0  0.187321  0  3.574113  0  0  0.131196  0  3.841355  0  0  0.140442  0  3.846351  0  0  -0.0576  0.12496  0  3.837864  0
C  C89  1  0.62957495  0.63922356  0.70930457  1  0  0.187407  0  3.574067  0  0  0.13135  0  3.84122  0  0  0.140591  0  3.84622  0  0  -0.057563  0.125117  0  3.83773  0
C  C90  1  0.15329845  0.26691023  0.20249592  1  0  -0.324374  0  3.686851  0  0  -0.400149  0  3.932299  0  0  -0.403522  0  3.942374  0  0  -0.252039  -0.397574  0  3.92535  0
C  C91  1  0.84669884  0.73308842  0.70249679  1  0  -0.324502  0  3.686836  0  0  -0.400303  0  3.932298  0  0  -0.403674  0  3.94237  0  0  -0.252132  -0.397731  0  3.925353  0
C  C92  1  0.76272302  0.32174483  0.35272631  1  0  0.066315  0  3.664226  0  0  0.026486  0  3.915163  0  0  0.032848  0  3.93234  0  0  0.045225  0.022499  0  3.903504  0
C  C93  1  0.23727544  0.67825400  0.85272584  1  0  0.066311  0  3.664195  0  0  0.026461  0  3.91513  0  0  0.032823  0  3.932303  0  0  0.045219  0.022473  0  3.903469  0
C  C94  1  0.77005957  0.48872913  0.37250755  1  0  0.109372  0  3.750928  0  0  0.13377  0  3.98367  0  0  0.130406  0  4.009346  0  0  0.004618  0.135625  0  3.96652  0
C  C95  1  0.22994068  0.51126810  0.87250716  1  0  0.109505  0  3.750788  0  0  0.133843  0  3.983621  0  0  0.13048  0  4.009296  0  0  0.004627  0.135699  0  3.96647  0
C  C96  1  0.59630634  0.50196212  0.37528448  1  0  -0.044968  0  3.671215  0  0  -0.074803  0  3.918725  0  0  -0.07171  0  3.936943  0  0  -0.059157  -0.076539  0  3.906397  0
C  C97  1  0.40369133  0.49803509  0.87528515  1  0  -0.045121  0  3.671326  0  0  -0.074882  0  3.918829  0  0  -0.071792  0  3.937055  0  0  -0.059189  -0.076617  0  3.906501  0
C  C98  1  0.42416285  0.35014575  0.35889567  1  0  -0.107008  0  3.739673  0  0  -0.117266  0  3.993251  0  0  -0.124079  0  4.014302  0  0  -0.080724  -0.113022  0  3.979273  0
C  C99  1  0.57583950  0.64985590  0.85889661  1  0  -0.106922  0  3.739617  0  0  -0.117191  0  3.993185  0  0  -0.124004  0  4.014236  0  0  -0.080715  -0.112947  0  3.97921  0
C  C100  1  0.42917106  0.18823619  0.33994035  1  0  0.129193  0  3.683274  0  0  0.092372  0  3.940454  0  0  0.099731  0  3.957849  0  0  0.045436  0.087624  0  3.928703  0
C  C101  1  0.57082881  0.81176563  0.83994157  1  0  0.129245  0  3.683347  0  0  0.092394  0  3.940517  0  0  0.099752  0  3.957913  0  0  0.045518  0.087647  0  3.928769  0
C  C102  1  0.95910125  0.64518506  0.39075110  1  0  -0.496746  0  3.715526  0  0  -0.515609  0  3.940576  0  0  -0.525982  0  3.949814  0  0  -0.160158  -0.508307  0  3.934538  0
C  C103  1  0.04089633  0.35481202  0.89075044  1  0  -0.49679  0  3.71551  0  0  -0.515652  0  3.940596  0  0  -0.526029  0  3.949842  0  0  -0.160182  -0.50835  0  3.934559  0
C  C104  1  0.07304853  0.29950673  0.47982424  1  0  0.175711  0  3.572876  0  0  0.121463  0  3.837422  0  0  0.130346  0  3.842394  0  0  -0.064281  0.115525  0  3.834009  0
C  C105  1  0.92695384  0.70049536  0.97982368  1  0  0.175688  0  3.573017  0  0  0.121378  0  3.837591  0  0  0.13026  0  3.842566  0  0  -0.06431  0.115449  0  3.83417  0
C  C106  1  0.07258011  0.12354435  0.45778603  1  0  -0.320186  0  3.7038  0  0  -0.39815  0  3.951487  0  0  -0.401026  0  3.96014  0  0  -0.251781  -0.395931  0  3.945442  0
C  C107  1  0.92742109  0.87645793  0.95778540  1  0  -0.320157  0  3.703724  0  0  -0.398123  0  3.951427  0  0  -0.400997  0  3.960071  0  0  -0.251768  -0.395902  0  3.945379  0
C  C108  1  0.38901640  0.82359958  0.45031715  1  0  0.183461  0  3.581005  0  0  0.126117  0  3.852268  0  0  0.1357  0  3.857102  0  0  -0.060079  0.119679  0  3.848898  0
C  C109  1  0.61098484  0.17640276  0.95031759  1  0  0.183432  0  3.581052  0  0  0.126145  0  3.852229  0  0  0.135728  0  3.857065  0  0  -0.060075  0.119705  0  3.84886  0
C  C110  1  0.52256867  0.02262697  0.46865003  1  0  -0.318132  0  3.689657  0  0  -0.393529  0  3.932604  0  0  -0.396768  0  3.942351  0  0  -0.248805  -0.391077  0  3.92589  0
C  C111  1  0.47743309  0.97737377  0.96865082  1  0  -0.31815  0  3.689812  0  0  -0.393553  0  3.932734  0  0  -0.396793  0  3.942482  0  0  -0.248773  -0.391104  0  3.926023  0
N  N112  1  0.00355023  0.20905139  0.07921131  1  0  -0.329973  0  3.372802  0  0  -0.244687  0  3.649671  0  0  -0.263767  0  3.665991  0  0  -0.336788  -0.231802  0  3.638375  0
N  N113  1  0.99645226  0.79094970  0.57921142  1  0  -0.329964  0  3.372804  0  0  -0.244652  0  3.649666  0  0  -0.263731  0  3.665984  0  0  -0.336778  -0.231768  0  3.638372  0
N  N114  1  0.59663222  0.17580879  0.33681594  1  0  -0.334572  0  3.37725  0  0  -0.248668  0  3.65397  0  0  -0.268234  0  3.671421  0  0  -0.337921  -0.235483  0  3.641951  0
N  N115  1  0.40337025  0.82419305  0.83681682  1  0  -0.334653  0  3.377395  0  0  -0.248635  0  3.654  0  0  -0.268199  0  3.671448  0  0  -0.337927  -0.235449  0  3.641979  0
Cl  Cl116  1  0.89710150  0.96967949  0.32143496  1  0  -0.570271  0  0.922241  0  0  -0.501793  0  1.191572  0  0  -0.518362  0  1.16802  0  0  -0.29937  -0.489859  0  1.207786  0
Cl  Cl117  1  0.10289842  0.03031960  0.82143623  1  0  -0.570262  0  0.922234  0  0  -0.501782  0  1.191563  0  0  -0.518351  0  1.168012  0  0  -0.299363  -0.489845  0  1.207775  0
Cl  Cl118  1  0.32932616  0.69173206  0.30518290  1  0  -0.570195  0  0.933111  0  0  -0.501122  0  1.203453  0  0  -0.517516  0  1.179371  0  0  -0.294138  -0.489361  0  1.220084  0
Cl  Cl119  1  0.67067328  0.30827149  0.80518327  1  0  -0.570209  0  0.933115  0  0  -0.501131  0  1.20345  0  0  -0.517527  0  1.179372  0  0  -0.294137  -0.489368  0  1.220079  0
Cl  Cl120  1  0.50350249  0.59159055  0.55470408  1  0  -0.567005  0  0.925503  0  0  -0.499946  0  1.190221  0  0  -0.516157  0  1.16593  0  0  -0.29604  -0.488288  0  1.206878  0
Cl  Cl121  1  0.49649885  0.40841075  0.05470239  1  0  -0.566998  0  0.925481  0  0  -0.499942  0  1.190185  0  0  -0.516153  0  1.165894  0  0  -0.296032  -0.48828  0  1.206841  0
Cl  Cl122  1  0.78988284  0.30295753  0.58708033  1  0  -0.576234  0  0.956653  0  0  -0.513819  0  1.235002  0  0  -0.530049  0  1.210991  0  0  -0.289991  -0.502024  0  1.251432  0
Cl  Cl123  1  0.21011832  0.69704350  0.08707854  1  0  -0.576235  0  0.956687  0  0  -0.513811  0  1.235029  0  0  -0.530038  0  1.211015  0  0  -0.289974  -0.502013  0  1.251457  0
O  O124  1  0.64967899  0.06297837  0.23359174  1  0  -0.786513  0  2.057783  0  0  -0.698369  0  2.347292  0  0  -0.725491  0  2.324283  0  0  -0.356491  -0.679418  0  2.362696  0
O  O125  1  0.35032280  0.93702721  0.73359293  1  0  -0.786541  0  2.057772  0  0  -0.698379  0  2.347276  0  0  -0.725482  0  2.324259  0  0  -0.356514  -0.679428  0  2.362669  0
O  O126  1  0.77438898  0.40317932  0.19518818  1  0  -0.519185  0  2.240323  0  0  -0.429455  0  2.493467  0  0  -0.451867  0  2.486892  0  0  -0.209812  -0.413801  0  2.497576  0
O  O127  1  0.22560264  0.59682373  0.69519025  1  0  -0.519317  0  2.240388  0  0  -0.42961  0  2.493526  0  0  -0.452018  0  2.48696  0  0  -0.209878  -0.413955  0  2.497635  0
O  O128  1  0.42611138  0.21497010  0.22671776  1  0  -0.508489  0  2.220171  0  0  -0.418926  0  2.470028  0  0  -0.441055  0  2.46361  0  0  -0.207653  -0.403498  0  2.474048  0
O  O129  1  0.57388248  0.78502404  0.72671936  1  0  -0.508585  0  2.220173  0  0  -0.419027  0  2.470018  0  0  -0.441148  0  2.463597  0  0  -0.207708  -0.403609  0  2.474044  0
O  O130  1  0.83936366  0.54717773  0.48293386  1  0  -0.791116  0  2.06117  0  0  -0.702801  0  2.352039  0  0  -0.729551  0  2.328506  0  0  -0.357409  -0.684074  0  2.367781  0
O  O131  1  0.16063545  0.45282291  0.98293207  1  0  -0.791015  0  2.061354  0  0  -0.7027  0  2.35224  0  0  -0.729449  0  2.328707  0  0  -0.357319  -0.683975  0  2.367982  0
O  O132  1  0.05422044  0.41559496  0.44052754  1  0  -0.514907  0  2.231782  0  0  -0.424862  0  2.483426  0  0  -0.447279  0  2.476881  0  0  -0.209597  -0.409233  0  2.48755  0
O  O133  1  0.94578085  0.58440746  0.94052667  1  0  -0.514847  0  2.231724  0  0  -0.424831  0  2.483457  0  0  -0.447247  0  2.476912  0  0  -0.209589  -0.409221  0  2.487596  0
O  O134  1  0.19535166  0.76507737  0.47102207  1  0  -0.503027  0  2.223197  0  0  -0.414241  0  2.473452  0  0  -0.436096  0  2.466647  0  0  -0.206798  -0.398991  0  2.477752  0
O  O135  1  0.80464819  0.23492481  0.97102210  1  0  -0.503015  0  2.223191  0  0  -0.414235  0  2.473422  0  0  -0.436088  0  2.466616  0  0  -0.20682  -0.398981  0  2.477718  0
