# generated using pymatgen
data_CaH16C16(N5O3)2
_symmetry_space_group_name_H-M   'P 1'
_cell_length_a   7.90693649
_cell_length_b   10.12905036
_cell_length_c   14.42608835
_cell_angle_alpha   107.19069092
_cell_angle_beta   94.53772937
_cell_angle_gamma   96.15439351
_symmetry_Int_Tables_number   1
_chemical_formula_structural   CaH16C16(N5O3)2
_chemical_formula_sum   'Ca2 H32 C32 N20 O12'
_cell_volume   1089.91289406
_cell_formula_units_Z   2
loop_
 _symmetry_equiv_pos_site_id
 _symmetry_equiv_pos_as_xyz
  1  'x, y, z'
loop_
 _atom_site_type_symbol
 _atom_site_label
 _atom_site_symmetry_multiplicity
 _atom_site_fract_x
 _atom_site_fract_y
 _atom_site_fract_z
 _atom_site_occupancy
 _atom_site_hle17_bader_spin_density
 _atom_site_hle17_ddec_charge
 _atom_site_hle17_ddec_spin_density
 _atom_site_hle17_ddec_sum_bond_order
 _atom_site_hle17_magmom
 _atom_site_hse06_10hf_bader_spin_density
 _atom_site_hse06_10hf_ddec_charge
 _atom_site_hse06_10hf_ddec_spin_density
 _atom_site_hse06_10hf_ddec_sum_bond_order
 _atom_site_hse06_10hf_magmom
 _atom_site_hse06_bader_spin_density
 _atom_site_hse06_ddec_charge
 _atom_site_hse06_ddec_spin_density
 _atom_site_hse06_ddec_sum_bond_order
 _atom_site_hse06_magmom
 _atom_site_pbe_bader_spin_density
 _atom_site_pbe_cm5_charge
 _atom_site_pbe_ddec_charge
 _atom_site_pbe_ddec_spin_density
 _atom_site_pbe_ddec_sum_bond_order
 _atom_site_pbe_magmom
Ca  Ca0  1  0.75798998  0.99085406  0.03713901  1  0  1.557032  0  1.100357  0  0  1.428248  0  1.447964  0  0  1.473346  0  1.400461  0  0  0.880109  1.394766  0  1.481011  0
Ca  Ca1  1  0.24200711  0.00913689  0.96285646  1  0  1.557025  0  1.10037  0  0  1.428255  0  1.447932  0  0  1.473332  0  1.400467  0  0  0.880077  1.394764  0  1.481003  0
H  H2  1  0.38017550  0.24019978  0.69069192  1  0  0.100427  0  0.941977  0  0  0.111423  0  1.002188  0  0  0.114189  0  0.999794  0  0  0.111848  0.109438  0  1.003867  0
H  H3  1  0.61982137  0.75980469  0.30931194  1  0  0.100523  0  0.942043  0  0  0.111522  0  1.002227  0  0  0.114285  0  0.999837  0  0  0.111889  0.109536  0  1.003905  0
H  H4  1  0.44736021  0.87677722  0.45883297  1  0  0.060749  0  0.960702  0  0  0.068519  0  1.028484  0  0  0.071006  0  1.026296  0  0  0.104653  0.06669  0  1.030231  0
H  H5  1  0.55264934  0.12321278  0.54116064  1  0  0.06076  0  0.960528  0  0  0.068539  0  1.028329  0  0  0.071029  0  1.026135  0  0  0.10464  0.066711  0  1.030074  0
H  H6  1  0.37596323  0.65785879  0.88081852  1  0  0.093008  0  0.95011  0  0  0.097887  0  1.020557  0  0  0.101399  0  1.017663  0  0  0.125299  0.095275  0  1.022746  0
H  H7  1  0.62402258  0.34213935  0.11918641  1  0  0.093005  0  0.94987  0  0  0.097901  0  1.020336  0  0  0.101429  0  1.017394  0  0  0.125293  0.095279  0  1.022561  0
H  H8  1  0.05067923  0.35861982  0.91207226  1  0  0.130365  0  0.948954  0  0  0.132469  0  1.025881  0  0  0.135518  0  1.023477  0  0  0.129386  0.130249  0  1.027708  0
H  H9  1  0.94931328  0.64138256  0.08792408  1  0  0.130331  0  0.948907  0  0  0.132451  0  1.025834  0  0  0.1355  0  1.023431  0  0  0.129354  0.130231  0  1.027658  0
H  H10  1  0.94808435  0.23045192  0.80170968  1  0  0.131187  0  0.900523  0  0  0.147288  0  0.953148  0  0  0.149442  0  0.951794  0  0  0.132269  0.145775  0  0.954237  0
H  H11  1  0.05191663  0.76956408  0.19828911  1  0  0.131198  0  0.900567  0  0  0.147298  0  0.953212  0  0  0.149452  0  0.95186  0  0  0.13231  0.145786  0  0.9543  0
H  H12  1  0.11372790  0.58882103  0.52875447  1  0  0.077485  0  0.961987  0  0  0.077034  0  1.043306  0  0  0.080382  0  1.040123  0  0  0.111075  0.074366  0  1.046145  0
H  H13  1  0.88628384  0.41117524  0.47123846  1  0  0.077403  0  0.961883  0  0  0.076971  0  1.043189  0  0  0.080314  0  1.040005  0  0  0.111054  0.074302  0  1.046029  0
H  H14  1  0.40670495  0.74973003  0.70603084  1  0  0.131145  0  0.91426  0  0  0.143171  0  0.975314  0  0  0.144818  0  0.975444  0  0  0.132207  0.142048  0  0.975235  0
H  H15  1  0.59330332  0.25026208  0.29395277  1  0  0.131095  0  0.91428  0  0  0.14308  0  0.975366  0  0  0.144729  0  0.9755  0  0  0.132162  0.141957  0  0.97528  0
H  H16  1  0.48649228  0.92112650  0.70564505  1  0  0.131129  0  0.896819  0  0  0.147257  0  0.949875  0  0  0.149175  0  0.948927  0  0  0.13357  0.145959  0  0.950566  0
H  H17  1  0.51353875  0.07887822  0.29435585  1  0  0.131025  0  0.896846  0  0  0.147138  0  0.949935  0  0  0.149055  0  0.948991  0  0  0.133527  0.145838  0  0.950622  0
H  H18  1  0.28604949  0.07251296  0.53608049  1  0  0.095724  0  0.971692  0  0  0.104502  0  1.03571  0  0  0.107318  0  1.03523  0  0  0.10201  0.102388  0  1.03644  0
H  H19  1  0.71397256  0.92748231  0.46392227  1  0  0.095652  0  0.971746  0  0  0.104404  0  1.035778  0  0  0.107221  0  1.035297  0  0  0.101983  0.102295  0  1.036512  0
H  H20  1  0.96418339  0.47897352  0.66898829  1  0  0.082077  0  0.969529  0  0  0.082449  0  1.045962  0  0  0.085477  0  1.043404  0  0  0.112177  0.080223  0  1.047838  0
H  H21  1  0.03580772  0.52103404  0.33101880  1  0  0.08206  0  0.969464  0  0  0.08246  0  1.045869  0  0  0.085496  0  1.043302  0  0  0.112137  0.080233  0  1.047748  0
H  H22  1  0.09031270  0.25668923  0.61016303  1  0  0.092473  0  0.981964  0  0  0.102968  0  1.042578  0  0  0.104348  0  1.045094  0  0  0.101023  0.101836  0  1.041283  0
H  H23  1  0.90967755  0.74331205  0.38984687  1  0  0.092474  0  0.982043  0  0  0.102994  0  1.04261  0  0  0.104372  0  1.045132  0  0  0.101045  0.101874  0  1.041302  0
H  H24  1  0.02234388  0.01866951  0.61316579  1  0  0.099198  0  0.947011  0  0  0.110178  0  1.007445  0  0  0.113196  0  1.005462  0  0  0.108544  0.107887  0  1.009171  0
H  H25  1  0.97768422  0.98133100  0.38684243  1  0  0.099092  0  0.947219  0  0  0.110063  0  1.007674  0  0  0.113085  0  1.005695  0  0  0.108502  0.107775  0  1.009395  0
H  H26  1  0.05054395  0.15927446  0.16938802  1  0  0.433959  0  0.861165  0  0  0.402829  0  0.924801  0  0  0.41365  0  0.909025  0  0  0.300433  0.395126  0  0.936029  0
H  H27  1  0.94944024  0.84072993  0.83061609  1  0  0.433834  0  0.861333  0  0  0.40271  0  0.924975  0  0  0.413526  0  0.909202  0  0  0.30037  0.395005  0  0.936204  0
H  H28  1  0.90348579  0.25745363  0.19083165  1  0  0.386719  0  0.933592  0  0  0.343417  0  1.017586  0  0  0.354963  0  1.00109  0  0  0.279895  0.335276  0  1.029186  0
H  H29  1  0.09650209  0.74254973  0.80917376  1  0  0.386671  0  0.93366  0  0  0.343366  0  1.017649  0  0  0.354913  0  1.00115  0  0  0.279883  0.335224  0  1.029252  0
H  H30  1  0.48046608  0.79577423  0.06109880  1  0  0.428923  0  0.870494  0  0  0.396641  0  0.937126  0  0  0.407502  0  0.921245  0  0  0.297826  0.388912  0  0.948404  0
H  H31  1  0.51952762  0.20422711  0.93890013  1  0  0.428931  0  0.870505  0  0  0.396647  0  0.93714  0  0  0.407508  0  0.921258  0  0  0.297844  0.388918  0  0.94842  0
H  H32  1  0.61557920  0.70031798  0.01356409  1  0  0.391646  0  0.924734  0  0  0.35003  0  1.00775  0  0  0.360726  0  0.992206  0  0  0.286831  0.342512  0  1.018651  0
H  H33  1  0.38441426  0.29968126  0.98643717  1  0  0.391643  0  0.924734  0  0  0.350027  0  1.007752  0  0  0.360724  0  0.992208  0  0  0.28683  0.34251  0  1.01865  0
C  C34  1  0.88560511  0.19014436  0.93516959  1  0  0.714275  0  3.872004  0  0  0.66716  0  4.170412  0  0  0.700524  0  4.162953  0  0  0.230236  0.644384  0  4.174741  0
C  C35  1  0.11437746  0.80984959  0.06483296  1  0  0.714317  0  3.871917  0  0  0.667237  0  4.170286  0  0  0.700603  0  4.162827  0  0  0.230356  0.644458  0  4.174616  0
C  C36  1  0.58156881  0.87055081  0.83379232  1  0  0.701973  0  3.890437  0  0  0.652929  0  4.195337  0  0  0.685718  0  4.188673  0  0  0.225975  0.630666  0  4.199117  0
C  C37  1  0.41842154  0.12944014  0.16619114  1  0  0.701886  0  3.890911  0  0  0.65301  0  4.195581  0  0  0.685804  0  4.188926  0  0  0.226056  0.630744  0  4.199355  0
C  C38  1  0.56903616  0.44338860  0.83821943  1  0  0.278306  0  3.782431  0  0  0.251086  0  4.06417  0  0  0.26005  0  4.080212  0  0  0.232134  0.245005  0  4.053584  0
C  C39  1  0.43096046  0.55662212  0.16178643  1  0  0.278498  0  3.782511  0  0  0.251194  0  4.064249  0  0  0.260157  0  4.080296  0  0  0.232158  0.245114  0  4.053661  0
C  C40  1  0.40140627  0.44836757  0.79073523  1  0  -0.035513  0  3.78923  0  0  -0.014853  0  4.026018  0  0  -0.020626  0  4.04933  0  0  0.004994  -0.011359  0  4.010383  0
C  C41  1  0.59859252  0.55164321  0.20925962  1  0  -0.035913  0  3.790024  0  0  -0.015001  0  4.026498  0  0  -0.020781  0  4.04982  0  0  0.004981  -0.011502  0  4.010858  0
C  C42  1  0.04463058  0.79908325  0.57445264  1  0  -0.040067  0  3.791888  0  0  -0.017153  0  4.020696  0  0  -0.021609  0  4.042888  0  0  0.000169  -0.014409  0  4.005623  0
C  C43  1  0.95540183  0.20091935  0.42556172  1  0  -0.040221  0  3.792038  0  0  -0.017334  0  4.020914  0  0  -0.021793  0  4.043107  0  0  8.4e-05  -0.014589  0  4.005843  0
C  C44  1  0.88303538  0.76164312  0.60833661  1  0  0.258579  0  3.812087  0  0  0.235751  0  4.094532  0  0  0.244304  0  4.111038  0  0  0.220065  0.230012  0  4.083533  0
C  C45  1  0.11696554  0.23834891  0.39165506  1  0  0.258524  0  3.812337  0  0  0.235706  0  4.094789  0  0  0.244262  0  4.11129  0  0  0.220037  0.229967  0  4.083792  0
C  C46  1  0.31850344  0.33384918  0.71399823  1  0  -0.019903  0  3.683467  0  0  -0.046666  0  3.922165  0  0  -0.043405  0  3.940467  0  0  -0.055558  -0.048388  0  3.909638  0
C  C47  1  0.68148468  0.66616356  0.28600985  1  0  -0.019867  0  3.68335  0  0  -0.046685  0  3.92197  0  0  -0.043418  0  3.940265  0  0  -0.055533  -0.048408  0  3.909447  0
C  C48  1  0.33478388  0.85792494  0.49459974  1  0  0.109068  0  3.758514  0  0  0.080909  0  4.023902  0  0  0.086456  0  4.040978  0  0  0.036771  0.0773  0  4.0122  0
C  C49  1  0.66522222  0.14206089  0.50538525  1  0  0.109059  0  3.758248  0  0  0.08088  0  4.023635  0  0  0.086427  0  4.040707  0  0  0.036804  0.077273  0  4.011928  0
C  C50  1  0.31809835  0.56669848  0.82053806  1  0  0.098968  0  3.661628  0  0  0.057751  0  3.919376  0  0  0.06339  0  3.935949  0  0  0.057807  0.05426  0  3.908207  0
C  C51  1  0.68188664  0.43330901  0.17947574  1  0  0.099227  0  3.66159  0  0  0.057893  0  3.919312  0  0  0.063536  0  3.935901  0  0  0.057892  0.054406  0  3.908117  0
C  C52  1  0.93159480  0.29050153  0.87644895  1  0  -0.201325  0  3.609553  0  0  -0.267856  0  3.86207  0  0  -0.269114  0  3.866508  0  0  -0.038892  -0.26692  0  3.859133  0
C  C53  1  0.06840253  0.70948939  0.12355415  1  0  -0.201303  0  3.609771  0  0  -0.267876  0  3.8623  0  0  -0.269139  0  3.866749  0  0  -0.038934  -0.266936  0  3.859359  0
C  C54  1  0.14816068  0.69774225  0.53254360  1  0  0.088219  0  3.689945  0  0  0.055903  0  3.950531  0  0  0.060898  0  3.966266  0  0  0.049933  0.052884  0  3.939882  0
C  C55  1  0.85184760  0.30224152  0.46744033  1  0  0.088604  0  3.690048  0  0  0.056294  0  3.950618  0  0  0.0613  0  3.966343  0  0  0.05014  0.053276  0  3.939967  0
C  C56  1  0.52010450  0.82886175  0.72397756  1  0  -0.191059  0  3.610098  0  0  -0.26529  0  3.855095  0  0  -0.266521  0  3.86016  0  0  -0.035909  -0.264516  0  3.85176  0
C  C57  1  0.47990076  0.17113449  0.27601098  1  0  -0.190716  0  3.609917  0  0  -0.26491  0  3.854811  0  0  -0.266132  0  3.859859  0  0  -0.035796  -0.264134  0  3.851481  0
C  C58  1  0.24481920  0.96725093  0.53785747  1  0  -0.145703  0  3.795974  0  0  -0.157831  0  4.052403  0  0  -0.164791  0  4.075269  0  0  -0.094572  -0.153177  0  4.036878  0
C  C59  1  0.75521202  0.03274542  0.46214930  1  0  -0.145566  0  3.795804  0  0  -0.157648  0  4.052244  0  0  -0.16461  0  4.075112  0  0  -0.094503  -0.153004  0  4.036728  0
C  C60  1  0.08715582  0.46615031  0.70308091  1  0  0.122776  0  3.695689  0  0  0.091172  0  3.951372  0  0  0.096932  0  3.96966  0  0  0.04588  0.087651  0  3.939018  0
C  C61  1  0.91282116  0.53385505  0.29693078  1  0  0.122807  0  3.695722  0  0  0.091193  0  3.951383  0  0  0.096947  0  3.969668  0  0  0.045925  0.087671  0  3.939031  0
C  C62  1  0.15915386  0.34298455  0.67014891  1  0  -0.130693  0  3.760155  0  0  -0.138183  0  4.005488  0  0  -0.146533  0  4.030765  0  0  -0.087906  -0.132896  0  3.988798  0
C  C63  1  0.84085415  0.65702837  0.32984670  1  0  -0.130857  0  3.760166  0  0  -0.138384  0  4.005562  0  0  -0.146735  0  4.030836  0  0  -0.088012  -0.133107  0  3.988866  0
C  C64  1  0.09834128  0.93767111  0.57938854  1  0  -0.044723  0  3.716266  0  0  -0.071526  0  3.959865  0  0  -0.069187  0  3.97822  0  0  -0.06791  -0.072599  0  3.947195  0
C  C65  1  0.90169171  0.06232004  0.42061927  1  0  -0.044464  0  3.716075  0  0  -0.071262  0  3.959646  0  0  -0.068929  0  3.978006  0  0  -0.067825  -0.072337  0  3.946984  0
N  N66  1  0.66378677  0.34054484  0.80528520  1  0  -0.278001  0  2.798311  0  0  -0.276651  0  3.059573  0  0  -0.282655  0  3.07079  0  0  -0.189968  -0.272642  0  3.052194  0
N  N67  1  0.33620672  0.65946274  0.19471712  1  0  -0.277902  0  2.798567  0  0  -0.276556  0  3.059843  0  0  -0.282558  0  3.07106  0  0  -0.189965  -0.272547  0  3.052466  0
N  N68  1  0.80009630  0.37831720  0.87198811  1  0  0.201144  0  3.630698  0  0  0.268697  0  3.892895  0  0  0.264709  0  3.915572  0  0  0.000358  0.271081  0  3.877825  0
N  N69  1  0.19990838  0.62168942  0.12801230  1  0  0.201041  0  3.631142  0  0  0.268622  0  3.893295  0  0  0.264632  0  3.915975  0  0  0.000415  0.271007  0  3.878226  0
N  N70  1  0.16543952  0.57608984  0.77713891  1  0  -0.300657  0  3.142051  0  0  -0.238773  0  3.393237  0  0  -0.251961  0  3.408254  0  0  -0.300752  -0.230024  0  3.383048  0
N  N71  1  0.83455362  0.42391566  0.22286227  1  0  -0.30068  0  3.141867  0  0  -0.238808  0  3.393106  0  0  -0.251997  0  3.408127  0  0  -0.300777  -0.230054  0  3.382914  0
N  N72  1  0.64847136  0.53888475  0.92240569  1  0  -0.262484  0  2.994725  0  0  -0.226973  0  3.271931  0  0  -0.236134  0  3.2816  0  0  -0.172316  -0.220843  0  3.265625  0
N  N73  1  0.35151638  0.46111757  0.07760019  1  0  -0.262626  0  2.994275  0  0  -0.227144  0  3.271563  0  0  -0.236309  0  3.281232  0  0  -0.172448  -0.221012  0  3.265254  0
N  N74  1  0.77748977  0.85407341  0.64568166  1  0  -0.294646  0  2.819205  0  0  -0.301585  0  3.075444  0  0  -0.307653  0  3.086569  0  0  -0.200994  -0.297556  0  3.068383  0
N  N75  1  0.22253656  0.14593124  0.35433085  1  0  -0.294664  0  2.819296  0  0  -0.301578  0  3.075539  0  0  -0.30765  0  3.086665  0  0  -0.201019  -0.297547  0  3.068481  0
N  N76  1  0.81917869  0.62987121  0.60574797  1  0  -0.254304  0  2.946528  0  0  -0.232237  0  3.241985  0  0  -0.241319  0  3.251921  0  0  -0.181956  -0.226025  0  3.23547  0
N  N77  1  0.18082986  0.37012710  0.39425429  1  0  -0.254249  0  2.946595  0  0  -0.232177  0  3.24205  0  0  -0.241261  0  3.251988  0  0  -0.181917  -0.225964  0  3.235534  0
N  N78  1  0.65092817  0.77301849  0.66560338  1  0  0.191084  0  3.641033  0  0  0.287714  0  3.862171  0  0  0.284377  0  3.882694  0  0  -0.008139  0.289715  0  3.848494  0
N  N79  1  0.34908467  0.22698298  0.33439900  1  0  0.19086  0  3.64104  0  0  0.287432  0  3.862238  0  0  0.284091  0  3.882767  0  0  -0.008274  0.28943  0  3.84856  0
N  N80  1  0.79399861  0.49598129  0.94326371  1  0  -0.06451  0  2.853369  0  0  -0.070128  0  3.127127  0  0  -0.066061  0  3.13668  0  0  -0.055645  -0.072707  0  3.121004  0
N  N81  1  0.20599487  0.50402736  0.05673329  1  0  -0.064378  0  2.853173  0  0  -0.069991  0  3.126924  0  0  -0.065921  0  3.136475  0  0  -0.055552  -0.072566  0  3.120794  0
N  N82  1  0.67296548  0.63873970  0.64338470  1  0  -0.061609  0  2.814887  0  0  -0.086379  0  3.09103  0  0  -0.0798  0  3.09772  0  0  -0.067363  -0.090675  0  3.086807  0
N  N83  1  0.32703629  0.36125754  0.35660878  1  0  -0.061562  0  2.814959  0  0  -0.086339  0  3.091158  0  0  -0.079762  0  3.09785  0  0  -0.067326  -0.090633  0  3.086937  0
N  N84  1  0.29034063  0.72589121  0.49340204  1  0  -0.29046  0  3.059829  0  0  -0.261791  0  3.333918  0  0  -0.270646  0  3.347019  0  0  -0.324776  -0.255606  0  3.324865  0
N  N85  1  0.70966089  0.27409772  0.50658344  1  0  -0.29074  0  3.05997  0  0  -0.262086  0  3.334076  0  0  -0.270942  0  3.347177  0  0  -0.324931  -0.255899  0  3.32502  0
O  O86  1  0.47280560  0.91654158  0.89041261  1  0  -0.717924  0  2.010093  0  0  -0.655421  0  2.261118  0  0  -0.684625  0  2.252305  0  0  -0.368617  -0.634467  0  2.266192  0
O  O87  1  0.52716666  0.08343882  0.10957010  1  0  -0.71795  0  2.010738  0  0  -0.655457  0  2.261574  0  0  -0.684659  0  2.252746  0  0  -0.368668  -0.634525  0  2.266697  0
O  O88  1  0.00067028  0.11969540  0.95102949  1  0  -0.710374  0  1.993027  0  0  -0.646382  0  2.235881  0  0  -0.676076  0  2.227018  0  0  -0.362769  -0.625148  0  2.24107  0
O  O89  1  0.99931619  0.88031419  0.04898134  1  0  -0.710373  0  1.992865  0  0  -0.646459  0  2.235834  0  0  -0.676142  0  2.226942  0  0  -0.362975  -0.625226  0  2.241019  0
O  O90  1  0.73290774  0.85818528  0.86194839  1  0  -0.678586  0  1.994582  0  0  -0.621307  0  2.22714  0  0  -0.648056  0  2.218914  0  0  -0.333682  -0.602492  0  2.2322  0
O  O91  1  0.26705883  0.14180441  0.13804995  1  0  -0.678636  0  1.994474  0  0  -0.621426  0  2.226983  0  0  -0.648154  0  2.218701  0  0  -0.333708  -0.602598  0  2.232039  0
O  O92  1  0.73881105  0.18221590  0.96408255  1  0  -0.687411  0  2.003417  0  0  -0.627872  0  2.236004  0  0  -0.655249  0  2.227725  0  0  -0.334006  -0.608566  0  2.241196  0
O  O93  1  0.26116879  0.81777077  0.03590936  1  0  -0.687474  0  2.003521  0  0  -0.627939  0  2.2361  0  0  -0.655314  0  2.227816  0  0  -0.333956  -0.608632  0  2.241294  0
O  O94  1  0.92635792  0.15794614  0.17316357  1  0  -0.894698  0  1.826207  0  0  -0.839775  0  2.0174  0  0  -0.860936  0  1.985258  0  0  -0.638062  -0.824465  0  2.039718  0
O  O95  1  0.07363343  0.84205622  0.82683619  1  0  -0.89458  0  1.826389  0  0  -0.839667  0  2.017588  0  0  -0.860802  0  1.985445  0  0  -0.638011  -0.824354  0  2.039906  0
O  O96  1  0.60469635  0.78996178  0.06333472  1  0  -0.882907  0  1.812332  0  0  -0.830656  0  1.996639  0  0  -0.850792  0  1.965029  0  0  -0.633642  -0.816106  0  2.018469  0
O  O97  1  0.39530188  0.21003647  0.93666233  1  0  -0.882905  0  1.812324  0  0  -0.830656  0  1.996626  0  0  -0.850784  0  1.965008  0  0  -0.633661  -0.816108  0  2.018467  0
