# generated using pymatgen
data_Al4H19C32O24F
_symmetry_space_group_name_H-M   'P 1'
_cell_length_a   6.72587180
_cell_length_b   14.07192718
_cell_length_c   15.97368200
_cell_angle_alpha   89.08461502
_cell_angle_beta   89.29819775
_cell_angle_gamma   88.28178597
_symmetry_Int_Tables_number   1
_chemical_formula_structural   Al4H19C32O24F
_chemical_formula_sum   'Al4 H19 C32 O24 F1'
_cell_volume   1510.86737064
_cell_formula_units_Z   1
loop_
 _symmetry_equiv_pos_site_id
 _symmetry_equiv_pos_as_xyz
  1  'x, y, z'
loop_
 _atom_site_type_symbol
 _atom_site_label
 _atom_site_symmetry_multiplicity
 _atom_site_fract_x
 _atom_site_fract_y
 _atom_site_fract_z
 _atom_site_occupancy
 _atom_site_pbe_bader_charge
 _atom_site_pbe_bader_spin_density
 _atom_site_pbe_cm5_charge
 _atom_site_pbe_ddec_charge
 _atom_site_pbe_ddec_spin_density
 _atom_site_pbe_ddec_sum_bond_order
 _atom_site_pbe_magmom
Al  Al0  1  0.90443826  0.50094172  0.50006623  1  2.502851  0  0.401661  1.641159  0  2.567247  0
Al  Al1  1  0.40401663  0.50190306  0.49854408  1  2.505238  0  0.401505  1.646307  0  2.575621  0
Al  Al2  1  0.36362731  0.00593425  0.00055782  1  2.498545  0  0.400514  1.631755  0  2.566125  0
Al  Al3  1  0.86637585  0.00268298  0.99957994  1  2.500752  0  0.39822  1.649468  0  2.567668  0
H  H4  1  0.43539158  0.79687532  0.81611979  1  0.08633  0  0.111875  0.106733  0  0.980173  0
H  H5  1  0.97897708  0.80099979  0.80002187  1  0.059043  0  0.110556  0.125942  0  0.993154  0
H  H6  1  0.44458907  0.68182971  0.70105954  1  0.106072  0  0.115235  0.113812  0  0.976759  0
H  H7  1  0.98714294  0.70331445  0.69775082  1  0.105793  0  0.11194  0.126825  0  0.99028  0
H  H8  1  0.83581485  0.78069558  0.16426676  1  0.120389  0  0.110797  0.114745  0  0.995478  0
H  H9  1  0.84534616  0.65804802  0.28040080  1  0.101574  0  0.109516  0.114128  0  0.995004  0
H  H10  1  0.43225938  0.74284980  0.34459755  1  0.090462  0  0.107321  0.10819  0  1.001546  0
H  H11  1  0.42298807  0.86507631  0.22817520  1  0.109671  0  0.114172  0.120774  0  0.984344  0
H  H12  1  0.91828203  0.36575541  0.74359058  1  0.115214  0  0.116777  0.126171  0  0.982732  0
H  H13  1  0.34099380  0.15258435  0.76554092  1  0.127246  0  0.114813  0.121257  0  0.986436  0
H  H14  1  0.36689707  0.27022448  0.64590393  1  0.112408  0  0.115995  0.123367  0  0.985381  0
H  H15  1  0.31501151  0.19352469  0.21271441  1  0.133438  0  0.106859  0.10399  0  1.110527  0
H  H16  1  0.34144410  0.31204918  0.32445421  1  0.128299  0  0.109022  0.116207  0  1.022709  0
H  H17  1  0.93488474  0.27606238  0.00568058  1  0.628741  0  0.321848  0.374168  0  0.906741  0
H  H18  1  0.20295565  0.18259360  0.08765979  1  0.676796  0  0.327926  0.382115  0  0.910165  0
H  H19  1  0.64968374  0.62325273  0.47448495  1  0.607323  0  0.351981  0.429136  0  0.855391  0
H  H20  1  0.15973775  0.38376767  0.46539749  1  0.623135  0  0.350623  0.428495  0  0.860151  0
H  H21  1  0.61529545  0.88222310  0.98512212  1  0.618348  0  0.35347  0.430858  0  0.851731  0
H  H22  1  0.11261620  0.11539354  0.95026505  1  0.62249  0  0.330012  0.408017  0  0.91716  0
C  C23  1  0.66139291  0.38820747  0.61272584  1  1.581141  0  0.273132  0.641202  0  4.095266  0
C  C24  1  0.65930003  0.39070577  0.38439411  1  1.596132  0  0.271706  0.664145  0  4.078508  0
C  C25  1  0.14267103  0.62113950  0.38841594  1  1.570572  0  0.268241  0.64364  0  4.091523  0
C  C26  1  0.15138508  0.61050640  0.61286861  1  1.551459  0  0.262314  0.67469  0  4.1209  0
C  C27  1  0.29338526  0.77709606  0.78986418  1  0.001701  0  -0.064292  -0.016292  0  3.974133  0
C  C28  1  0.12594843  0.81685669  0.82323515  1  -0.037976  0  -0.084176  -0.230268  0  3.879743  0
C  C29  1  0.29907631  0.70986294  0.72173698  1  -0.036682  0  -0.065042  -0.02398  0  3.971025  0
C  C30  1  0.13807363  0.67882312  0.68186237  1  -0.046713  0  -0.079946  -0.222596  0  3.868433  0
C  C31  1  0.96513910  0.77180606  0.20437680  1  -0.039001  0  -0.078087  -0.090516  0  3.968821  0
C  C32  1  0.97039064  0.70408700  0.26867354  1  -0.025866  0  -0.079751  -0.094225  0  3.975664  0
C  C33  1  0.13926519  0.69352491  0.31909291  1  -0.051598  0  -0.011109  -0.037802  0  3.970026  0
C  C34  1  0.30271103  0.75146621  0.30459609  1  -0.032169  0  -0.079809  -0.092464  0  3.976701  0
C  C35  1  0.29780914  0.81916039  0.24019822  1  -0.014839  0  -0.074749  -0.084829  0  3.956019  0
C  C36  1  0.12896816  0.82944259  0.18982191  1  -0.048094  0  -0.006064  -0.031569  0  3.957294  0
C  C37  1  0.79194427  0.31921804  0.74897035  1  0.019628  0  -0.068898  -0.110931  0  3.9215  0
C  C38  1  0.77193439  0.25777602  0.81779093  1  -0.047038  0  -9.2e-05  -0.035502  0  3.933239  0
C  C39  1  0.61180332  0.19524994  0.82152158  1  0.055454  0  -0.000732  -0.04932  0  3.918926  0
C  C40  1  0.46559908  0.19998409  0.76004948  1  -0.043117  0  -0.06943  -0.067656  0  3.959734  0
C  C41  1  0.48090869  0.26447663  0.69370193  1  -0.01635  0  -0.071443  -0.085743  0  3.952305  0
C  C42  1  0.64636319  0.32244236  0.68677578  1  -0.036649  0  -0.00568  -0.029993  0  3.967822  0
C  C43  1  0.82448337  0.28782191  0.26904857  1  0.444171  0  0.117259  0.258998  0  3.994864  0
C  C44  1  0.81210715  0.22319658  0.20404482  1  0.031684  0  -0.012059  -0.160707  0  3.9688  0
C  C45  1  0.62435236  0.19240104  0.18049452  1  -0.045325  0  0.00061  -0.026553  0  3.93919  0
C  C46  1  0.45677742  0.22373014  0.22558746  1  0.085975  0  -0.087802  -0.1013  0  3.982369  0
C  C47  1  0.47299555  0.28760486  0.29002413  1  0.007144  0  -0.074103  -0.059461  0  3.960391  0
C  C48  1  0.65707442  0.32250672  0.31319722  1  -0.019929  0  -0.013139  -0.140688  0  3.953912  0
C  C49  1  0.61023848  0.12470030  0.10962674  1  1.571039  0  0.276972  0.645875  0  4.049722  0
C  C50  1  0.60637382  0.11903814  0.88709274  1  1.565912  0  0.273556  0.650023  0  4.088271  0
C  C51  1  0.12341652  0.88422168  0.89282566  1  1.547869  0  0.25918  0.680394  0  4.111036  0
C  C52  1  0.12531213  0.89960835  0.11905736  1  1.568908  0  0.274596  0.649733  0  4.086469  0
C  C53  1  0.91947469  0.25837792  0.88749134  1  1.537549  0  0.239917  0.593713  0  4.118068  0
C  C54  1  0.99975512  0.17691085  0.17117936  1  1.584553  0  0.240199  0.609914  0  4.124178  0
O  O55  1  0.48891523  0.42557358  0.40502359  1  -1.25828  0  -0.234349  -0.594862  0  2.350761  0
O  O56  1  0.83072421  0.42091481  0.59357387  1  -1.255195  0  -0.231282  -0.577088  0  2.312952  0
O  O57  1  0.98638521  0.59203037  0.57880161  1  -1.2463  0  -0.237862  -0.593199  0  2.3134  0
O  O58  1  0.82370898  0.40695894  0.41930169  1  -1.24153  0  -0.236202  -0.598271  0  2.331525  0
O  O59  1  0.97638911  0.58553184  0.40885732  1  -1.259513  0  -0.238577  -0.60152  0  2.348363  0
O  O60  1  0.50065063  0.40522149  0.57326157  1  -1.258199  0  -0.233007  -0.591378  0  2.368245  0
O  O61  1  0.65121683  0.55956353  0.49844192  1  -1.412279  0  -0.449518  -0.990992  0  2.186963  0
O  O62  1  0.31014940  0.60122537  0.42229609  1  -1.261198  0  -0.238821  -0.605434  0  2.339307  0
O  O63  1  0.32193402  0.57613558  0.59203859  1  -1.264434  0  -0.23492  -0.590001  0  2.326279  0
O  O64  1  0.15770591  0.44251866  0.49632521  1  -1.426627  0  -0.448318  -0.985968  0  2.166163  0
O  O65  1  0.77476407  0.09214104  0.91631877  1  -1.254179  0  -0.230716  -0.603516  0  2.410254  0
O  O66  1  0.44073714  0.10872281  0.07787374  1  -1.23968  0  -0.225608  -0.574231  0  2.324227  0
O  O67  1  0.29038327  0.93465424  0.09670086  1  -1.257465  0  -0.231867  -0.590609  0  2.363221  0
O  O68  1  0.43896228  0.08556999  0.90768732  1  -1.259899  0  -0.230718  -0.582619  0  2.358332  0
O  O69  1  0.28778130  0.90627252  0.92564709  1  -1.265582  0  -0.242384  -0.611641  0  2.317848  0
O  O70  1  0.77434876  0.08793317  0.08473511  1  -1.236506  0  -0.211913  -0.561685  0  2.42639  0
O  O71  1  0.61650757  0.94743943  0.00361024  1  -1.421121  0  -0.448383  -0.987413  0  2.18073  0
O  O72  1  0.94955000  0.91495364  0.91490968  1  -1.250508  0  -0.243622  -0.60853  0  2.299511  0
O  O73  1  0.95832448  0.91746133  0.08450701  1  -1.261475  0  -0.231755  -0.593089  0  2.353669  0
O  O74  1  0.11162550  0.06439230  0.99277628  1  -1.429244  0  -0.452972  -0.989677  0  2.18796  0
O  O75  1  0.09694821  0.23753014  0.87922240  1  -1.146642  0  -0.279884  -0.489157  0  2.139503  0
O  O76  1  0.83568021  0.28613177  0.96071861  1  -1.12665  0  -0.335714  -0.478336  0  2.228748  0
O  O77  1  0.07662366  0.10892996  0.20810156  1  -1.119011  0  -0.267803  -0.447236  0  2.098306  0
O  O78  1  0.08258393  0.22171192  0.10441978  1  -1.179517  0  -0.327138  -0.49608  0  2.298935  0
F  F79  1  0.00918360  0.31644156  0.28873515  1  -0.62867  0  -0.080585  -0.121016  0  1.392287  0
