# generated using pymatgen
data_NaB2H15C16O13
_symmetry_space_group_name_H-M   'P 1'
_cell_length_a   6.59802937
_cell_length_b   7.08759009
_cell_length_c   19.34484428
_cell_angle_alpha   79.61027586
_cell_angle_beta   81.40802336
_cell_angle_gamma   83.91994033
_symmetry_Int_Tables_number   1
_chemical_formula_structural   NaB2H15C16O13
_chemical_formula_sum   'Na2 B4 H30 C32 O26'
_cell_volume   876.92041008
_cell_formula_units_Z   2
loop_
 _symmetry_equiv_pos_site_id
 _symmetry_equiv_pos_as_xyz
  1  'x, y, z'
loop_
 _atom_site_type_symbol
 _atom_site_label
 _atom_site_symmetry_multiplicity
 _atom_site_fract_x
 _atom_site_fract_y
 _atom_site_fract_z
 _atom_site_occupancy
 _atom_site_hle17_bader_spin_density
 _atom_site_hle17_ddec_charge
 _atom_site_hle17_ddec_spin_density
 _atom_site_hle17_ddec_sum_bond_order
 _atom_site_hle17_magmom
 _atom_site_hse06_10hf_bader_spin_density
 _atom_site_hse06_10hf_ddec_charge
 _atom_site_hse06_10hf_ddec_spin_density
 _atom_site_hse06_10hf_ddec_sum_bond_order
 _atom_site_hse06_10hf_magmom
 _atom_site_hse06_bader_spin_density
 _atom_site_hse06_ddec_charge
 _atom_site_hse06_ddec_spin_density
 _atom_site_hse06_ddec_sum_bond_order
 _atom_site_hse06_magmom
 _atom_site_pbe_bader_spin_density
 _atom_site_pbe_cm5_charge
 _atom_site_pbe_ddec_charge
 _atom_site_pbe_ddec_spin_density
 _atom_site_pbe_ddec_sum_bond_order
 _atom_site_pbe_magmom
Na  Na0  1  0.52485564  0.73471936  0.00915999  1  0  0.900536  0  0.354778  0  0  0.854963  0  0.508101  0  0  0.865994  0  0.484047  0  0  0.645543  0.846647  0  0.525545  0
Na  Na1  1  0.47515696  0.26527522  0.99083677  1  0  0.900534  0  0.354767  0  0  0.854971  0  0.508066  0  0  0.865995  0  0.484014  0  0  0.645536  0.846655  0  0.525514  0
B  B2  1  0.81112504  0.50555174  0.16159450  1  0  0.892711  0  2.900397  0  0  0.735273  0  3.236608  0  0  0.765017  0  3.21535  0  0  -0.020074  0.714443  0  3.251671  0
B  B3  1  0.18887517  0.49444417  0.83840487  1  0  0.892501  0  2.900796  0  0  0.735209  0  3.23669  0  0  0.764973  0  3.215388  0  0  -0.020128  0.714374  0  3.251764  0
B  B4  1  0.75726741  0.12412343  0.14497905  1  0  0.893801  0  2.914259  0  0  0.735806  0  3.251885  0  0  0.764865  0  3.232973  0  0  -0.020778  0.715268  0  3.265839  0
B  B5  1  0.24273153  0.87586957  0.85502213  1  0  0.89368  0  2.914438  0  0  0.735723  0  3.251968  0  0  0.764782  0  3.23306  0  0  -0.020825  0.71519  0  3.265916  0
H  H6  1  0.01493186  0.27618899  0.13705944  1  0  0.430256  0  0.850723  0  0  0.396441  0  0.926481  0  0  0.40825  0  0.913072  0  0  0.345555  0.388163  0  0.935882  0
H  H7  1  0.98506528  0.72380689  0.86294061  1  0  0.430233  0  0.850769  0  0  0.39644  0  0.926513  0  0  0.408248  0  0.913106  0  0  0.345557  0.388162  0  0.935918  0
H  H8  1  0.02731674  0.35692636  0.29524105  1  0  0.095725  0  0.956948  0  0  0.101396  0  1.028502  0  0  0.104883  0  1.025886  0  0  0.104456  0.098849  0  1.030509  0
H  H9  1  0.97268067  0.64306665  0.70475916  1  0  0.095698  0  0.956949  0  0  0.10135  0  1.028536  0  0  0.104834  0  1.025929  0  0  0.10445  0.098802  0  1.030542  0
H  H10  1  0.08332811  0.63580946  0.15585435  1  0  0.423015  0  0.878929  0  0  0.393069  0  0.941884  0  0  0.402973  0  0.927561  0  0  0.318005  0.386112  0  0.951929  0
H  H11  1  0.91667182  0.36418934  0.84414382  1  0  0.423012  0  0.878901  0  0  0.393019  0  0.941952  0  0  0.402921  0  0.927633  0  0  0.317952  0.386062  0  0.951997  0
H  H12  1  0.48037849  0.46500705  0.43963662  1  0  0.11069  0  0.964932  0  0  0.115695  0  1.033102  0  0  0.119477  0  1.030256  0  0  0.106183  0.112917  0  1.035311  0
H  H13  1  0.51961755  0.53500033  0.56036377  1  0  0.110668  0  0.965001  0  0  0.115702  0  1.033148  0  0  0.119489  0  1.030286  0  0  0.106181  0.112923  0  1.03536  0
H  H14  1  0.87702234  0.30450906  0.53569378  1  0  0.395668  0  0.897264  0  0  0.36349  0  0.975788  0  0  0.376684  0  0.962188  0  0  0.305318  0.354269  0  0.985183  0
H  H15  1  0.12296744  0.69549972  0.46430683  1  0  0.395685  0  0.897165  0  0  0.363566  0  0.975594  0  0  0.37676  0  0.961991  0  0  0.305373  0.354343  0  0.984994  0
H  H16  1  0.28473539  0.59781177  0.33734301  1  0  0.11232  0  0.951181  0  0  0.118851  0  1.016366  0  0  0.122664  0  1.013612  0  0  0.107656  0.11602  0  1.018574  0
H  H17  1  0.71526372  0.40219565  0.66265619  1  0  0.112351  0  0.951231  0  0  0.118876  0  1.016418  0  0  0.122687  0  1.013664  0  0  0.107669  0.116045  0  1.018627  0
H  H18  1  0.89455914  0.86645728  0.11683904  1  0  0.41926  0  0.881724  0  0  0.387176  0  0.95085  0  0  0.397856  0  0.93547  0  0  0.318605  0.379665  0  0.96164  0
H  H19  1  0.10544414  0.13353866  0.88315863  1  0  0.419266  0  0.881747  0  0  0.387163  0  0.950889  0  0  0.397844  0  0.935508  0  0  0.318598  0.379651  0  0.961681  0
H  H20  1  0.97688173  0.91799900  0.27259431  1  0  0.104451  0  0.939813  0  0  0.110895  0  1.008998  0  0  0.114803  0  1.005736  0  0  0.107656  0.10788  0  1.011711  0
H  H21  1  0.02311372  0.08199828  0.72740934  1  0  0.104425  0  0.939883  0  0  0.110854  0  1.009076  0  0  0.114735  0  1.005851  0  0  0.107644  0.107839  0  1.011787  0
H  H22  1  0.82088026  0.81243222  0.51449599  1  0  0.393547  0  0.901831  0  0  0.36154  0  0.980798  0  0  0.374837  0  0.966806  0  0  0.30349  0.352252  0  0.990458  0
H  H23  1  0.17911298  0.18757226  0.48550524  1  0  0.393543  0  0.901808  0  0  0.361548  0  0.980749  0  0  0.374829  0  0.966793  0  0  0.303524  0.35226  0  0.990409  0
H  H24  1  0.82124241  0.40639129  0.03112683  1  0  0.420952  0  0.873153  0  0  0.394661  0  0.932522  0  0  0.404675  0  0.917496  0  0  0.308355  0.387486  0  0.943322  0
H  H25  1  0.17876253  0.59360323  0.96887084  1  0  0.420981  0  0.87312  0  0  0.394693  0  0.932477  0  0  0.404709  0  0.917448  0  0  0.308379  0.387518  0  0.943277  0
H  H26  1  0.86296325  0.43016504  0.94811774  1  0  0.424047  0  0.878413  0  0  0.392939  0  0.942615  0  0  0.403786  0  0.926516  0  0  0.295417  0.385261  0  0.954024  0
H  H27  1  0.13704016  0.56982947  0.05188001  1  0  0.423995  0  0.878502  0  0  0.392911  0  0.942671  0  0  0.403758  0  0.926572  0  0  0.295391  0.385235  0  0.954077  0
H  H28  1  0.42369874  0.94880667  0.42149516  1  0  0.111646  0  0.950579  0  0  0.119452  0  1.012609  0  0  0.12298  0  1.010289  0  0  0.108974  0.116879  0  1.014437  0
H  H29  1  0.57629911  0.05121365  0.57850843  1  0  0.111709  0  0.95049  0  0  0.119438  0  1.012643  0  0  0.122969  0  1.010317  0  0  0.108927  0.116865  0  1.014473  0
H  H30  1  0.85090216  0.98701191  0.94213809  1  0  0.424647  0  0.874246  0  0  0.396933  0  0.932611  0  0  0.406966  0  0.917722  0  0  0.294483  0.389811  0  0.943189  0
H  H31  1  0.14912284  0.01298131  0.05785866  1  0  0.424657  0  0.87421  0  0  0.396904  0  0.932661  0  0  0.40694  0  0.917765  0  0  0.294502  0.389777  0  0.943249  0
H  H32  1  0.78919995  0.00356387  0.02168485  1  0  0.410362  0  0.903644  0  0  0.380978  0  0.965619  0  0  0.391747  0  0.94972  0  0  0.288702  0.373375  0  0.976831  0
H  H33  1  0.21081239  0.99643360  0.97831019  1  0  0.41028  0  0.903761  0  0  0.380936  0  0.965662  0  0  0.391706  0  0.949764  0  0  0.288724  0.373342  0  0.976864  0
H  H34  1  0.21668888  0.08020444  0.32278665  1  0  0.102863  0  0.967065  0  0  0.107013  0  1.040312  0  0  0.110636  0  1.037215  0  0  0.105247  0.104316  0  1.042771  0
H  H35  1  0.78330715  0.91980293  0.67721581  1  0  0.102863  0  0.967065  0  0  0.107015  0  1.040308  0  0  0.110641  0  1.037204  0  0  0.105252  0.104316  0  1.042776  0
C  C36  1  0.75737012  0.47850192  0.24619971  1  0  -0.288419  0  3.747559  0  0  -0.252263  0  3.98946  0  0  -0.259236  0  4.011979  0  0  -0.010962  -0.247567  0  3.974424  0
C  C37  1  0.24263093  0.52150118  0.75380019  1  0  -0.288254  0  3.747791  0  0  -0.252098  0  3.989591  0  0  -0.259091  0  4.012135  0  0  -0.010871  -0.247401  0  3.974553  0
C  C38  1  0.86556937  0.40895580  0.30316077  1  0  -0.008403  0  3.690448  0  0  -0.042797  0  3.942853  0  0  -0.041709  0  3.9622  0  0  -0.067262  -0.043404  0  3.929881  0
C  C39  1  0.13444128  0.59104305  0.69683892  1  0  -0.008341  0  3.690679  0  0  -0.042746  0  3.943112  0  0  -0.041653  0  3.962464  0  0  -0.067319  -0.043351  0  3.930137  0
C  C40  1  0.76385249  0.40572012  0.37263125  1  0  -0.077481  0  3.749063  0  0  -0.057858  0  3.990441  0  0  -0.066939  0  4.015089  0  0  -0.013722  -0.051816  0  3.973705  0
C  C41  1  0.23614229  0.59428438  0.62736887  1  0  -0.077489  0  3.749063  0  0  -0.057879  0  3.990469  0  0  -0.066959  0  4.015112  0  0  -0.01366  -0.051837  0  3.973731  0
C  C42  1  0.55507486  0.47090947  0.38533547  1  0  -0.054967  0  3.674785  0  0  -0.082768  0  3.929862  0  0  -0.083392  0  3.949871  0  0  -0.078225  -0.08217  0  3.916312  0
C  C43  1  0.44492633  0.52909220  0.61466399  1  0  -0.054946  0  3.674597  0  0  -0.082775  0  3.929682  0  0  -0.083397  0  3.949691  0  0  -0.078225  -0.082176  0  3.916133  0
C  C44  1  0.44569452  0.54366089  0.32875745  1  0  -0.04327  0  3.691629  0  0  -0.065906  0  3.943938  0  0  -0.066329  0  3.963815  0  0  -0.073456  -0.065609  0  3.930631  0
C  C45  1  0.55430707  0.45633645  0.67124382  1  0  -0.043266  0  3.691602  0  0  -0.065913  0  3.943936  0  0  -0.066337  0  3.963813  0  0  -0.073464  -0.065618  0  3.930634  0
C  C46  1  0.55024283  0.54653916  0.26046420  1  0  -0.069642  0  3.83059  0  0  -0.054864  0  4.059768  0  0  -0.063097  0  4.085722  0  0  -0.004776  -0.049358  0  4.042305  0
C  C47  1  0.44975624  0.45345240  0.73953706  1  0  -0.069729  0  3.830606  0  0  -0.054959  0  4.059792  0  0  -0.063188  0  4.085753  0  0  -0.004805  -0.049453  0  4.04233  0
C  C48  1  0.46436203  0.61762296  0.19330740  1  0  0.639637  0  3.810148  0  0  0.58657  0  4.111489  0  0  0.61938  0  4.102691  0  0  0.252763  0.564228  0  4.116992  0
C  C49  1  0.53564082  0.38237727  0.80669362  1  0  0.63964  0  3.810131  0  0  0.586569  0  4.111473  0  0  0.619378  0  4.102677  0  0  0.252736  0.564227  0  4.116977  0
C  C50  1  0.88107006  0.33185189  0.43288651  1  0  0.657448  0  3.795623  0  0  0.601795  0  4.098611  0  0  0.636702  0  4.088406  0  0  0.237651  0.57815  0  4.10488  0
C  C51  1  0.11893586  0.66814839  0.56711126  1  0  0.657436  0  3.795491  0  0  0.601806  0  4.098456  0  0  0.636716  0  4.088253  0  0  0.237636  0.57816  0  4.104723  0
C  C52  1  0.69978433  0.04009297  0.22737128  1  0  -0.293764  0  3.745377  0  0  -0.258136  0  3.990441  0  0  -0.265248  0  4.012428  0  0  -0.011746  -0.253304  0  3.975704  0
C  C53  1  0.30021239  0.95990721  0.77263058  1  0  -0.293794  0  3.745465  0  0  -0.258181  0  3.990484  0  0  -0.265294  0  4.01247  0  0  -0.011735  -0.253348  0  3.975744  0
C  C54  1  0.81161937  0.95542281  0.28226092  1  0  -0.005408  0  3.67368  0  0  -0.039762  0  3.925472  0  0  -0.03823  0  3.944398  0  0  -0.065391  -0.040626  0  3.91283  0
C  C55  1  0.18837694  0.04458169  0.71774068  1  0  -0.005303  0  3.67367  0  0  -0.039623  0  3.925448  0  0  -0.038082  0  3.94437  0  0  -0.065333  -0.040486  0  3.912804  0
C  C56  1  0.70901278  0.92430761  0.35197831  1  0  -0.081239  0  3.747738  0  0  -0.058007  0  3.983117  0  0  -0.067496  0  4.00858  0  0  -0.01207  -0.051735  0  3.965849  0
C  C57  1  0.29098020  0.07569976  0.64802172  1  0  -0.081363  0  3.747763  0  0  -0.05817  0  3.983229  0  0  -0.067623  0  4.008637  0  0  -0.012106  -0.051896  0  3.965962  0
C  C58  1  0.49626877  0.97194316  0.36669866  1  0  -0.046047  0  3.668116  0  0  -0.071549  0  3.918193  0  0  -0.071817  0  3.938251  0  0  -0.073461  -0.071183  0  3.904523  0
C  C59  1  0.50372739  0.02806278  0.63330337  1  0  -0.045909  0  3.667928  0  0  -0.071399  0  3.918061  0  0  -0.071679  0  3.938113  0  0  -0.073377  -0.071034  0  3.904394  0
C  C60  1  0.38155416  0.04580502  0.31183824  1  0  -0.041099  0  3.694161  0  0  -0.067935  0  3.954074  0  0  -0.067931  0  3.972617  0  0  -0.072974  -0.067828  0  3.941538  0
C  C61  1  0.61844075  0.95419801  0.68816456  1  0  -0.041204  0  3.694239  0  0  -0.068015  0  3.954124  0  0  -0.06801  0  3.972671  0  0  -0.073029  -0.067906  0  3.941585  0
C  C62  1  0.48657864  0.07844261  0.24329680  1  0  -0.07229  0  3.831863  0  0  -0.060007  0  4.064694  0  0  -0.067794  0  4.089681  0  0  -0.008962  -0.054721  0  4.047695  0
C  C63  1  0.51341767  0.92156188  0.75670532  1  0  -0.072218  0  3.831965  0  0  -0.059906  0  4.064741  0  0  -0.067692  0  4.089733  0  0  -0.008929  -0.05462  0  4.047742  0
C  C64  1  0.39694834  0.16373262  0.17786004  1  0  0.657671  0  3.802015  0  0  0.604145  0  4.098708  0  0  0.637972  0  4.088993  0  0  0.260138  0.581274  0  4.104601  0
C  C65  1  0.60304907  0.83626038  0.82214069  1  0  0.65767  0  3.80225  0  0  0.604118  0  4.098966  0  0  0.637942  0  4.089254  0  0  0.260169  0.581249  0  4.104855  0
C  C66  1  0.82746564  0.84595732  0.41159300  1  0  0.660179  0  3.800132  0  0  0.603721  0  4.104541  0  0  0.638119  0  4.095508  0  0  0.240626  0.580437  0  4.11002  0
C  C67  1  0.17253582  0.15404147  0.58840664  1  0  0.660123  0  3.800012  0  0  0.603639  0  4.104479  0  0  0.638028  0  4.095445  0  0  0.240607  0.580353  0  4.109957  0
O  O68  1  0.86561403  0.31529167  0.13021678  1  0  -0.710072  0  2.260622  0  0  -0.599237  0  2.485593  0  0  -0.623548  0  2.469068  0  0  -0.240435  -0.581937  0  2.496361  0
O  O69  1  0.13438310  0.68470421  0.86978378  1  0  -0.709967  0  2.260722  0  0  -0.599202  0  2.485593  0  0  -0.623532  0  2.469102  0  0  -0.240414  -0.581904  0  2.496358  0
O  O70  1  0.60729121  0.59314068  0.13723538  1  0  -0.566553  0  2.13595  0  0  -0.487654  0  2.37997  0  0  -0.509809  0  2.368682  0  0  -0.191683  -0.472084  0  2.387143  0
O  O71  1  0.39270926  0.40685234  0.86276520  1  0  -0.566534  0  2.136045  0  0  -0.487667  0  2.380029  0  0  -0.509811  0  2.368715  0  0  -0.191691  -0.472094  0  2.387199  0
O  O72  1  0.97077138  0.62976088  0.12755266  1  0  -0.811184  0  2.078533  0  0  -0.720853  0  2.283188  0  0  -0.745432  0  2.261294  0  0  -0.37797  -0.70348  0  2.298273  0
O  O73  1  0.02922757  0.37023215  0.87244645  1  0  -0.811172  0  2.078521  0  0  -0.72082  0  2.283177  0  0  -0.745407  0  2.261286  0  0  -0.377887  -0.703441  0  2.298258  0
O  O74  1  0.28887539  0.69125090  0.18681963  1  0  -0.549487  0  1.974376  0  0  -0.502563  0  2.192653  0  0  -0.522459  0  2.182337  0  0  -0.277333  -0.488848  0  2.19942  0
O  O75  1  0.71112539  0.30875509  0.81317958  1  0  -0.549481  0  1.974418  0  0  -0.502538  0  2.192709  0  0  -0.522431  0  2.182392  0  0  -0.2773  -0.488829  0  2.199491  0
O  O76  1  0.78758367  0.36238740  0.49565817  1  0  -0.536782  0  2.120607  0  0  -0.482349  0  2.34487  0  0  -0.504873  0  2.33031  0  0  -0.316867  -0.466696  0  2.354387  0
O  O77  1  0.21241098  0.63761855  0.50434135  1  0  -0.536721  0  2.120806  0  0  -0.482303  0  2.34499  0  0  -0.504825  0  2.330431  0  0  -0.316835  -0.466647  0  2.354504  0
O  O78  1  0.05686769  0.24719384  0.42386548  1  0  -0.562612  0  2.008624  0  0  -0.506668  0  2.226737  0  0  -0.529801  0  2.218233  0  0  -0.279827  -0.490731  0  2.232172  0
O  O79  1  0.94312054  0.75281491  0.57613677  1  0  -0.562735  0  2.008214  0  0  -0.506803  0  2.226321  0  0  -0.52995  0  2.217812  0  0  -0.279896  -0.490856  0  2.231736  0
O  O80  1  0.54297676  0.18653471  0.12197776  1  0  -0.565789  0  2.162879  0  0  -0.485198  0  2.403618  0  0  -0.508394  0  2.394012  0  0  -0.189465  -0.46907  0  2.409739  0
O  O81  1  0.45702120  0.81345254  0.87802229  1  0  -0.565817  0  2.163  0  0  -0.485195  0  2.403729  0  0  -0.508392  0  2.394128  0  0  -0.189496  -0.469069  0  2.409846  0
O  O82  1  0.87975855  0.00761159  0.09858254  1  0  -0.815168  0  2.095677  0  0  -0.722944  0  2.308305  0  0  -0.747084  0  2.285026  0  0  -0.383292  -0.705752  0  2.324223  0
O  O83  1  0.12024763  0.99238578  0.90141851  1  0  -0.815085  0  2.095755  0  0  -0.722893  0  2.308322  0  0  -0.747031  0  2.285042  0  0  -0.383279  -0.705708  0  2.324239  0
O  O84  1  0.21228250  0.21101318  0.17455611  1  0  -0.558273  0  2.008848  0  0  -0.502907  0  2.230933  0  0  -0.524606  0  2.220705  0  0  -0.270471  -0.487998  0  2.237618  0
O  O85  1  0.78770837  0.78898409  0.82544519  1  0  -0.55818  0  2.009009  0  0  -0.502873  0  2.231148  0  0  -0.524561  0  2.220908  0  0  -0.270454  -0.487962  0  2.237832  0
O  O86  1  0.72872192  0.86363745  0.47489689  1  0  -0.530576  0  2.113293  0  0  -0.480387  0  2.339318  0  0  -0.502435  0  2.324494  0  0  -0.316958  -0.465102  0  2.349048  0
O  O87  1  0.27127132  0.13636702  0.52510538  1  0  -0.530459  0  2.113432  0  0  -0.480267  0  2.339438  0  0  -0.502306  0  2.324641  0  0  -0.316907  -0.464985  0  2.349177  0
O  O88  1  0.00770295  0.77098119  0.40174431  1  0  -0.573168  0  2.022716  0  0  -0.518307  0  2.245992  0  0  -0.541649  0  2.237671  0  0  -0.280763  -0.50225  0  2.251347  0
O  O89  1  0.99227862  0.22903330  0.59825531  1  0  -0.573327  0  2.022471  0  0  -0.518328  0  2.24564  0  0  -0.541673  0  2.237328  0  0  -0.280828  -0.502267  0  2.250992  0
O  O90  1  0.75880901  0.46011611  0.98812309  1  0  -0.900824  0  1.763276  0  0  -0.862645  0  1.947564  0  0  -0.877047  0  1.911371  0  0  -0.685331  -0.852406  0  1.973088  0
O  O91  1  0.24119732  0.53987984  0.01187649  1  0  -0.900815  0  1.763348  0  0  -0.862666  0  1.947583  0  0  -0.877068  0  1.911391  0  0  -0.685322  -0.852425  0  1.973104  0
O  O92  1  0.72916613  0.99477922  0.97812399  1  0  -0.918917  0  1.768886  0  0  -0.879268  0  1.94833  0  0  -0.894933  0  1.913732  0  0  -0.710611  -0.868061  0  1.972617  0
O  O93  1  0.27085149  0.00521108  0.02187126  1  0  -0.918838  0  1.768957  0  0  -0.879204  0  1.948376  0  0  -0.894871  0  1.913776  0  0  -0.710654  -0.868002  0  1.972649  0
