# generated using pymatgen
data_CuH8C12SN3O
_symmetry_space_group_name_H-M   'P 1'
_cell_length_a   8.07058258
_cell_length_b   10.93982447
_cell_length_c   13.35075775
_cell_angle_alpha   90.00002830
_cell_angle_beta   90.00005156
_cell_angle_gamma   89.99995587
_symmetry_Int_Tables_number   1
_chemical_formula_structural   CuH8C12SN3O
_chemical_formula_sum   'Cu4 H32 C48 S4 N12 O4'
_cell_volume   1178.74850485
_cell_formula_units_Z   4
loop_
 _symmetry_equiv_pos_site_id
 _symmetry_equiv_pos_as_xyz
  1  'x, y, z'
loop_
 _atom_site_type_symbol
 _atom_site_label
 _atom_site_symmetry_multiplicity
 _atom_site_fract_x
 _atom_site_fract_y
 _atom_site_fract_z
 _atom_site_occupancy
 _atom_site_hle17_bader_spin_density
 _atom_site_hle17_ddec_charge
 _atom_site_hle17_ddec_spin_density
 _atom_site_hle17_ddec_sum_bond_order
 _atom_site_hle17_magmom
 _atom_site_hse06_10hf_bader_spin_density
 _atom_site_hse06_10hf_ddec_charge
 _atom_site_hse06_10hf_ddec_spin_density
 _atom_site_hse06_10hf_ddec_sum_bond_order
 _atom_site_hse06_10hf_magmom
 _atom_site_hse06_bader_spin_density
 _atom_site_hse06_ddec_charge
 _atom_site_hse06_ddec_spin_density
 _atom_site_hse06_ddec_sum_bond_order
 _atom_site_hse06_magmom
 _atom_site_pbe_bader_spin_density
 _atom_site_pbe_cm5_charge
 _atom_site_pbe_ddec_charge
 _atom_site_pbe_ddec_spin_density
 _atom_site_pbe_ddec_sum_bond_order
 _atom_site_pbe_magmom
Cu  Cu0  1  0.73230082  0.06578535  0.75000034  1  0  0.453392  0  2.222643  0  0  0.351593  0  2.744264  0  0  0.335715  0  2.711551  0  0  0.55612  0.367395  0  2.761502  0
Cu  Cu1  1  0.76769912  0.56578133  0.25000036  1  0  0.453358  0  2.22258  0  0  0.351607  0  2.744239  0  0  0.335651  0  2.711474  0  0  0.556126  0.367374  0  2.761432  0
Cu  Cu2  1  0.23230203  0.43422011  0.75000028  1  0  0.453411  0  2.222624  0  0  0.351631  0  2.74426  0  0  0.335742  0  2.711535  0  0  0.556134  0.367429  0  2.76151  0
Cu  Cu3  1  0.26771024  0.93420877  0.24999955  1  0  0.453505  0  2.222427  0  0  0.35176  0  2.744049  0  0  0.335846  0  2.71131  0  0  0.556169  0.367559  0  2.761321  0
H  H4  1  0.79027573  0.06085936  0.96256282  1  0  0.069394  0  0.958469  0  0  0.075382  0  1.030097  0  0  0.078587  0  1.027018  0  0  0.109321  0.072902  0  1.032655  0
H  H5  1  0.70972545  0.56085799  0.03743713  1  0  0.069406  0  0.958408  0  0  0.075392  0  1.030043  0  0  0.078597  0  1.026961  0  0  0.109349  0.072912  0  1.032596  0
H  H6  1  0.29027290  0.43914607  0.53743633  1  0  0.069398  0  0.958451  0  0  0.075392  0  1.030078  0  0  0.07859  0  1.027018  0  0  0.109358  0.072912  0  1.032635  0
H  H7  1  0.20973193  0.93913946  0.46256051  1  0  0.06942  0  0.95847  0  0  0.075419  0  1.030061  0  0  0.078626  0  1.026976  0  0  0.109325  0.072931  0  1.03264  0
H  H8  1  0.20972913  0.93913933  0.03743857  1  0  0.069397  0  0.958515  0  0  0.075368  0  1.030143  0  0  0.078575  0  1.027058  0  0  0.109313  0.072886  0  1.032707  0
H  H9  1  0.29027445  0.43914619  0.96256501  1  0  0.069426  0  0.958442  0  0  0.075404  0  1.030076  0  0  0.0786  0  1.027018  0  0  0.109358  0.072924  0  1.032633  0
H  H10  1  0.70972949  0.56085720  0.46256431  1  0  0.069395  0  0.958388  0  0  0.075386  0  1.030039  0  0  0.078594  0  1.026953  0  0  0.109353  0.072906  0  1.032591  0
H  H11  1  0.79027293  0.06085923  0.53743714  1  0  0.069401  0  0.958466  0  0  0.075387  0  1.030093  0  0  0.078593  0  1.027009  0  0  0.109334  0.072906  0  1.03265  0
H  H12  1  0.55628914  0.74165893  0.08810317  1  0  0.097753  0  0.961862  0  0  0.10552  0  1.027315  0  0  0.108634  0  1.024766  0  0  0.104537  0.103108  0  1.02934  0
H  H13  1  0.94371186  0.24165562  0.91189836  1  0  0.097755  0  0.961866  0  0  0.105541  0  1.027299  0  0  0.108655  0  1.02475  0  0  0.10455  0.103129  0  1.029327  0
H  H14  1  0.05628457  0.75834866  0.41189889  1  0  0.097713  0  0.961847  0  0  0.105414  0  1.027378  0  0  0.108524  0  1.02484  0  0  0.104523  0.103005  0  1.0294  0
H  H15  1  0.44370929  0.25834149  0.58810237  1  0  0.097744  0  0.961885  0  0  0.105515  0  1.027335  0  0  0.108629  0  1.024783  0  0  0.104536  0.103102  0  1.029364  0
H  H16  1  0.44370457  0.25833976  0.91189523  1  0  0.097834  0  0.961786  0  0  0.105563  0  1.027293  0  0  0.108677  0  1.02474  0  0  0.10454  0.10315  0  1.029325  0
H  H17  1  0.05628309  0.75834947  0.08810303  1  0  0.097728  0  0.961772  0  0  0.10543  0  1.027299  0  0  0.108538  0  1.024762  0  0  0.104527  0.103021  0  1.029318  0
H  H18  1  0.94371161  0.24165187  0.58810026  1  0  0.097707  0  0.961861  0  0  0.10548  0  1.027322  0  0  0.108593  0  1.024774  0  0  0.104528  0.103068  0  1.029348  0
H  H19  1  0.55629062  0.74165629  0.41189677  1  0  0.097779  0  0.961827  0  0  0.10555  0  1.027282  0  0  0.108666  0  1.024729  0  0  0.104555  0.103138  0  1.029307  0
H  H20  1  0.44728030  0.69608810  0.91458580  1  0  0.108221  0  0.97417  0  0  0.115318  0  1.038345  0  0  0.118069  0  1.038754  0  0  0.104549  0.113087  0  1.038633  0
H  H21  1  0.05271982  0.19608725  0.08541468  1  0  0.108223  0  0.974194  0  0  0.115291  0  1.038408  0  0  0.11805  0  1.038793  0  0  0.104558  0.113061  0  1.038698  0
H  H22  1  0.94727364  0.80391409  0.58541588  1  0  0.108137  0  0.974173  0  0  0.115306  0  1.03831  0  0  0.118067  0  1.038695  0  0  0.104542  0.113067  0  1.038607  0
H  H23  1  0.55271614  0.30391435  0.41458492  1  0  0.108248  0  0.974135  0  0  0.115332  0  1.038323  0  0  0.118088  0  1.038718  0  0  0.104558  0.113078  0  1.038635  0
H  H24  1  0.55271837  0.30391059  0.08541109  1  0  0.108243  0  0.974196  0  0  0.115328  0  1.038392  0  0  0.11809  0  1.038769  0  0  0.104543  0.113075  0  1.038705  0
H  H25  1  0.94727512  0.80391236  0.91458446  1  0  0.108183  0  0.974196  0  0  0.115283  0  1.038388  0  0  0.11804  0  1.038784  0  0  0.104536  0.11305  0  1.03868  0
H  H26  1  0.05272131  0.19608552  0.41458476  1  0  0.108141  0  0.974214  0  0  0.115283  0  1.038365  0  0  0.118045  0  1.038746  0  0  0.104548  0.113053  0  1.038654  0
H  H27  1  0.44728129  0.69608617  0.58541497  1  0  0.108238  0  0.974151  0  0  0.115325  0  1.03833  0  0  0.118078  0  1.038735  0  0  0.10456  0.113072  0  1.038641  0
H  H28  1  0.73207810  0.93044071  0.11072818  1  0  0.102046  0  0.977476  0  0  0.111185  0  1.038958  0  0  0.113432  0  1.039987  0  0  0.099795  0.109506  0  1.038378  0
H  H29  1  0.76792146  0.43043840  0.88927267  1  0  0.102031  0  0.977569  0  0  0.111169  0  1.039041  0  0  0.113418  0  1.040064  0  0  0.099777  0.109491  0  1.03846  0
H  H30  1  0.23207742  0.56956678  0.38927172  1  0  0.101952  0  0.977579  0  0  0.111104  0  1.03903  0  0  0.113352  0  1.040052  0  0  0.099746  0.109419  0  1.038464  0
H  H31  1  0.26792284  0.06955698  0.61072572  1  0  0.102057  0  0.977492  0  0  0.111205  0  1.038953  0  0  0.113454  0  1.039975  0  0  0.099795  0.109523  0  1.038381  0
H  H32  1  0.26791933  0.06955524  0.88927171  1  0  0.102025  0  0.977487  0  0  0.111147  0  1.038987  0  0  0.113398  0  1.040007  0  0  0.099757  0.10947  0  1.038402  0
H  H33  1  0.23207845  0.56956669  0.11072947  1  0  0.102031  0  0.977533  0  0  0.111185  0  1.03898  0  0  0.113433  0  1.040002  0  0  0.09979  0.1095  0  1.038417  0
H  H34  1  0.76792373  0.43043466  0.61072668  1  0  0.102062  0  0.977553  0  0  0.111217  0  1.038984  0  0  0.113465  0  1.040007  0  0  0.09982  0.109534  0  1.038418  0
H  H35  1  0.73207955  0.93043988  0.38927267  1  0  0.102042  0  0.977541  0  0  0.111174  0  1.039024  0  0  0.113422  0  1.040047  0  0  0.099785  0.109495  0  1.038445  0
C  C36  1  0.48941461  0.82097304  0.75000043  1  0  0.338227  0  3.651056  0  0  0.321067  0  3.905436  0  0  0.344204  0  3.901825  0  0  0.171602  0.304641  0  3.908625  0
C  C37  1  0.01058538  0.32097232  0.25000011  1  0  0.338136  0  3.650893  0  0  0.321005  0  3.905242  0  0  0.344142  0  3.901638  0  0  0.171606  0.304578  0  3.908415  0
C  C38  1  0.98941329  0.67902821  0.75000128  1  0  0.338316  0  3.650974  0  0  0.321174  0  3.90532  0  0  0.344309  0  3.901712  0  0  0.17167  0.304745  0  3.908511  0
C  C39  1  0.51058653  0.17902931  0.24999947  1  0  0.338229  0  3.650959  0  0  0.321063  0  3.90537  0  0  0.3442  0  3.901761  0  0  0.171635  0.304636  0  3.908572  0
C  C40  1  0.56242179  0.85413537  0.84974535  1  0  0.146351  0  3.699939  0  0  0.144688  0  3.941536  0  0  0.146929  0  3.957719  0  0  0.113515  0.143252  0  3.930978  0
C  C41  1  0.93757908  0.35413160  0.15025472  1  0  0.146389  0  3.699886  0  0  0.14471  0  3.941465  0  0  0.146947  0  3.957649  0  0  0.113485  0.143278  0  3.930892  0
C  C42  1  0.06241943  0.64586612  0.65025612  1  0  0.146403  0  3.699963  0  0  0.144758  0  3.941531  0  0  0.147001  0  3.957716  0  0  0.113568  0.143324  0  3.930968  0
C  C43  1  0.43757578  0.14586338  0.34974284  1  0  0.146377  0  3.700051  0  0  0.144736  0  3.941641  0  0  0.146973  0  3.957828  0  0  0.113532  0.143303  0  3.931084  0
C  C44  1  0.43757811  0.14586332  0.15025229  1  0  0.146515  0  3.699883  0  0  0.144812  0  3.941524  0  0  0.147054  0  3.957708  0  0  0.113519  0.143376  0  3.930972  0
C  C45  1  0.06241958  0.64586618  0.84974517  1  0  0.146413  0  3.699907  0  0  0.144741  0  3.941527  0  0  0.146982  0  3.957708  0  0  0.113533  0.143306  0  3.930968  0
C  C46  1  0.93758047  0.35413075  0.34974452  1  0  0.146434  0  3.69993  0  0  0.14477  0  3.941507  0  0  0.147012  0  3.957691  0  0  0.113525  0.143337  0  3.930936  0
C  C47  1  0.56242288  0.85413440  0.65025555  1  0  0.146402  0  3.699956  0  0  0.144738  0  3.941543  0  0  0.146979  0  3.957728  0  0  0.113529  0.143303  0  3.930977  0
C  C48  1  0.71501178  0.97863827  0.95531695  1  0  0.106976  0  3.715121  0  0  0.080847  0  3.968991  0  0  0.085534  0  3.984231  0  0  0.038708  0.077789  0  3.959368  0
C  C49  1  0.78498896  0.47863453  0.04468616  1  0  0.107027  0  3.715206  0  0  0.080897  0  3.96908  0  0  0.085583  0  3.984315  0  0  0.038701  0.07784  0  3.959445  0
C  C50  1  0.21501063  0.52136587  0.54468685  1  0  0.10703  0  3.715125  0  0  0.080882  0  3.969021  0  0  0.085568  0  3.984254  0  0  0.038676  0.077826  0  3.959395  0
C  C51  1  0.28499091  0.02136146  0.45531207  1  0  0.106886  0  3.715217  0  0  0.080773  0  3.969089  0  0  0.08546  0  3.984327  0  0  0.038675  0.077712  0  3.959471  0
C  C52  1  0.28498564  0.02135768  0.04468444  1  0  0.107004  0  3.715143  0  0  0.080901  0  3.968978  0  0  0.085589  0  3.984216  0  0  0.038759  0.077841  0  3.959365  0
C  C53  1  0.21501218  0.52136508  0.95531598  1  0  0.106907  0  3.715095  0  0  0.080778  0  3.969007  0  0  0.085462  0  3.984241  0  0  0.038625  0.077722  0  3.959384  0
C  C54  1  0.78499175  0.47863282  0.45531454  1  0  0.106981  0  3.715206  0  0  0.08083  0  3.969122  0  0  0.085515  0  3.984357  0  0  0.038639  0.077775  0  3.959485  0
C  C55  1  0.71501148  0.97863815  0.54468558  1  0  0.106947  0  3.715197  0  0  0.080819  0  3.96907  0  0  0.085507  0  3.984311  0  0  0.038688  0.077761  0  3.959446  0
C  C56  1  0.58470213  0.80092311  0.02479142  1  0  -0.011734  0  3.704526  0  0  -0.026105  0  3.951186  0  0  -0.023087  0  3.968953  0  0  -0.067804  -0.027912  0  3.93926  0
C  C57  1  0.91530004  0.30091985  0.97520863  1  0  -0.011771  0  3.704592  0  0  -0.026176  0  3.951243  0  0  -0.023155  0  3.96901  0  0  -0.06789  -0.027985  0  3.939318  0
C  C58  1  0.08469524  0.69908263  0.47521214  1  0  -0.011576  0  3.704506  0  0  -0.025899  0  3.951171  0  0  -0.022882  0  3.968939  0  0  -0.06782  -0.027706  0  3.939245  0
C  C59  1  0.41529621  0.19907362  0.52479134  1  0  -0.011676  0  3.704681  0  0  -0.026051  0  3.95133  0  0  -0.023032  0  3.969093  0  0  -0.067771  -0.027857  0  3.939405  0
C  C60  1  0.41529530  0.19907375  0.97520547  1  0  -0.011718  0  3.704456  0  0  -0.026078  0  3.951082  0  0  -0.023057  0  3.968848  0  0  -0.067743  -0.027885  0  3.939159  0
C  C61  1  0.08469614  0.69908067  0.02478827  1  0  -0.011628  0  3.704521  0  0  -0.025932  0  3.951165  0  0  -0.022915  0  3.968931  0  0  -0.067803  -0.027738  0  3.939241  0
C  C62  1  0.91530095  0.30091880  0.52479000  1  0  -0.011518  0  3.704406  0  0  -0.025909  0  3.951058  0  0  -0.022888  0  3.968821  0  0  -0.06779  -0.027718  0  3.939132  0
C  C63  1  0.58470122  0.80092325  0.47520930  1  0  -0.011724  0  3.704546  0  0  -0.026098  0  3.951182  0  0  -0.023083  0  3.968951  0  0  -0.067843  -0.027906  0  3.939249  0
C  C64  1  0.52408265  0.77571550  0.92963967  1  0  -0.113328  0  3.686835  0  0  -0.134049  0  3.929802  0  0  -0.139479  0  3.951205  0  0  -0.074312  -0.130509  0  3.915674  0
C  C65  1  0.97591954  0.27571440  0.07036187  1  0  -0.113344  0  3.686867  0  0  -0.134016  0  3.929771  0  0  -0.13945  0  3.951193  0  0  -0.074286  -0.130471  0  3.915622  0
C  C66  1  0.02408009  0.72428601  0.57036029  1  0  -0.113347  0  3.686871  0  0  -0.134147  0  3.929787  0  0  -0.13958  0  3.951202  0  0  -0.074336  -0.130594  0  3.915644  0
C  C67  1  0.47591628  0.22428604  0.42963721  1  0  -0.113356  0  3.68674  0  0  -0.134059  0  3.929661  0  0  -0.139491  0  3.951075  0  0  -0.074307  -0.130493  0  3.915534  0
C  C68  1  0.47591725  0.22428502  0.07036097  1  0  -0.113496  0  3.686669  0  0  -0.134179  0  3.929581  0  0  -0.139608  0  3.950989  0  0  -0.07436  -0.130613  0  3.915458  0
C  C69  1  0.02408160  0.72428520  0.92964102  1  0  -0.113388  0  3.686925  0  0  -0.13412  0  3.929861  0  0  -0.139553  0  3.951276  0  0  -0.074329  -0.130572  0  3.915717  0
C  C70  1  0.97591857  0.27571360  0.42963886  1  0  -0.113403  0  3.686867  0  0  -0.134155  0  3.929787  0  0  -0.139591  0  3.951211  0  0  -0.074347  -0.130608  0  3.915637  0
C  C71  1  0.52408486  0.77571539  0.57036118  1  0  -0.11338  0  3.686869  0  0  -0.134079  0  3.929801  0  0  -0.139512  0  3.951215  0  0  -0.074323  -0.130513  0  3.915666  0
C  C72  1  0.68161950  0.90548510  0.03792556  1  0  -0.089549  0  3.70947  0  0  -0.102762  0  3.951519  0  0  -0.108555  0  3.974038  0  0  -0.07723  -0.09937  0  3.936722  0
C  C73  1  0.81837885  0.40548280  0.96207603  1  0  -0.089599  0  3.709629  0  0  -0.102805  0  3.951672  0  0  -0.108596  0  3.974195  0  0  -0.077206  -0.099412  0  3.93687  0
C  C74  1  0.18161518  0.59452242  0.46207507  1  0  -0.089544  0  3.709424  0  0  -0.102736  0  3.951432  0  0  -0.108523  0  3.973949  0  0  -0.077152  -0.099346  0  3.936629  0
C  C75  1  0.31838257  0.09451530  0.53792463  1  0  -0.089593  0  3.709593  0  0  -0.10282  0  3.95165  0  0  -0.108611  0  3.974171  0  0  -0.077271  -0.099427  0  3.936853  0
C  C76  1  0.31837917  0.09451451  0.96207584  1  0  -0.089563  0  3.709715  0  0  -0.102753  0  3.951736  0  0  -0.108547  0  3.974259  0  0  -0.07722  -0.099357  0  3.936941  0
C  C77  1  0.18161610  0.59452047  0.03792686  1  0  -0.089587  0  3.709549  0  0  -0.102788  0  3.951573  0  0  -0.108574  0  3.97409  0  0  -0.0772  -0.099399  0  3.936771  0
C  C78  1  0.81838225  0.40547993  0.53792558  1  0  -0.089679  0  3.709723  0  0  -0.102885  0  3.951778  0  0  -0.108672  0  3.974298  0  0  -0.077229  -0.099497  0  3.936975  0
C  C79  1  0.68162105  0.90548340  0.46207452  1  0  -0.089583  0  3.709578  0  0  -0.102796  0  3.951625  0  0  -0.108587  0  3.974148  0  0  -0.077215  -0.099405  0  3.936827  0
C  C80  1  0.09791409  0.17311906  0.74999944  1  0  0.263417  0  4.027888  0  0  0.259873  0  4.315484  0  0  0.275093  0  4.331698  0  0  0.134502  0.24968  0  4.303988  0
C  C81  1  0.40209720  0.67310217  0.25000029  1  0  0.26388  0  4.027948  0  0  0.260342  0  4.315519  0  0  0.275563  0  4.331732  0  0  0.134701  0.250147  0  4.304028  0
C  C82  1  0.59791385  0.32688739  0.74999961  1  0  0.263667  0  4.028017  0  0  0.260133  0  4.315577  0  0  0.275354  0  4.331788  0  0  0.134631  0.249937  0  4.304083  0
C  C83  1  0.90207962  0.82687963  0.25000045  1  0  0.263488  0  4.028128  0  0  0.259957  0  4.315692  0  0  0.27517  0  4.331903  0  0  0.134484  0.249758  0  4.304191  0
S  S84  1  0.01780966  0.03553918  0.74999789  1  0  -0.352848  0  2.355007  0  0  -0.335689  0  2.722843  0  0  -0.346368  0  2.712979  0  0  -0.179143  -0.327293  0  2.728232  0
S  S85  1  0.48219682  0.53552316  0.25000028  1  0  -0.352982  0  2.354751  0  0  -0.335869  0  2.722649  0  0  -0.346526  0  2.712759  0  0  -0.179221  -0.327466  0  2.728023  0
S  S86  1  0.51780556  0.46447005  0.74999961  1  0  -0.352996  0  2.354848  0  0  -0.335856  0  2.722688  0  0  -0.346529  0  2.712815  0  0  -0.179211  -0.327454  0  2.728078  0
S  S87  1  0.98219768  0.96446043  0.24999975  1  0  -0.352868  0  2.354715  0  0  -0.335713  0  2.722531  0  0  -0.346382  0  2.712661  0  0  -0.179109  -0.32731  0  2.727932  0
N  N88  1  0.65853501  0.95424390  0.86226978  1  0  -0.298962  0  3.338678  0  0  -0.242406  0  3.634385  0  0  -0.246873  0  3.640315  0  0  -0.349034  -0.240204  0  3.63016  0
N  N89  1  0.84146576  0.45424109  0.13772883  1  0  -0.298918  0  3.338684  0  0  -0.242376  0  3.63441  0  0  -0.246824  0  3.640303  0  0  -0.348994  -0.240167  0  3.630148  0
N  N90  1  0.15853150  0.54576119  0.63773100  1  0  -0.299013  0  3.33894  0  0  -0.242477  0  3.634675  0  0  -0.246942  0  3.6406  0  0  -0.349042  -0.240275  0  3.630445  0
N  N91  1  0.34146754  0.04575852  0.36226943  1  0  -0.298934  0  3.338952  0  0  -0.242424  0  3.634694  0  0  -0.246884  0  3.640611  0  0  -0.349009  -0.240219  0  3.630482  0
N  N92  1  0.34146737  0.04575845  0.13773086  1  0  -0.299066  0  3.33879  0  0  -0.242513  0  3.634493  0  0  -0.246976  0  3.640407  0  0  -0.349066  -0.240306  0  3.630284  0
N  N93  1  0.15853166  0.54576034  0.86227106  1  0  -0.298926  0  3.338665  0  0  -0.242387  0  3.634413  0  0  -0.246848  0  3.640332  0  0  -0.349001  -0.240186  0  3.630186  0
N  N94  1  0.84146965  0.45424116  0.36227114  1  0  -0.298942  0  3.338652  0  0  -0.242408  0  3.634413  0  0  -0.246859  0  3.64031  0  0  -0.349001  -0.240201  0  3.630152  0
N  N95  1  0.65853484  0.95424292  0.63772972  1  0  -0.298944  0  3.338741  0  0  -0.242394  0  3.634452  0  0  -0.246862  0  3.640384  0  0  -0.349032  -0.240193  0  3.630225  0
N  N96  1  0.15835330  0.27179522  0.75000022  1  0  -0.51163  0  3.16432  0  0  -0.466048  0  3.503125  0  0  -0.474022  0  3.502444  0  0  -0.445882  -0.46142  0  3.502438  0
N  N97  1  0.34166037  0.77178293  0.24999954  1  0  -0.512037  0  3.164851  0  0  -0.466473  0  3.503659  0  0  -0.474432  0  3.502946  0  0  -0.446037  -0.461853  0  3.503017  0
N  N98  1  0.65834944  0.22821485  0.74999960  1  0  -0.511722  0  3.164673  0  0  -0.466148  0  3.503467  0  0  -0.474129  0  3.502795  0  0  -0.445916  -0.46152  0  3.502783  0
N  N99  1  0.84164661  0.72821170  0.25000042  1  0  -0.511686  0  3.164691  0  0  -0.466109  0  3.503493  0  0  -0.474062  0  3.502777  0  0  -0.44591  -0.461468  0  3.50276  0
O  O100  1  0.36454138  0.75549579  0.75000113  1  0  -0.424879  0  1.982548  0  0  -0.386015  0  2.198476  0  0  -0.400995  0  2.196087  0  0  -0.241285  -0.376284  0  2.200498  0
O  O101  1  0.13546363  0.25549043  0.24999938  1  0  -0.424841  0  1.982252  0  0  -0.385988  0  2.198174  0  0  -0.400967  0  2.195783  0  0  -0.241311  -0.376265  0  2.200207  0
O  O102  1  0.86453503  0.74450736  0.75000126  1  0  -0.424999  0  1.982413  0  0  -0.386132  0  2.198327  0  0  -0.401113  0  2.195936  0  0  -0.241388  -0.376403  0  2.200354  0
O  O103  1  0.63545976  0.24450747  0.24999802  1  0  -0.424922  0  1.982586  0  0  -0.386057  0  2.198529  0  0  -0.401041  0  2.196139  0  0  -0.241342  -0.376324  0  2.200552  0
