# generated using pymatgen
data_KLiSb2H4(C2O3)4
_symmetry_space_group_name_H-M   'P 1'
_cell_length_a   6.37093352
_cell_length_b   8.86846205
_cell_length_c   12.51471834
_cell_angle_alpha   89.99998822
_cell_angle_beta   90.00002359
_cell_angle_gamma   89.99998447
_symmetry_Int_Tables_number   1
_chemical_formula_structural   KLiSb2H4(C2O3)4
_chemical_formula_sum   'K2 Li2 Sb4 H8 C16 O24'
_cell_volume   707.08636901
_cell_formula_units_Z   2
loop_
 _symmetry_equiv_pos_site_id
 _symmetry_equiv_pos_as_xyz
  1  'x, y, z'
loop_
 _atom_site_type_symbol
 _atom_site_label
 _atom_site_symmetry_multiplicity
 _atom_site_fract_x
 _atom_site_fract_y
 _atom_site_fract_z
 _atom_site_occupancy
 _atom_site_hle17_bader_spin_density
 _atom_site_hle17_ddec_charge
 _atom_site_hle17_ddec_spin_density
 _atom_site_hle17_ddec_sum_bond_order
 _atom_site_hle17_magmom
 _atom_site_hse06_10hf_bader_charge
 _atom_site_hse06_10hf_bader_spin_density
 _atom_site_hse06_10hf_ddec_charge
 _atom_site_hse06_10hf_ddec_spin_density
 _atom_site_hse06_10hf_ddec_sum_bond_order
 _atom_site_hse06_10hf_magmom
 _atom_site_hse06_bader_spin_density
 _atom_site_hse06_ddec_charge
 _atom_site_hse06_ddec_spin_density
 _atom_site_hse06_ddec_sum_bond_order
 _atom_site_hse06_magmom
 _atom_site_pbe_bader_spin_density
 _atom_site_pbe_cm5_charge
 _atom_site_pbe_ddec_charge
 _atom_site_pbe_ddec_spin_density
 _atom_site_pbe_ddec_sum_bond_order
 _atom_site_pbe_magmom
K  K0  1  0.50000223  0.24076880  0.49999850  1  0  0.942949  0  0.453832  0  0.893517  0  0.885993  0  0.64293  0  0  0.899744  0  0.620424  0  0  0.823928  0.875532  0  0.658984  0
K  K1  1  0.99999930  0.75922624  0.00000005  1  0  0.942951  0  0.453835  0  0.893508  0  0.886003  0  0.642927  0  0  0.899746  0  0.620427  0  0  0.823929  0.875535  0  0.658987  0
Li  Li2  1  0.50000058  0.71154490  0.50000006  1  0  0.880488  0  0.387311  0  0.874207  0  0.851772  0  0.477838  0  0  0.860336  0  0.462128  0  0  0.516081  0.84539  0  0.489498  0
Li  Li3  1  0.99999939  0.28845240  0.00000008  1  0  0.880503  0  0.387309  0  0.874203  0  0.85179  0  0.477833  0  0  0.860351  0  0.46213  0  0  0.516091  0.845425  0  0.489464  0
Sb  Sb4  1  0.02778407  0.22703707  0.29525313  1  0  1.321834  0  2.623565  0  1.885914  0  1.180222  0  3.11662  0  0  1.224303  0  3.078599  0  0  0.750833  1.144544  0  3.144919  0
Sb  Sb5  1  0.97221412  0.22703692  0.70474627  1  0  1.321849  0  2.623547  0  1.885906  0  1.180238  0  3.116597  0  0  1.224325  0  3.078572  0  0  0.750848  1.144561  0  3.144888  0
Sb  Sb6  1  0.52778287  0.77296371  0.20474691  1  0  1.321834  0  2.62357  0  1.885798  0  1.180228  0  3.116622  0  0  1.224313  0  3.078599  0  0  0.750829  1.144545  0  3.144909  0
Sb  Sb7  1  0.47221669  0.77296363  0.79525321  1  0  1.321812  0  2.623598  0  1.885913  0  1.180199  0  3.11665  0  0  1.224284  0  3.078627  0  0  0.750822  1.144517  0  3.144943  0
H  H8  1  0.08628099  0.85714627  0.58515814  1  0  0.073832  0  0.91543  0  0.070678  0  0.080782  0  0.982795  0  0  0.083018  0  0.980794  0  0  0.119712  0.079174  0  0.984432  0
H  H9  1  0.91372010  0.85714622  0.41484197  1  0  0.07383  0  0.915427  0  0.070693  0  0.080782  0  0.982791  0  0  0.083024  0  0.980779  0  0  0.119706  0.079175  0  0.984426  0
H  H10  1  0.58627863  0.14285322  0.91484126  1  0  0.073805  0  0.915428  0  0.070707  0  0.080766  0  0.982797  0  0  0.08302  0  0.980772  0  0  0.119706  0.079157  0  0.984437  0
H  H11  1  0.41372117  0.14285335  0.08515816  1  0  0.073839  0  0.915428  0  0.070706  0  0.0808  0  0.982794  0  0  0.083035  0  0.980789  0  0  0.119716  0.079192  0  0.984436  0
H  H12  1  0.08775799  0.60069823  0.41660143  1  0  0.081373  0  0.915173  0  0.094891  0  0.088575  0  0.98014  0  0  0.091068  0  0.977743  0  0  0.122049  0.086857  0  0.981926  0
H  H13  1  0.91224163  0.60069925  0.58339792  1  0  0.081348  0  0.915175  0  0.094885  0  0.088581  0  0.980098  0  0  0.091075  0  0.977699  0  0  0.122058  0.086865  0  0.981883  0
H  H14  1  0.58775998  0.39930254  0.08339863  1  0  0.081347  0  0.91516  0  0.094899  0  0.088539  0  0.980133  0  0  0.091033  0  0.977735  0  0  0.122026  0.08682  0  0.981925  0
H  H15  1  0.41224129  0.39930244  0.91660154  1  0  0.081342  0  0.915135  0  0.094903  0  0.088572  0  0.980065  0  0  0.091066  0  0.977667  0  0  0.122047  0.086853  0  0.981855  0
C  C16  1  0.21807791  0.95531889  0.39714353  1  0  0.660204  0  3.842753  0  1.588894  0  0.608702  0  4.146148  0  0  0.641924  0  4.136945  0  0  0.219654  0.585974  0  4.15171  0
C  C17  1  0.78192158  0.95531768  0.60285657  1  0  0.660194  0  3.842668  0  1.588909  0  0.608684  0  4.146074  0  0  0.641906  0  4.13687  0  0  0.219639  0.585969  0  4.151619  0
C  C18  1  0.71807690  0.04467959  0.10285736  1  0  0.660228  0  3.842665  0  1.588898  0  0.608745  0  4.146051  0  0  0.641967  0  4.136846  0  0  0.219687  0.586022  0  4.151607  0
C  C19  1  0.28192293  0.04467727  0.89714207  1  0  0.660232  0  3.842628  0  1.588902  0  0.608753  0  4.146006  0  0  0.641975  0  4.136806  0  0  0.219692  0.586021  0  4.151569  0
C  C20  1  0.00723289  0.96324811  0.56208050  1  0  0.053907  0  3.702317  0  0.505357  0  0.029725  0  3.95155  0  0  0.031567  0  3.959092  0  0  -0.003784  0.028297  0  3.94626  0
C  C21  1  0.99276816  0.96324803  0.43791880  1  0  0.05393  0  3.702354  0  0.560827  0  0.029739  0  3.951592  0  0  0.03159  0  3.959107  0  0  -0.003789  0.028311  0  3.946303  0
C  C22  1  0.50723216  0.03675140  0.93791888  1  0  0.053987  0  3.702266  0  0.560831  0  0.029765  0  3.951558  0  0  0.031605  0  3.959079  0  0  -0.00377  0.028349  0  3.946264  0
C  C23  1  0.49276768  0.03675152  0.06208055  1  0  0.053917  0  3.702298  0  0.505353  0  0.029691  0  3.951604  0  0  0.031542  0  3.959124  0  0  -0.003788  0.028262  0  3.94632  0
C  C24  1  0.20327806  0.48655438  0.61258748  1  0  0.65097  0  3.836156  0  1.611586  0  0.598271  0  4.143408  0  0  0.631512  0  4.133965  0  0  0.215412  0.575525  0  4.149212  0
C  C25  1  0.79672161  0.48655436  0.38741188  1  0  0.650917  0  3.836166  0  1.611582  0  0.598286  0  4.143331  0  0  0.631527  0  4.133889  0  0  0.215455  0.575555  0  4.149118  0
C  C26  1  0.70327867  0.51344622  0.88741274  1  0  0.65102  0  3.836159  0  1.611569  0  0.598323  0  4.143407  0  0  0.631565  0  4.133962  0  0  0.215442  0.57559  0  4.149196  0
C  C27  1  0.29672099  0.51344524  0.11258822  1  0  0.651003  0  3.836165  0  1.611879  0  0.598315  0  4.1434  0  0  0.631556  0  4.133957  0  0  0.215465  0.575574  0  4.149199  0
C  C28  1  0.01537931  0.49167594  0.43848526  1  0  0.058184  0  3.684305  0  0.492389  0  0.033984  0  3.932397  0  0  0.036024  0  3.939463  0  0  -0.001149  0.032389  0  3.927519  0
C  C29  1  0.98462036  0.49167583  0.56151490  1  0  0.058168  0  3.684258  0  0.525607  0  0.034005  0  3.932327  0  0  0.036043  0  3.939393  0  0  -0.001157  0.032411  0  3.927451  0
C  C30  1  0.51537809  0.50832483  0.06151478  1  0  0.058149  0  3.684479  0  0.525313  0  0.034004  0  3.932535  0  0  0.036041  0  3.939603  0  0  -0.001139  0.03241  0  3.927657  0
C  C31  1  0.48462157  0.50832471  0.93848538  1  0  0.058128  0  3.684391  0  0.492092  0  0.033965  0  3.932454  0  0  0.036005  0  3.939519  0  0  -0.001156  0.032374  0  3.927569  0
O  O32  1  0.66589776  0.58770606  0.40620733  1  0  -0.691293  0  2.013296  0  -1.251634  0  -0.656895  0  2.27121  0  0  -0.678394  0  2.259346  0  0  -0.366837  -0.641694  0  2.279122  0
O  O33  1  0.33410187  0.58770382  0.59379282  1  0  -0.691276  0  2.013297  0  -1.251607  0  -0.656861  0  2.271245  0  0  -0.678359  0  2.259379  0  0  -0.366798  -0.641655  0  2.279163  0
O  O34  1  0.16589715  0.41229468  0.09379275  1  0  -0.691298  0  2.01326  0  -1.251638  0  -0.656883  0  2.271209  0  0  -0.678379  0  2.259343  0  0  -0.366827  -0.641684  0  2.279124  0
O  O35  1  0.83410411  0.41229450  0.90620823  1  0  -0.691296  0  2.013298  0  -1.251619  0  -0.656882  0  2.271251  0  0  -0.678379  0  2.259386  0  0  -0.366793  -0.641689  0  2.279163  0
O  O36  1  0.28792967  0.07191995  0.34566661  1  0  -0.62865  0  2.036564  0  -1.196973  0  -0.564445  0  2.281205  0  0  -0.590077  0  2.270893  0  0  -0.329623  -0.545816  0  2.287696  0
O  O37  1  0.71207015  0.07191986  0.65433361  1  0  -0.628639  0  2.036517  0  -1.196971  0  -0.564445  0  2.281183  0  0  -0.590082  0  2.270883  0  0  -0.329629  -0.545818  0  2.28766  0
O  O38  1  0.78792837  0.92807852  0.15433349  1  0  -0.628677  0  2.036545  0  -1.196992  0  -0.56447  0  2.281171  0  0  -0.590101  0  2.270858  0  0  -0.32965  -0.545846  0  2.28767  0
O  O39  1  0.21207113  0.92807961  0.84566661  1  0  -0.628666  0  2.036648  0  -1.197009  0  -0.564455  0  2.281259  0  0  -0.590085  0  2.270944  0  0  -0.329632  -0.545828  0  2.287758  0
O  O40  1  0.12124619  0.08862632  0.59959001  1  0  -0.594889  0  2.044052  0  -1.143885  0  -0.53803  0  2.304623  0  0  -0.555734  0  2.296998  0  0  -0.350361  -0.524136  0  2.309321  0
O  O41  1  0.87875362  0.08862627  0.40040942  1  0  -0.594896  0  2.044063  0  -1.143892  0  -0.538045  0  2.304662  0  0  -0.555752  0  2.297036  0  0  -0.350347  -0.524148  0  2.309359  0
O  O42  1  0.62124824  0.91137430  0.90040859  1  0  -0.594904  0  2.044056  0  -1.143905  0  -0.538042  0  2.304665  0  0  -0.55575  0  2.297045  0  0  -0.35035  -0.524146  0  2.309359  0
O  O43  1  0.37875127  0.91137443  0.09958991  1  0  -0.594882  0  2.044019  0  -1.143903  0  -0.538022  0  2.304629  0  0  -0.555727  0  2.296999  0  0  -0.350352  -0.524122  0  2.309323  0
O  O44  1  0.24415908  0.37141716  0.67343745  1  0  -0.586329  0  2.013181  0  -1.186979  0  -0.518671  0  2.24907  0  0  -0.54353  0  2.238622  0  0  -0.300161  -0.500617  0  2.255737  0
O  O45  1  0.75583906  0.37141716  0.32656273  1  0  -0.586281  0  2.013169  0  -1.186979  0  -0.518655  0  2.249059  0  0  -0.543515  0  2.238612  0  0  -0.300169  -0.500602  0  2.255712  0
O  O46  1  0.74416117  0.62858231  0.82656198  1  0  -0.586333  0  2.013154  0  -1.186968  0  -0.518693  0  2.249081  0  0  -0.543554  0  2.238633  0  0  -0.3002  -0.500633  0  2.25572  0
O  O47  1  0.25583844  0.62858245  0.17343736  1  0  -0.586328  0  2.013168  0  -1.187164  0  -0.518696  0  2.249091  0  0  -0.543556  0  2.238644  0  0  -0.30019  -0.500635  0  2.255738  0
O  O48  1  0.14660498  0.37165964  0.40596677  1  0  -0.616913  0  2.058896  0  -1.154592  0  -0.556477  0  2.317822  0  0  -0.57428  0  2.309156  0  0  -0.381484  -0.542508  0  2.323199  0
O  O49  1  0.85339473  0.37165954  0.59403341  1  0  -0.616907  0  2.058886  0  -1.154602  0  -0.556474  0  2.317788  0  0  -0.574285  0  2.309141  0  0  -0.381487  -0.542506  0  2.323161  0
O  O50  1  0.64660375  0.62834111  0.09403330  1  0  -0.616886  0  2.05895  0  -1.154296  0  -0.556455  0  2.317839  0  0  -0.574264  0  2.309195  0  0  -0.381475  -0.542493  0  2.323231  0
O  O51  1  0.35339587  0.62834103  0.90596684  1  0  -0.616875  0  2.058929  0  -1.154294  0  -0.556454  0  2.317842  0  0  -0.574261  0  2.309187  0  0  -0.381478  -0.542491  0  2.323231  0
O  O52  1  0.67493570  0.84039698  0.58424807  1  0  -0.693936  0  2.031278  0  -1.243885  0  -0.654654  0  2.284587  0  0  -0.677471  0  2.273798  0  0  -0.364285  -0.638497  0  2.291717  0
O  O53  1  0.32506540  0.84039816  0.41575283  1  0  -0.693965  0  2.031358  0  -1.243869  0  -0.654687  0  2.284662  0  0  -0.677505  0  2.273873  0  0  -0.36431  -0.63852  0  2.291794  0
O  O54  1  0.17493075  0.15960250  0.91575294  1  0  -0.693999  0  2.031189  0  -1.243834  0  -0.654736  0  2.284497  0  0  -0.677556  0  2.273709  0  0  -0.364345  -0.638571  0  2.291628  0
O  O55  1  0.82506590  0.15960143  0.08424808  1  0  -0.693954  0  2.031297  0  -1.243829  0  -0.654674  0  2.28459  0  0  -0.677493  0  2.273803  0  0  -0.364314  -0.638515  0  2.291722  0
