# generated using pymatgen
data_ZnH8C13S5N2
_symmetry_space_group_name_H-M   'P 1'
_cell_length_a   9.13228270
_cell_length_b   11.59299078
_cell_length_c   14.53069292
_cell_angle_alpha   89.99967533
_cell_angle_beta   90.00011142
_cell_angle_gamma   101.64975982
_symmetry_Int_Tables_number   1
_chemical_formula_structural   ZnH8C13S5N2
_chemical_formula_sum   'Zn4 H32 C52 S20 N8'
_cell_volume   1506.68121194
_cell_formula_units_Z   4
loop_
 _symmetry_equiv_pos_site_id
 _symmetry_equiv_pos_as_xyz
  1  'x, y, z'
loop_
 _atom_site_type_symbol
 _atom_site_label
 _atom_site_symmetry_multiplicity
 _atom_site_fract_x
 _atom_site_fract_y
 _atom_site_fract_z
 _atom_site_occupancy
 _atom_site_hle17_bader_spin_density
 _atom_site_hle17_ddec_charge
 _atom_site_hle17_ddec_spin_density
 _atom_site_hle17_ddec_sum_bond_order
 _atom_site_hle17_magmom
 _atom_site_hse06_10hf_bader_spin_density
 _atom_site_hse06_10hf_ddec_charge
 _atom_site_hse06_10hf_ddec_spin_density
 _atom_site_hse06_10hf_ddec_sum_bond_order
 _atom_site_hse06_10hf_magmom
 _atom_site_hse06_bader_spin_density
 _atom_site_hse06_ddec_charge
 _atom_site_hse06_ddec_spin_density
 _atom_site_hse06_ddec_sum_bond_order
 _atom_site_hse06_magmom
 _atom_site_pbe_bader_spin_density
 _atom_site_pbe_cm5_charge
 _atom_site_pbe_ddec_charge
 _atom_site_pbe_ddec_spin_density
 _atom_site_pbe_ddec_sum_bond_order
 _atom_site_pbe_magmom
Zn  Zn0  1  0.66818223  0.63285022  0.79067835  1  0  0.693798  0  2.209561  0  0  0.519758  0  2.686998  0  0  0.556369  0  2.650659  0  0  0.543663  0.495342  0  2.710087  0
Zn  Zn1  1  0.83181899  0.86715329  0.29068179  1  0  0.693901  0  2.209556  0  0  0.519836  0  2.687002  0  0  0.556481  0  2.65067  0  0  0.543695  0.495424  0  2.710096  0
Zn  Zn2  1  0.33181829  0.36714504  0.20931902  1  0  0.693823  0  2.209503  0  0  0.519762  0  2.686954  0  0  0.556397  0  2.650616  0  0  0.543661  0.495347  0  2.710037  0
Zn  Zn3  1  0.16818446  0.13285341  0.70931765  1  0  0.693795  0  2.209573  0  0  0.51974  0  2.687012  0  0  0.556353  0  2.650672  0  0  0.543677  0.495321  0  2.710096  0
H  H4  1  0.82028841  0.05640162  0.90000288  1  0  0.106882  0  0.976787  0  0  0.114901  0  1.041144  0  0  0.118356  0  1.039542  0  0  0.100067  0.112479  0  1.042281  0
H  H5  1  0.67970605  0.44360177  0.40000301  1  0  0.106847  0  0.976894  0  0  0.114874  0  1.041242  0  0  0.118323  0  1.039653  0  0  0.100082  0.112454  0  1.042372  0
H  H6  1  0.17970094  0.94359276  0.09999725  1  0  0.10697  0  0.976724  0  0  0.114924  0  1.041105  0  0  0.118377  0  1.039507  0  0  0.10007  0.11248  0  1.0423  0
H  H7  1  0.32030047  0.55640405  0.59999849  1  0  0.106933  0  0.976794  0  0  0.11488  0  1.041201  0  0  0.11833  0  1.039609  0  0  0.100078  0.112448  0  1.04236  0
H  H8  1  0.90604827  0.75885971  0.65959705  1  0  0.072545  0  0.994794  0  0  0.075194  0  1.071795  0  0  0.077829  0  1.069628  0  0  0.09869  0.072601  0  1.074462  0
H  H9  1  0.59395010  0.74113850  0.15960422  1  0  0.072535  0  0.99471  0  0  0.075188  0  1.071736  0  0  0.077777  0  1.069609  0  0  0.098692  0.072596  0  1.074403  0
H  H10  1  0.09394768  0.24113907  0.34039826  1  0  0.072528  0  0.994781  0  0  0.075207  0  1.071717  0  0  0.077808  0  1.069584  0  0  0.098696  0.072616  0  1.074384  0
H  H11  1  0.40604099  0.25885411  0.84039866  1  0  0.072549  0  0.994837  0  0  0.075232  0  1.071782  0  0  0.077831  0  1.069651  0  0  0.098714  0.07264  0  1.074448  0
H  H12  1  0.07240709  0.81389777  0.02066198  1  0  0.106105  0  0.977639  0  0  0.110965  0  1.048819  0  0  0.114937  0  1.046685  0  0  0.09898  0.108214  0  1.050191  0
H  H13  1  0.42759379  0.68610221  0.52065861  1  0  0.106147  0  0.977825  0  0  0.111048  0  1.048946  0  0  0.115028  0  1.046789  0  0  0.099016  0.108296  0  1.05032  0
H  H14  1  0.92758529  0.18609132  0.97934366  1  0  0.106241  0  0.977737  0  0  0.111123  0  1.048891  0  0  0.11508  0  1.046803  0  0  0.099035  0.108369  0  1.050268  0
H  H15  1  0.57240947  0.31390802  0.47934221  1  0  0.106274  0  0.977719  0  0  0.111165  0  1.048851  0  0  0.115134  0  1.046732  0  0  0.099047  0.108413  0  1.050229  0
H  H16  1  0.85744403  0.34000569  0.58595940  1  0  0.113378  0  0.953763  0  0  0.1227  0  1.014057  0  0  0.126245  0  1.012426  0  0  0.107575  0.119912  0  1.015738  0
H  H17  1  0.64255518  0.15999008  0.08595669  1  0  0.113326  0  0.95386  0  0  0.122661  0  1.014133  0  0  0.126226  0  1.01248  0  0  0.107581  0.119873  0  1.015813  0
H  H18  1  0.14256480  0.65998781  0.41404348  1  0  0.113426  0  0.953855  0  0  0.122733  0  1.014143  0  0  0.126254  0  1.01254  0  0  0.107571  0.119942  0  1.015826  0
H  H19  1  0.35744074  0.84000429  0.91404068  1  0  0.113451  0  0.953669  0  0  0.122725  0  1.014024  0  0  0.126264  0  1.012401  0  0  0.107584  0.119939  0  1.015704  0
H  H20  1  0.93437182  0.66102976  0.91861660  1  0  0.065407  0  1.016951  0  0  0.064652  0  1.101029  0  0  0.067179  0  1.098939  0  0  0.094333  0.062772  0  1.102491  0
H  H21  1  0.56562566  0.83897467  0.41861778  1  0  0.065307  0  1.016931  0  0  0.064641  0  1.100978  0  0  0.067174  0  1.09888  0  0  0.094321  0.062762  0  1.102438  0
H  H22  1  0.06561908  0.33896638  0.08137527  1  0  0.065305  0  1.017056  0  0  0.064643  0  1.101001  0  0  0.067176  0  1.098902  0  0  0.094311  0.062755  0  1.102485  0
H  H23  1  0.43438501  0.16103027  0.58138028  1  0  0.065303  0  1.01693  0  0  0.064619  0  1.100985  0  0  0.067135  0  1.098938  0  0  0.094321  0.062747  0  1.10242  0
H  H24  1  0.71984106  0.40850692  0.71443685  1  0  0.079102  0  0.954531  0  0  0.082032  0  1.027749  0  0  0.085175  0  1.025056  0  0  0.106909  0.079257  0  1.030487  0
H  H25  1  0.78015901  0.09149065  0.21443326  1  0  0.079043  0  0.954603  0  0  0.081951  0  1.027833  0  0  0.085093  0  1.02514  0  0  0.10686  0.079176  0  1.030569  0
H  H26  1  0.28016736  0.59148922  0.28556534  1  0  0.079048  0  0.954522  0  0  0.08191  0  1.027805  0  0  0.085053  0  1.025113  0  0  0.106856  0.079136  0  1.030536  0
H  H27  1  0.21983053  0.90850020  0.78556274  1  0  0.07912  0  0.954454  0  0  0.082016  0  1.027708  0  0  0.085158  0  1.025016  0  0  0.10687  0.079238  0  1.030445  0
H  H28  1  0.68470426  0.88921495  0.80824747  1  0  0.069786  0  0.985171  0  0  0.070076  0  1.066116  0  0  0.072231  0  1.065083  0  0  0.100395  0.068373  0  1.066993  0
H  H29  1  0.81529016  0.61078316  0.30824314  1  0  0.069753  0  0.985123  0  0  0.070053  0  1.06606  0  0  0.072217  0  1.065005  0  0  0.10037  0.068347  0  1.066937  0
H  H30  1  0.31528792  0.11077766  0.19175610  1  0  0.06969  0  0.985099  0  0  0.070001  0  1.066  0  0  0.072156  0  1.064954  0  0  0.100305  0.068276  0  1.066942  0
H  H31  1  0.18471591  0.38922090  0.69176043  1  0  0.069736  0  0.985107  0  0  0.07004  0  1.065998  0  0  0.072207  0  1.064944  0  0  0.100353  0.068311  0  1.066943  0
H  H32  1  0.04298592  0.70840001  0.52639583  1  0  0.118917  0  0.939249  0  0  0.131556  0  0.993283  0  0  0.135001  0  0.992098  0  0  0.111732  0.128785  0  0.994814  0
H  H33  1  0.45700331  0.79159288  0.02640184  1  0  0.118856  0  0.939277  0  0  0.131559  0  0.993252  0  0  0.135003  0  0.992069  0  0  0.111706  0.128775  0  0.994801  0
H  H34  1  0.95701090  0.29159789  0.47359604  1  0  0.118793  0  0.939499  0  0  0.131493  0  0.99347  0  0  0.134936  0  0.992289  0  0  0.111719  0.128716  0  0.99501  0
H  H35  1  0.54298469  0.20839621  0.97359622  1  0  0.118854  0  0.939391  0  0  0.131539  0  0.993381  0  0  0.13498  0  0.992203  0  0  0.111729  0.128759  0  0.994924  0
C  C36  1  0.96026388  0.95202747  0.97025009  1  0  0.101923  0  3.718943  0  0  0.115028  0  3.94442  0  0  0.119516  0  3.96443  0  0  0.013579  0.112193  0  3.930796  0
C  C37  1  0.53973209  0.54797046  0.47025122  1  0  0.101922  0  3.718834  0  0  0.115082  0  3.944315  0  0  0.119571  0  3.964324  0  0  0.013586  0.112239  0  3.930694  0
C  C38  1  0.03971011  0.04796250  0.02975211  1  0  0.101735  0  3.718635  0  0  0.114965  0  3.944002  0  0  0.119463  0  3.964008  0  0  0.013483  0.112118  0  3.930382  0
C  C39  1  0.46028496  0.45203801  0.52975097  1  0  0.101795  0  3.718901  0  0  0.114936  0  3.944387  0  0  0.119426  0  3.964397  0  0  0.013542  0.112094  0  3.930767  0
C  C40  1  0.33870331  0.59380503  0.80586816  1  0  -0.056842  0  3.881508  0  0  -0.042935  0  4.157767  0  0  -0.040481  0  4.179874  0  0  -0.054097  -0.044379  0  4.141753  0
C  C41  1  0.16130048  0.90620715  0.30586776  1  0  -0.056815  0  3.881422  0  0  -0.042893  0  4.157691  0  0  -0.040441  0  4.1798  0  0  -0.054112  -0.044335  0  4.141674  0
C  C42  1  0.66129819  0.40620255  0.19413472  1  0  -0.056804  0  3.881381  0  0  -0.042876  0  4.157638  0  0  -0.040423  0  4.179743  0  0  -0.054056  -0.044321  0  4.141627  0
C  C43  1  0.83870494  0.09379867  0.69413650  1  0  -0.056812  0  3.881509  0  0  -0.042914  0  4.157782  0  0  -0.040457  0  4.179883  0  0  -0.054075  -0.044361  0  4.141774  0
C  C44  1  0.96046462  0.51788691  0.54031635  1  0  0.092242  0  3.73975  0  0  0.104737  0  3.969419  0  0  0.109347  0  3.98993  0  0  0.012855  0.101545  0  3.955731  0
C  C45  1  0.53953684  0.98210769  0.04031544  1  0  0.092257  0  3.739763  0  0  0.104786  0  3.969444  0  0  0.109398  0  3.989963  0  0  0.01291  0.101599  0  3.955747  0
C  C46  1  0.03954270  0.48210923  0.45968447  1  0  0.092308  0  3.739657  0  0  0.104956  0  3.9692  0  0  0.109569  0  3.989706  0  0  0.01301  0.10176  0  3.955515  0
C  C47  1  0.46045074  0.01788405  0.95968056  1  0  0.092379  0  3.739788  0  0  0.104942  0  3.969416  0  0  0.109553  0  3.989926  0  0  0.013017  0.101746  0  3.95573  0
C  C48  1  0.37514587  0.50381108  0.85785352  1  0  -0.050804  0  3.873772  0  0  -0.040619  0  4.154624  0  0  -0.03765  0  4.176248  0  0  -0.050247  -0.042316  0  4.138739  0
C  C49  1  0.12486041  0.99620165  0.35785128  1  0  -0.050792  0  3.874169  0  0  -0.04064  0  4.155039  0  0  -0.037667  0  4.176662  0  0  -0.050289  -0.042335  0  4.139149  0
C  C50  1  0.62485431  0.49619563  0.14215142  1  0  -0.050783  0  3.873959  0  0  -0.04064  0  4.154863  0  0  -0.037668  0  4.176483  0  0  -0.050272  -0.042339  0  4.138981  0
C  C51  1  0.87514373  0.00380770  0.64214954  1  0  -0.05077  0  3.873906  0  0  -0.040587  0  4.154761  0  0  -0.037618  0  4.176383  0  0  -0.050248  -0.042285  0  4.138879  0
C  C52  1  0.84927433  0.97055678  0.90817310  1  0  -0.146042  0  3.699741  0  0  -0.165222  0  3.947504  0  0  -0.17218  0  3.968251  0  0  -0.082606  -0.161002  0  3.933878  0
C  C53  1  0.65072483  0.52944155  0.40817377  1  0  -0.145999  0  3.699576  0  0  -0.165207  0  3.94736  0  0  -0.172161  0  3.968101  0  0  -0.082684  -0.160987  0  3.933734  0
C  C54  1  0.15070690  0.02943583  0.09182772  1  0  -0.146029  0  3.699576  0  0  -0.165157  0  3.947281  0  0  -0.172116  0  3.968025  0  0  -0.082629  -0.160938  0  3.933646  0
C  C55  1  0.34929067  0.47056516  0.59182842  1  0  -0.14595  0  3.699685  0  0  -0.16507  0  3.947439  0  0  -0.172026  0  3.968189  0  0  -0.082648  -0.16085  0  3.933802  0
C  C56  1  0.89387454  0.66691007  0.63912267  1  0  0.12665  0  3.711597  0  0  0.089819  0  3.970825  0  0  0.097754  0  3.987205  0  0  0.040009  0.084349  0  3.961125  0
C  C57  1  0.60612667  0.83309092  0.13912942  1  0  0.126627  0  3.711291  0  0  0.089784  0  3.970507  0  0  0.097756  0  3.986908  0  0  0.039934  0.084315  0  3.960806  0
C  C58  1  0.10612889  0.33309223  0.36087471  1  0  0.126637  0  3.711523  0  0  0.089823  0  3.970774  0  0  0.097782  0  3.987176  0  0  0.040019  0.084353  0  3.961075  0
C  C59  1  0.39386947  0.16690434  0.86086795  1  0  0.126481  0  3.711233  0  0  0.089627  0  3.970486  0  0  0.097586  0  3.986887  0  0  0.039863  0.084158  0  3.960785  0
C  C60  1  0.99134630  0.83822838  0.97322958  1  0  -0.150999  0  3.6941  0  0  -0.169984  0  3.942833  0  0  -0.177559  0  3.963205  0  0  -0.082882  -0.165209  0  3.929244  0
C  C61  1  0.50865257  0.66177657  0.47323290  1  0  -0.151117  0  3.69404  0  0  -0.170134  0  3.942828  0  0  -0.177709  0  3.963204  0  0  -0.082936  -0.16536  0  3.929245  0
C  C62  1  0.00864398  0.16177393  0.02676848  1  0  -0.151094  0  3.694037  0  0  -0.170173  0  3.942843  0  0  -0.177761  0  3.96321  0  0  -0.082955  -0.16539  0  3.929251  0
C  C63  1  0.49135746  0.33823013  0.52676654  1  0  -0.151242  0  3.693954  0  0  -0.170295  0  3.942813  0  0  -0.177875  0  3.96317  0  0  -0.083054  -0.165517  0  3.92922  0
C  C64  1  0.86970870  0.43429721  0.59702473  1  0  -0.149185  0  3.679665  0  0  -0.168968  0  3.931746  0  0  -0.176274  0  3.951746  0  0  -0.07983  -0.164788  0  3.919408  0
C  C65  1  0.63028637  0.06569937  0.09702245  1  0  -0.149051  0  3.679627  0  0  -0.16885  0  3.931716  0  0  -0.176165  0  3.951685  0  0  -0.07983  -0.164669  0  3.919379  0
C  C66  1  0.13030239  0.56570510  0.40297471  1  0  -0.149279  0  3.679887  0  0  -0.169034  0  3.93181  0  0  -0.176325  0  3.951828  0  0  -0.079869  -0.164853  0  3.919473  0
C  C67  1  0.36969947  0.93429412  0.90297493  1  0  -0.149342  0  3.679922  0  0  -0.169095  0  3.931946  0  0  -0.176399  0  3.951958  0  0  -0.079928  -0.164913  0  3.919607  0
C  C68  1  0.08044881  0.47430677  0.87066560  1  0  -0.018114  0  3.825482  0  0  -0.009478  0  4.134721  0  0  0.006125  0  4.147404  0  0  -0.004769  -0.019524  0  4.125692  0
C  C69  1  0.41955910  0.02570559  0.37065974  1  0  -0.018259  0  3.825517  0  0  -0.009594  0  4.134692  0  0  0.006009  0  4.147365  0  0  -0.004839  -0.01964  0  4.125662  0
C  C70  1  0.91955246  0.52569993  0.12934003  1  0  -0.01808  0  3.825602  0  0  -0.009404  0  4.134772  0  0  0.006201  0  4.14745  0  0  -0.00473  -0.019448  0  4.125745  0
C  C71  1  0.58045025  0.97429848  0.62933557  1  0  -0.018125  0  3.825398  0  0  -0.00947  0  4.134615  0  0  0.006138  0  4.14728  0  0  -0.00477  -0.019518  0  4.125594  0
C  C72  1  0.91387127  0.75060338  0.91625724  1  0  0.118143  0  3.719452  0  0  0.085274  0  3.972792  0  0  0.092774  0  3.989743  0  0  0.036406  0.080179  0  3.961793  0
C  C73  1  0.58612809  0.74939138  0.41625610  1  0  0.11825  0  3.719403  0  0  0.085238  0  3.972807  0  0  0.092731  0  3.989765  0  0  0.036442  0.080145  0  3.961807  0
C  C74  1  0.08610970  0.24938395  0.08374564  1  0  0.118143  0  3.719726  0  0  0.085203  0  3.973162  0  0  0.092702  0  3.99012  0  0  0.036454  0.08011  0  3.962151  0
C  C75  1  0.41388522  0.25061533  0.58374540  1  0  0.118281  0  3.719452  0  0  0.085293  0  3.972873  0  0  0.092788  0  3.989821  0  0  0.036498  0.080204  0  3.961878  0
C  C76  1  0.79218406  0.47119612  0.66986902  1  0  0.13961  0  3.700692  0  0  0.104777  0  3.955497  0  0  0.112527  0  3.972286  0  0  0.048755  0.099443  0  3.945164  0
C  C77  1  0.70781420  0.02880351  0.16986701  1  0  0.139605  0  3.700634  0  0  0.104779  0  3.955456  0  0  0.112533  0  3.972253  0  0  0.04877  0.099444  0  3.945124  0
C  C78  1  0.20782345  0.52879650  0.33013249  1  0  0.139573  0  3.701002  0  0  0.104788  0  3.955796  0  0  0.112538  0  3.972583  0  0  0.048758  0.099453  0  3.94546  0
C  C79  1  0.29218217  0.97119263  0.83013036  1  0  0.139502  0  3.700875  0  0  0.104699  0  3.955647  0  0  0.112444  0  3.972439  0  0  0.048753  0.099367  0  3.945309  0
C  C80  1  0.77491108  0.87822184  0.85449173  1  0  0.131761  0  3.690991  0  0  0.099836  0  3.941855  0  0  0.106897  0  3.960067  0  0  0.040309  0.095116  0  3.929916  0
C  C81  1  0.72508260  0.62178566  0.35449343  1  0  0.131718  0  3.691244  0  0  0.099787  0  3.942094  0  0  0.106848  0  3.960308  0  0  0.040356  0.095066  0  3.930149  0
C  C82  1  0.22507086  0.12177782  0.14550909  1  0  0.131756  0  3.690921  0  0  0.099869  0  3.941716  0  0  0.106939  0  3.959942  0  0  0.040469  0.095146  0  3.929757  0
C  C83  1  0.27493204  0.37822193  0.64550945  1  0  0.131659  0  3.69103  0  0  0.099784  0  3.941826  0  0  0.106843  0  3.960038  0  0  0.040415  0.09506  0  3.929867  0
C  C84  1  0.97291142  0.63701914  0.56439614  1  0  -0.144339  0  3.678624  0  0  -0.164723  0  3.926926  0  0  -0.171909  0  3.946368  0  0  -0.079701  -0.160604  0  3.915222  0
C  C85  1  0.52708331  0.86297881  0.06440403  1  0  -0.144255  0  3.678713  0  0  -0.164707  0  3.926974  0  0  -0.171895  0  3.946406  0  0  -0.079627  -0.160577  0  3.915276  0
C  C86  1  0.02708710  0.36297259  0.43559917  1  0  -0.144215  0  3.67889  0  0  -0.164734  0  3.92716  0  0  -0.17192  0  3.946594  0  0  -0.079765  -0.160612  0  3.915463  0
C  C87  1  0.47291065  0.13701644  0.93560160  1  0  -0.144232  0  3.678536  0  0  -0.164697  0  3.926832  0  0  -0.171883  0  3.946268  0  0  -0.079709  -0.160571  0  3.915136  0
S  S88  1  0.14774794  0.59452365  0.80023169  1  0  0.118312  0  2.605339  0  0  0.131324  0  2.929643  0  0  0.128627  0  2.934409  0  0  0.072831  0.132967  0  2.92671  0
S  S89  1  0.35225671  0.90548769  0.30022809  1  0  0.118343  0  2.605405  0  0  0.131354  0  2.929693  0  0  0.128659  0  2.934459  0  0  0.072888  0.132998  0  2.926758  0
S  S90  1  0.85225642  0.40548658  0.19977050  1  0  0.118387  0  2.605416  0  0  0.131387  0  2.929702  0  0  0.12869  0  2.934467  0  0  0.072874  0.133023  0  2.926773  0
S  S91  1  0.64775026  0.09451989  0.69977272  1  0  0.118312  0  2.605215  0  0  0.131346  0  2.929489  0  0  0.12865  0  2.934251  0  0  0.072852  0.132981  0  2.926562  0
S  S92  1  0.55252614  0.47581666  0.87632150  1  0  -0.386141  0  2.273786  0  0  -0.342694  0  2.65052  0  0  -0.362271  0  2.644798  0  0  -0.217816  -0.326865  0  2.653514  0
S  S93  1  0.94748475  0.02419129  0.37631637  1  0  -0.386071  0  2.273913  0  0  -0.342643  0  2.650728  0  0  -0.362228  0  2.645015  0  0  -0.217753  -0.326817  0  2.653722  0
S  S94  1  0.44747420  0.52418212  0.12368344  1  0  -0.386079  0  2.27384  0  0  -0.342593  0  2.650573  0  0  -0.362174  0  2.644854  0  0  -0.217773  -0.326768  0  2.653567  0
S  S95  1  0.05253101  0.97582070  0.62367756  1  0  -0.386142  0  2.273737  0  0  -0.342686  0  2.650482  0  0  -0.362267  0  2.64477  0  0  -0.217815  -0.326859  0  2.653475  0
S  S96  1  0.22431176  0.41056385  0.90984360  1  0  0.13916  0  2.69036  0  0  0.150724  0  3.032459  0  0  0.148275  0  3.036545  0  0  0.085403  0.151958  0  3.029103  0
S  S97  1  0.27569050  0.08944737  0.40983520  1  0  0.139136  0  2.690439  0  0  0.15072  0  3.03252  0  0  0.148279  0  3.036598  0  0  0.085364  0.151953  0  3.029163  0
S  S98  1  0.77568599  0.58944197  0.09016341  1  0  0.139104  0  2.690376  0  0  0.150686  0  3.032457  0  0  0.148238  0  3.036539  0  0  0.085357  0.151914  0  3.029106  0
S  S99  1  0.72431911  0.91056198  0.59016011  1  0  0.139136  0  2.690556  0  0  0.150719  0  3.032624  0  0  0.148274  0  3.036711  0  0  0.085386  0.15195  0  3.02927  0
S  S100  1  0.45965151  0.70168483  0.74501266  1  0  -0.407559  0  2.273272  0  0  -0.367978  0  2.654392  0  0  -0.389535  0  2.650952  0  0  -0.216504  -0.350802  0  2.654992  0
S  S101  1  0.04035107  0.79832335  0.24501399  1  0  -0.407604  0  2.273164  0  0  -0.368042  0  2.654325  0  0  -0.389609  0  2.650896  0  0  -0.216498  -0.350865  0  2.654927  0
S  S102  1  0.54034795  0.29831483  0.25498816  1  0  -0.407645  0  2.273238  0  0  -0.368077  0  2.654373  0  0  -0.389637  0  2.650936  0  0  -0.216548  -0.350903  0  2.654978  0
S  S103  1  0.95965436  0.20168247  0.75498889  1  0  -0.407606  0  2.27329  0  0  -0.368026  0  2.65442  0  0  -0.389583  0  2.65098  0  0  -0.216529  -0.350849  0  2.655023  0
S  S104  1  0.90256992  0.42931212  0.89959120  1  0  -0.287717  0  2.059741  0  0  -0.283379  0  2.38288  0  0  -0.295303  0  2.383602  0  0  -0.176186  -0.275007  0  2.381927  0
S  S105  1  0.59743880  0.07069567  0.39958817  1  0  -0.287633  0  2.059644  0  0  -0.283295  0  2.382761  0  0  -0.295247  0  2.38351  0  0  -0.176133  -0.274924  0  2.381806  0
S  S106  1  0.09743003  0.57069370  0.10041031  1  0  -0.287771  0  2.05981  0  0  -0.283452  0  2.382914  0  0  -0.295391  0  2.383643  0  0  -0.176215  -0.275082  0  2.381962  0
S  S107  1  0.40256900  0.92930663  0.60040783  1  0  -0.287711  0  2.059679  0  0  -0.283384  0  2.382823  0  0  -0.295312  0  2.383529  0  0  -0.176172  -0.275015  0  2.381867  0
N  N108  1  0.80631151  0.76952654  0.85793713  1  0  -0.293802  0  3.295432  0  0  -0.203943  0  3.559318  0  0  -0.221205  0  3.573226  0  0  -0.333602  -0.192708  0  3.55022  0
N  N109  1  0.69368540  0.73047212  0.35794172  1  0  -0.293754  0  3.295955  0  0  -0.203851  0  3.559844  0  0  -0.221126  0  3.573779  0  0  -0.333632  -0.192619  0  3.550745  0
N  N110  1  0.19366953  0.23046959  0.14205337  1  0  -0.293733  0  3.295798  0  0  -0.203868  0  3.559679  0  0  -0.221123  0  3.573559  0  0  -0.333689  -0.192631  0  3.550572  0
N  N111  1  0.30632830  0.26952754  0.64205703  1  0  -0.293719  0  3.295757  0  0  -0.203844  0  3.559667  0  0  -0.221091  0  3.57354  0  0  -0.333661  -0.192611  0  3.550565  0
N  N112  1  0.80209036  0.58588411  0.69013344  1  0  -0.302095  0  3.33181  0  0  -0.213449  0  3.604142  0  0  -0.230809  0  3.617708  0  0  -0.334209  -0.202266  0  3.594996  0
N  N113  1  0.69791726  0.91411566  0.19013993  1  0  -0.302212  0  3.331645  0  0  -0.213533  0  3.603945  0  0  -0.230897  0  3.617495  0  0  -0.334244  -0.202349  0  3.594809  0
N  N114  1  0.19791174  0.41411731  0.30986599  1  0  -0.302067  0  3.331995  0  0  -0.213417  0  3.604268  0  0  -0.230782  0  3.617835  0  0  -0.334205  -0.202234  0  3.595123  0
N  N115  1  0.30207753  0.08587431  0.80986295  1  0  -0.301892  0  3.331649  0  0  -0.213213  0  3.603894  0  0  -0.230568  0  3.617451  0  0  -0.334073  -0.202027  0  3.594742  0
