# generated using pymatgen
data_Zn2H5C7NO6
_symmetry_space_group_name_H-M   'P 1'
_cell_length_a   5.24262850
_cell_length_b   8.86853980
_cell_length_c   19.56401426
_cell_angle_alpha   89.99750033
_cell_angle_beta   90.00027746
_cell_angle_gamma   90.00004974
_symmetry_Int_Tables_number   1
_chemical_formula_structural   Zn2H5C7NO6
_chemical_formula_sum   'Zn8 H20 C28 N4 O24'
_cell_volume   909.61826811
_cell_formula_units_Z   4
loop_
 _symmetry_equiv_pos_site_id
 _symmetry_equiv_pos_as_xyz
  1  'x, y, z'
loop_
 _atom_site_type_symbol
 _atom_site_label
 _atom_site_symmetry_multiplicity
 _atom_site_fract_x
 _atom_site_fract_y
 _atom_site_fract_z
 _atom_site_occupancy
 _atom_site_hle17_bader_spin_density
 _atom_site_hle17_ddec_charge
 _atom_site_hle17_ddec_spin_density
 _atom_site_hle17_ddec_sum_bond_order
 _atom_site_hle17_magmom
 _atom_site_hse06_10hf_bader_spin_density
 _atom_site_hse06_10hf_ddec_charge
 _atom_site_hse06_10hf_ddec_spin_density
 _atom_site_hse06_10hf_ddec_sum_bond_order
 _atom_site_hse06_10hf_magmom
 _atom_site_hse06_bader_spin_density
 _atom_site_hse06_ddec_charge
 _atom_site_hse06_ddec_spin_density
 _atom_site_hse06_ddec_sum_bond_order
 _atom_site_hse06_magmom
 _atom_site_pbe_bader_spin_density
 _atom_site_pbe_cm5_charge
 _atom_site_pbe_ddec_charge
 _atom_site_pbe_ddec_spin_density
 _atom_site_pbe_ddec_sum_bond_order
 _atom_site_pbe_magmom
Zn  Zn0  1  0.88192671  0.81907021  0.48025171  1  0  1.135566  0  1.718134  0  0  0.959079  0  2.16255  0  0  1.008856  0  2.104693  0  0  0.67252  0.9224  0  2.204352  0
Zn  Zn1  1  0.38193519  0.18092972  0.51974905  1  0  1.135499  0  1.718256  0  0  0.958963  0  2.162708  0  0  1.008743  0  2.104843  0  0  0.67249  0.922284  0  2.204514  0
Zn  Zn2  1  0.88181573  0.31906839  0.01975024  1  0  1.135411  0  1.718287  0  0  0.958907  0  2.162754  0  0  1.008683  0  2.104887  0  0  0.672513  0.922233  0  2.204554  0
Zn  Zn3  1  0.38180774  0.68093944  0.98024848  1  0  1.135451  0  1.718317  0  0  0.958955  0  2.162786  0  0  1.008727  0  2.104918  0  0  0.672519  0.922285  0  2.204585  0
Zn  Zn4  1  0.39898762  0.08787390  0.97567154  1  0  1.152905  0  1.804167  0  0  0.993509  0  2.269264  0  0  1.040763  0  2.20607  0  0  0.639438  0.95875  0  2.314672  0
Zn  Zn5  1  0.89898122  0.91213320  0.02432879  1  0  1.152982  0  1.80395  0  0  0.993591  0  2.269033  0  0  1.040844  0  2.20584  0  0  0.639472  0.958834  0  2.314443  0
Zn  Zn6  1  0.39909105  0.58787144  0.52433356  1  0  1.153028  0  1.804192  0  0  0.993635  0  2.26931  0  0  1.040875  0  2.206121  0  0  0.639507  0.958888  0  2.314715  0
Zn  Zn7  1  0.89908951  0.41212438  0.47566933  1  0  1.15305  0  1.804106  0  0  0.99362  0  2.269226  0  0  1.040862  0  2.206034  0  0  0.639485  0.958872  0  2.31463  0
H  H8  1  0.42429886  0.84394278  0.49325160  1  0  0.394355  0  0.930513  0  0  0.36477  0  0.995106  0  0  0.374593  0  0.980946  0  0  0.271766  0.357829  0  1.005131  0
H  H9  1  0.92430297  0.15604859  0.50674884  1  0  0.394334  0  0.930512  0  0  0.364755  0  0.995093  0  0  0.374577  0  0.980936  0  0  0.271795  0.357814  0  1.005117  0
H  H10  1  0.42418822  0.34394263  0.00674933  1  0  0.394444  0  0.930412  0  0  0.364875  0  0.994982  0  0  0.374695  0  0.980825  0  0  0.271912  0.357939  0  1.004997  0
H  H11  1  0.92418282  0.65606341  0.99325264  1  0  0.394456  0  0.930407  0  0  0.36488  0  0.994988  0  0  0.374701  0  0.980831  0  0  0.271921  0.357944  0  1.005005  0
H  H12  1  0.97627682  0.59793188  0.56520088  1  0  0.420593  0  0.880042  0  0  0.390064  0  0.94988  0  0  0.401459  0  0.93329  0  0  0.286791  0.381825  0  0.961952  0
H  H13  1  0.47626906  0.40205955  0.43480081  1  0  0.420575  0  0.880101  0  0  0.390086  0  0.949837  0  0  0.401482  0  0.933246  0  0  0.286813  0.381847  0  0.961908  0
H  H14  1  0.97616489  0.09796601  0.93479797  1  0  0.420645  0  0.879805  0  0  0.390062  0  0.949803  0  0  0.401453  0  0.933217  0  0  0.286868  0.381828  0  0.961868  0
H  H15  1  0.47615782  0.90203896  0.06520219  1  0  0.420645  0  0.879754  0  0  0.390088  0  0.949741  0  0  0.401476  0  0.933159  0  0  0.286911  0.381856  0  0.961803  0
H  H16  1  0.55701560  0.07283868  0.26848032  1  0  0.126247  0  0.94301  0  0  0.133154  0  1.00689  0  0  0.137326  0  1.004582  0  0  0.116716  0.130058  0  1.008693  0
H  H17  1  0.05704439  0.92715806  0.73152054  1  0  0.126096  0  0.943092  0  0  0.133037  0  1.006949  0  0  0.137219  0  1.004614  0  0  0.116688  0.129943  0  1.008736  0
H  H18  1  0.55699744  0.57284588  0.23151538  1  0  0.126344  0  0.942847  0  0  0.133153  0  1.006866  0  0  0.137332  0  1.004533  0  0  0.116687  0.13006  0  1.008647  0
H  H19  1  0.05700533  0.42715425  0.76848242  1  0  0.126327  0  0.942809  0  0  0.133162  0  1.0068  0  0  0.137342  0  1.004466  0  0  0.11669  0.130037  0  1.008613  0
H  H20  1  0.18687699  0.77506725  0.22637961  1  0  0.133323  0  0.930783  0  0  0.141436  0  0.991935  0  0  0.14558  0  0.989462  0  0  0.1184  0.138348  0  0.993921  0
H  H21  1  0.68689241  0.22491950  0.77361927  1  0  0.133275  0  0.930865  0  0  0.141425  0  0.991987  0  0  0.145543  0  0.989539  0  0  0.118384  0.138335  0  0.993972  0
H  H22  1  0.18684352  0.27507158  0.27361545  1  0  0.133293  0  0.931004  0  0  0.141474  0  0.992067  0  0  0.145569  0  0.989648  0  0  0.118425  0.138386  0  0.994049  0
H  H23  1  0.68684387  0.72492983  0.72638445  1  0  0.133301  0  0.930948  0  0  0.141459  0  0.992036  0  0  0.145575  0  0.989593  0  0  0.118443  0.138373  0  0.99402  0
H  H24  1  0.22783706  0.73468767  0.35409194  1  0  0.099004  0  0.922911  0  0  0.107716  0  0.984288  0  0  0.110865  0  0.981891  0  0  0.122803  0.105467  0  0.985943  0
H  H25  1  0.72785499  0.26529960  0.64590866  1  0  0.098978  0  0.922909  0  0  0.107719  0  0.984251  0  0  0.110865  0  0.98186  0  0  0.122833  0.105473  0  0.985906  0
H  H26  1  0.22775532  0.23468190  0.14590423  1  0  0.099072  0  0.9229  0  0  0.107842  0  0.984146  0  0  0.110993  0  0.981747  0  0  0.122896  0.105593  0  0.985803  0
H  H27  1  0.72775934  0.76532567  0.85409534  1  0  0.099097  0  0.922798  0  0  0.10789  0  0.98403  0  0  0.111043  0  0.981625  0  0  0.122893  0.10564  0  0.985689  0
C  C28  1  0.58522805  0.06174448  0.40427744  1  0  0.606317  0  3.90281  0  0  0.555077  0  4.190544  0  0  0.587604  0  4.185085  0  0  0.207639  0.533141  0  4.194063  0
C  C29  1  0.08524448  0.93824882  0.59572150  1  0  0.606639  0  3.903091  0  0  0.555404  0  4.190821  0  0  0.587934  0  4.185358  0  0  0.207741  0.533464  0  4.194351  0
C  C30  1  0.58514084  0.56174584  0.09571844  1  0  0.606259  0  3.903191  0  0  0.554981  0  4.191175  0  0  0.587506  0  4.185713  0  0  0.20755  0.533049  0  4.194698  0
C  C31  1  0.08514285  0.43825987  0.90428153  1  0  0.606132  0  3.90332  0  0  0.5549  0  4.191119  0  0  0.587421  0  4.185663  0  0  0.207511  0.532971  0  4.194639  0
C  C32  1  0.75047156  0.97659120  0.35468579  1  0  0.114231  0  3.719806  0  0  0.119263  0  3.956889  0  0  0.119881  0  3.976824  0  0  0.116192  0.117917  0  3.943658  0
C  C33  1  0.25049740  0.02339850  0.64531286  1  0  0.114149  0  3.719752  0  0  0.11914  0  3.956906  0  0  0.11976  0  3.97684  0  0  0.116237  0.117793  0  3.943683  0
C  C34  1  0.75040891  0.47659581  0.14531376  1  0  0.114415  0  3.719735  0  0  0.119176  0  3.95732  0  0  0.119785  0  3.977279  0  0  0.116216  0.11783  0  3.944085  0
C  C35  1  0.25040746  0.52341194  0.85468847  1  0  0.114373  0  3.720046  0  0  0.11932  0  3.957294  0  0  0.119929  0  3.977254  0  0  0.116197  0.117979  0  3.944045  0
C  C36  1  0.71003609  0.99889556  0.28531746  1  0  -0.113527  0  3.694328  0  0  -0.146815  0  3.937469  0  0  -0.150772  0  3.958544  0  0  -0.064315  -0.144218  0  3.922891  0
C  C37  1  0.21005741  0.00109697  0.71468153  1  0  -0.113197  0  3.693941  0  0  -0.146498  0  3.937105  0  0  -0.150453  0  3.958187  0  0  -0.064257  -0.143892  0  3.922535  0
C  C38  1  0.71001937  0.49891154  0.21468281  1  0  -0.11371  0  3.694099  0  0  -0.146816  0  3.937358  0  0  -0.15077  0  3.958443  0  0  -0.06431  -0.144214  0  3.922795  0
C  C39  1  0.21000547  0.50110580  0.78531873  1  0  -0.113709  0  3.694159  0  0  -0.146959  0  3.937401  0  0  -0.150913  0  3.958484  0  0  -0.064354  -0.144327  0  3.92285  0
C  C40  1  0.86403879  0.92451721  0.23806321  1  0  0.007698  0  3.706068  0  0  0.028382  0  3.938977  0  0  0.025726  0  3.958788  0  0  0.012096  0.031136  0  3.924112  0
C  C41  1  0.36406242  0.07547445  0.76193594  1  0  0.007465  0  3.706196  0  0  0.028107  0  3.939162  0  0  0.025449  0  3.958969  0  0  0.012103  0.030862  0  3.924295  0
C  C42  1  0.86403041  0.42452496  0.26193575  1  0  0.007961  0  3.706052  0  0  0.028577  0  3.938977  0  0  0.025924  0  3.958771  0  0  0.012207  0.031333  0  3.924107  0
C  C43  1  0.36403265  0.57548023  0.73806493  1  0  0.007884  0  3.7061  0  0  0.028544  0  3.938957  0  0  0.025889  0  3.958759  0  0  0.012182  0.031297  0  3.924088  0
C  C44  1  0.05981592  0.83166640  0.26231533  1  0  -0.094043  0  3.633017  0  0  -0.120461  0  3.883882  0  0  -0.123699  0  3.902192  0  0  -0.061716  -0.118237  0  3.871118  0
C  C45  1  0.55983668  0.16832346  0.73768402  1  0  -0.0939  0  3.633302  0  0  -0.120357  0  3.88418  0  0  -0.123569  0  3.902508  0  0  -0.061723  -0.118131  0  3.871419  0
C  C46  1  0.05978717  0.33167569  0.23767993  1  0  -0.094093  0  3.633331  0  0  -0.120549  0  3.884191  0  0  -0.123741  0  3.902524  0  0  -0.061772  -0.118315  0  3.871405  0
C  C47  1  0.55979486  0.66832432  0.76232146  1  0  -0.094001  0  3.633135  0  0  -0.120456  0  3.883989  0  0  -0.123673  0  3.902322  0  0  -0.061765  -0.118226  0  3.87121  0
C  C48  1  0.08338584  0.81010863  0.33281837  1  0  0.143146  0  3.647081  0  0  0.110431  0  3.906717  0  0  0.116125  0  3.923898  0  0  0.057957  0.106045  0  3.89535  0
C  C49  1  0.58340343  0.18988475  0.66718210  1  0  0.14318  0  3.647025  0  0  0.11044  0  3.906667  0  0  0.116136  0  3.923842  0  0  0.057963  0.106055  0  3.895302  0
C  C50  1  0.08333980  0.31011939  0.16717919  1  0  0.14311  0  3.647124  0  0  0.110401  0  3.906814  0  0  0.116097  0  3.923982  0  0  0.057908  0.106015  0  3.89545  0
C  C51  1  0.58332930  0.68989654  0.83282231  1  0  0.143076  0  3.646896  0  0  0.11034  0  3.906574  0  0  0.116034  0  3.923745  0  0  0.057943  0.105955  0  3.895215  0
C  C52  1  0.80339568  0.94214700  0.16316930  1  0  0.627796  0  3.941227  0  0  0.576812  0  4.236136  0  0  0.609638  0  4.231364  0  0  0.205411  0.554967  0  4.236932  0
C  C53  1  0.30340760  0.05785287  0.83683163  1  0  0.62785  0  3.941219  0  0  0.576922  0  4.236056  0  0  0.609748  0  4.231286  0  0  0.205405  0.555073  0  4.236857  0
C  C54  1  0.80339876  0.44214029  0.33683011  1  0  0.627766  0  3.941341  0  0  0.576862  0  4.236146  0  0  0.609688  0  4.231383  0  0  0.205467  0.555015  0  4.23694  0
C  C55  1  0.30340642  0.55785055  0.66317081  1  0  0.6276  0  3.941488  0  0  0.576756  0  4.236144  0  0  0.609581  0  4.231382  0  0  0.205392  0.554911  0  4.236939  0
N  N56  1  0.93004884  0.87968864  0.37821570  1  0  -0.327775  0  3.241527  0  0  -0.255414  0  3.511316  0  0  -0.272038  0  3.526018  0  0  -0.311435  -0.243918  0  3.501845  0
N  N57  1  0.43007012  0.12030249  0.62178477  1  0  -0.327834  0  3.241672  0  0  -0.25544  0  3.511485  0  0  -0.272066  0  3.526185  0  0  -0.311506  -0.243946  0  3.50202  0
N  N58  1  0.92998297  0.37970127  0.12178380  1  0  -0.327741  0  3.241677  0  0  -0.255399  0  3.511717  0  0  -0.272026  0  3.52643  0  0  -0.31147  -0.243904  0  3.50224  0
N  N59  1  0.42997958  0.62031016  0.87821769  1  0  -0.327728  0  3.241745  0  0  -0.255409  0  3.511685  0  0  -0.272034  0  3.526396  0  0  -0.311437  -0.243914  0  3.502211  0
O  O60  1  0.65403791  0.05802076  0.46870499  1  0  -0.694652  0  2.162745  0  0  -0.600929  0  2.42275  0  0  -0.632082  0  2.40677  0  0  -0.317419  -0.578734  0  2.434244  0
O  O61  1  0.15404689  0.94197189  0.53129323  1  0  -0.694912  0  2.162717  0  0  -0.601183  0  2.422721  0  0  -0.632347  0  2.40675  0  0  -0.317502  -0.578976  0  2.434204  0
O  O62  1  0.65393516  0.55804491  0.03129002  1  0  -0.694572  0  2.163177  0  0  -0.600779  0  2.423153  0  0  -0.63192  0  2.407152  0  0  -0.317327  -0.578597  0  2.434648  0
O  O63  1  0.15392838  0.44196803  0.96871025  1  0  -0.694462  0  2.16313  0  0  -0.600736  0  2.423117  0  0  -0.631866  0  2.407103  0  0  -0.317327  -0.578562  0  2.434621  0
O  O64  1  0.39500554  0.13153063  0.38359556  1  0  -0.549464  0  1.914312  0  0  -0.505736  0  2.136231  0  0  -0.527894  0  2.129613  0  0  -0.292965  -0.490438  0  2.140453  0
O  O65  1  0.89502072  0.86847325  0.61640015  1  0  -0.549525  0  1.914712  0  0  -0.5058  0  2.136633  0  0  -0.527955  0  2.130002  0  0  -0.29298  -0.490502  0  2.140858  0
O  O66  1  0.39492162  0.63153523  0.11639463  1  0  -0.549662  0  1.914456  0  0  -0.505807  0  2.136363  0  0  -0.527948  0  2.129722  0  0  -0.29298  -0.490515  0  2.140585  0
O  O67  1  0.89491771  0.36847543  0.88360312  1  0  -0.549604  0  1.91446  0  0  -0.505756  0  2.136297  0  0  -0.527897  0  2.129656  0  0  -0.292964  -0.490463  0  2.140511  0
O  O68  1  0.58482890  0.98681038  0.14689647  1  0  -0.593114  0  1.931013  0  0  -0.54463  0  2.151134  0  0  -0.568746  0  2.143581  0  0  -0.307619  -0.527635  0  2.155325  0
O  O69  1  0.08482915  0.01319985  0.85310145  1  0  -0.593088  0  1.930975  0  0  -0.544632  0  2.151118  0  0  -0.568752  0  2.143562  0  0  -0.307579  -0.527638  0  2.155309  0
O  O70  1  0.58482966  0.48680186  0.35310276  1  0  -0.593127  0  1.930994  0  0  -0.544689  0  2.151102  0  0  -0.568817  0  2.143544  0  0  -0.307663  -0.527692  0  2.155296  0
O  O71  1  0.08484365  0.51318356  0.64689670  1  0  -0.593019  0  1.931165  0  0  -0.544561  0  2.151188  0  0  -0.568688  0  2.143633  0  0  -0.307554  -0.527562  0  2.155376  0
O  O72  1  0.98494028  0.90563786  0.12185433  1  0  -0.637058  0  2.04525  0  0  -0.56275  0  2.31196  0  0  -0.592283  0  2.297305  0  0  -0.321741  -0.541781  0  2.320203  0
O  O73  1  0.48495377  0.09436336  0.87814791  1  0  -0.637105  0  2.045278  0  0  -0.562812  0  2.311992  0  0  -0.592346  0  2.297334  0  0  -0.32179  -0.541842  0  2.320234  0
O  O74  1  0.98496139  0.40563651  0.37814185  1  0  -0.63714  0  2.045523  0  0  -0.562762  0  2.312059  0  0  -0.592301  0  2.297412  0  0  -0.321757  -0.541791  0  2.320293  0
O  O75  1  0.48497080  0.59435794  0.62185937  1  0  -0.637062  0  2.045365  0  0  -0.562769  0  2.31195  0  0  -0.592309  0  2.297306  0  0  -0.321803  -0.541797  0  2.320186  0
O  O76  1  0.52152180  0.75918979  0.47411395  1  0  -0.967821  0  1.879629  0  0  -0.873036  0  2.172513  0  0  -0.907393  0  2.136438  0  0  -0.595285  -0.847338  0  2.197379  0
O  O77  1  0.02152800  0.24079943  0.52588727  1  0  -0.967756  0  1.879591  0  0  -0.872916  0  2.172452  0  0  -0.907272  0  2.136374  0  0  -0.595291  -0.847221  0  2.197318  0
O  O78  1  0.52142975  0.25919573  0.02588910  1  0  -0.967963  0  1.879713  0  0  -0.873193  0  2.172564  0  0  -0.90754  0  2.136485  0  0  -0.595451  -0.847504  0  2.197423  0
O  O79  1  0.02143123  0.74080703  0.97411160  1  0  -0.967995  0  1.879602  0  0  -0.873236  0  2.172458  0  0  -0.907582  0  2.136376  0  0  -0.595485  -0.847548  0  2.197319  0
O  O80  1  0.00952451  0.60866502  0.51522251  1  0  -0.983797  0  1.949268  0  0  -0.870047  0  2.26159  0  0  -0.903607  0  2.215743  0  0  -0.555309  -0.845747  0  2.294572  0
O  O81  1  0.50952398  0.39133035  0.48477916  1  0  -0.98376  0  1.949458  0  0  -0.870028  0  2.261695  0  0  -0.903588  0  2.215847  0  0  -0.55531  -0.845718  0  2.294655  0
O  O82  1  0.00942848  0.10867747  0.98477506  1  0  -0.983714  0  1.949197  0  0  -0.869883  0  2.261819  0  0  -0.903498  0  2.216096  0  0  -0.555343  -0.845546  0  2.294697  0
O  O83  1  0.50942736  0.89132805  0.01522508  1  0  -0.98371  0  1.949192  0  0  -0.869896  0  2.261841  0  0  -0.903508  0  2.216133  0  0  -0.555393  -0.845561  0  2.294721  0
