# generated using pymatgen
data_Zn4H16C32O13F2
_symmetry_space_group_name_H-M   'P 1'
_cell_length_a   13.07829485
_cell_length_b   13.25027989
_cell_length_c   18.08713663
_cell_angle_alpha   68.89287634
_cell_angle_beta   72.38157666
_cell_angle_gamma   88.78486715
_symmetry_Int_Tables_number   1
_chemical_formula_structural   Zn4H16C32O13F2
_chemical_formula_sum   'Zn4 H16 C32 O13 F2'
_cell_volume   2773.27740068
_cell_formula_units_Z   1
loop_
 _symmetry_equiv_pos_site_id
 _symmetry_equiv_pos_as_xyz
  1  'x, y, z'
loop_
 _atom_site_type_symbol
 _atom_site_label
 _atom_site_symmetry_multiplicity
 _atom_site_fract_x
 _atom_site_fract_y
 _atom_site_fract_z
 _atom_site_occupancy
 _atom_site_pbe_bader_charge
 _atom_site_pbe_bader_spin_density
 _atom_site_pbe_cm5_charge
 _atom_site_pbe_ddec_charge
 _atom_site_pbe_ddec_spin_density
 _atom_site_pbe_ddec_sum_bond_order
 _atom_site_pbe_magmom
Zn  Zn0  1  0.41612706  0.44688808  0.44520858  1  1.308551  0  0.671935  0.964182  0  2.386305  0
Zn  Zn1  1  0.55339905  0.38163612  0.57234904  1  1.317319  0  0.673377  0.968  0  2.358957  0
Zn  Zn2  1  0.40969182  0.56990093  0.57375403  1  1.310649  0  0.667887  0.957756  0  2.372379  0
Zn  Zn3  1  0.60973977  0.61173989  0.40707446  1  1.315078  0  0.672144  0.969187  0  2.36082  0
H  H4  1  0.67400519  0.75787599  0.87994785  1  0.079341  0  0.103875  0.105272  0  0.99201  0
H  H5  1  0.37377655  0.23900062  0.84411387  1  0.088858  0  0.107693  0.113313  0  0.99024  0
H  H6  1  0.34830540  0.24211954  0.11250248  1  0.09106  0  0.104181  0.105551  0  0.992306  0
H  H7  1  0.71445732  0.79125713  0.99336936  1  0.075684  0  0.103827  0.104054  0  0.992758  0
H  H8  1  0.68678089  0.74043533  0.14573469  1  0.096145  0  0.107786  0.11451  0  0.993452  0
H  H9  1  0.46728730  0.46757374  0.20382370  1  0.088024  0  0.106642  0.111778  0  1.021064  0
H  H10  1  0.58764334  0.64487284  0.83054987  1  0.042244  0  0.103789  0.103696  0  1.009416  0
H  H11  1  0.41511952  0.36617900  0.16358998  1  0.07943  0  0.105097  0.106953  0  1.007385  0
H  H12  1  0.33695931  0.19262684  0.99705773  1  0.054848  0  0.104239  0.104438  0  0.992173  0
H  H13  1  0.09894164  0.49395426  0.45616489  1  0.09169  0  0.119619  0.137774  0  0.971868  0
H  H14  1  0.94437525  0.52083943  0.40782413  1  0.114498  0  0.123569  0.163767  0  0.969366  0
H  H15  1  0.05231176  0.48643451  0.63613685  1  0.095194  0  0.116348  0.13916  0  0.978238  0
H  H16  1  0.42839614  0.89477103  0.55569412  1  0.123494  0  0.120069  0.137324  0  0.969217  0
H  H17  1  0.43782277  0.04682550  0.60031564  1  0.1067  0  0.12303  0.163415  0  0.969945  0
H  H18  1  0.53884169  0.96011967  0.36572781  1  0.127842  0  0.115728  0.138001  0  0.978808  0
H  H19  1  0.51004784  0.55776981  0.79226293  1  0.082612  0  0.105394  0.108782  0  1.015701  0
C  C20  1  0.77316798  0.49560833  0.48057710  1  1.575166  0  0.225666  0.681252  0  4.161822  0
C  C21  1  0.42995639  0.39003473  0.09674156  1  -0.022254  0  -0.088533  -0.123003  0  4.019342  0
C  C22  1  0.39232669  0.32020465  0.06845052  1  -0.059466  0  -0.090512  -0.136681  0  4.027771  0
C  C23  1  0.21628402  0.49909502  0.55004421  1  1.554505  0  0.221267  0.645787  0  4.165026  0
C  C24  1  0.41047076  0.34671684  0.98159669  1  -0.075601  0  -0.004606  0.080961  0  4.019239  0
C  C25  1  0.46495213  0.45041342  0.92353987  1  0.026082  0  -0.000746  0.03687  0  3.943047  0
C  C26  1  0.37708220  0.27185986  0.95186745  1  0.038582  0  -0.088534  -0.133461  0  4.00273  0
C  C27  1  0.39609610  0.29733089  0.86770215  1  -0.077057  0  -0.086342  -0.098389  0  4.003402  0
C  C28  1  0.47516933  0.47758793  0.83841233  1  -0.066  0  -0.078493  -0.135211  0  3.931365  0
C  C29  1  0.09718473  0.48896752  0.57391331  1  0.009251  0  -0.085804  -0.203115  0  3.87741  0
C  C30  1  0.04848056  0.48776863  0.51828570  1  -0.031873  0  -0.077114  -0.138741  0  4.018378  0
C  C31  1  0.64560576  0.69247196  0.12346319  1  -0.052229  0  -0.085515  -0.094656  0  4.00196  0
C  C32  1  0.88942815  0.49675154  0.47141948  1  0.012502  0  -0.098157  -0.359548  0  3.857259  0
C  C33  1  0.93401462  0.48021985  0.53262659  1  0.504853  0  0.108313  0.319117  0  4.093204  0
C  C34  1  0.50116111  0.90879258  0.43112678  1  0.014363  0  -0.08494  -0.20089  0  3.881342  0
C  C35  1  0.46146703  0.22127261  0.52483110  1  1.593817  0  0.223274  0.677516  0  4.17096  0
C  C36  1  0.46114263  0.95046568  0.49075247  1  -0.052341  0  -0.077745  -0.140555  0  4.019343  0
C  C37  1  0.44910239  0.10501913  0.53727130  1  0.071719  0  -0.10005  -0.361823  0  3.863699  0
C  C38  1  0.46257834  0.06474936  0.47657806  1  0.403489  0  0.108646  0.319605  0  4.09236  0
C  C39  1  0.50417464  0.78986212  0.45382666  1  1.542283  0  0.221013  0.646828  0  4.171496  0
C  C40  1  0.45812162  0.43196939  0.72024868  1  1.560085  0  0.226671  0.608138  0  4.154533  0
C  C41  1  0.55215040  0.57342155  0.27353607  1  1.565857  0  0.225573  0.602125  0  4.167906  0
C  C42  1  0.52178180  0.53688754  0.15589957  1  -0.038871  0  -0.077207  -0.12967  0  3.9321  0
C  C43  1  0.57349187  0.60115962  0.18243410  1  -0.034329  0  -0.022509  -0.041511  0  4.004891  0
C  C44  1  0.44279660  0.40252003  0.81067631  1  -0.011123  0  -0.018363  -0.03071  0  4.000669  0
C  C45  1  0.66084034  0.71966949  0.03955885  1  -0.023454  0  -0.089648  -0.136046  0  3.999244  0
C  C46  1  0.53911884  0.56021964  0.07027902  1  0.008592  0  -0.001617  0.033638  0  3.941156  0
C  C47  1  0.60800867  0.65578517  0.01115535  1  -0.039432  0  -0.003352  0.085481  0  4.012822  0
C  C48  1  0.49121125  0.49103505  0.04059786  1  -0.067342  0  -0.001474  0.0334  0  3.956167  0
C  C49  1  0.50872764  0.52176940  0.95365795  1  -0.004466  0  -0.00268  0.029948  0  3.961643  0
C  C50  1  0.57369088  0.62059325  0.89733396  1  -0.014642  0  -0.089014  -0.121953  0  4.022198  0
C  C51  1  0.62245593  0.68419752  0.92463828  1  -0.015085  0  -0.091238  -0.138083  0  4.024613  0
O  O52  1  0.49891541  0.50278290  0.49853720  1  -1.235571  0  -0.574679  -1.035586  0  2.545819  0
O  O53  1  0.48083704  0.35643969  0.69126025  1  -1.165929  0  -0.316768  -0.549581  0  2.303141  0
O  O54  1  0.61661179  0.61987414  0.29497708  1  -1.179075  0  -0.314956  -0.545016  0  2.330229  0
O  O55  1  0.44704571  0.53005896  0.67795676  1  -1.173817  0  -0.31997  -0.551342  0  2.295746  0
O  O56  1  0.47053179  0.50536638  0.32329077  1  -1.17411  0  -0.318661  -0.548602  0  2.341872  0
O  O57  1  0.41777353  0.28823150  0.47574206  1  -1.158373  0  -0.31184  -0.544932  0  2.302199  0
O  O58  1  0.57515245  0.75960266  0.40177208  1  -1.156408  0  -0.317479  -0.549699  0  2.279986  0
O  O59  1  0.70877121  0.42120798  0.54361599  1  -1.165001  0  -0.313125  -0.546854  0  2.294342  0
O  O60  1  0.25681671  0.52202717  0.59899603  1  -1.153735  0  -0.318945  -0.546486  0  2.263716  0
O  O61  1  0.74991835  0.57060924  0.42167168  1  -1.15701  0  -0.318663  -0.550738  0  2.275404  0
O  O62  1  0.26848269  0.48538521  0.48264323  1  -1.180004  0  -0.322246  -0.558802  0  2.316736  0
O  O63  1  0.51557066  0.24240321  0.56663192  1  -1.162274  0  -0.317209  -0.547437  0  2.276288  0
O  O64  1  0.43741627  0.72854497  0.52332495  1  -1.178078  0  -0.318002  -0.54999  0  2.31859  0
F  F65  1  0.87115518  0.45904350  0.61258928  1  -0.622372  0  -0.093901  -0.133009  0  1.315986  0
F  F66  1  0.48615806  0.13279179  0.39537817  1  -0.623086  0  -0.096016  -0.135459  0  1.314445  0
