# generated using pymatgen
data_CdH14C16Se2(N2O)2
_symmetry_space_group_name_H-M   'P 1'
_cell_length_a   5.79290887
_cell_length_b   12.20444965
_cell_length_c   14.64303582
_cell_angle_alpha   69.67688833
_cell_angle_beta   78.57759936
_cell_angle_gamma   76.18502381
_symmetry_Int_Tables_number   1
_chemical_formula_structural   CdH14C16Se2(N2O)2
_chemical_formula_sum   'Cd2 H28 C32 Se4 N8 O4'
_cell_volume   935.16097383
_cell_formula_units_Z   2
loop_
 _symmetry_equiv_pos_site_id
 _symmetry_equiv_pos_as_xyz
  1  'x, y, z'
loop_
 _atom_site_type_symbol
 _atom_site_label
 _atom_site_symmetry_multiplicity
 _atom_site_fract_x
 _atom_site_fract_y
 _atom_site_fract_z
 _atom_site_occupancy
 _atom_site_pbe_bader_spin_density
 _atom_site_pbe_cm5_charge
 _atom_site_pbe_ddec_charge
 _atom_site_pbe_ddec_spin_density
 _atom_site_pbe_ddec_sum_bond_order
 _atom_site_pbe_magmom
Cd  Cd0  1  0.99997684  0.00000393  0.99999818  1  0  0.683215  0.679798  0  2.520161  0
Cd  Cd1  1  0.99998619  0.49999347  0.49998148  1  0  0.683623  0.680057  0  2.519037  0
H  H2  1  0.35764084  0.20074938  0.88669109  1  0  0.110675  0.080603  0  1.030098  0
H  H3  1  0.44500595  0.29898359  0.61345898  1  0  0.110912  0.081118  0  1.029137  0
H  H4  1  0.64235541  0.79924170  0.11329374  1  0  0.110666  0.080655  0  1.030061  0
H  H5  1  0.55493375  0.70102341  0.38651421  1  0  0.110921  0.081128  0  1.029247  0
H  H6  1  0.33941849  0.41858486  0.83465394  1  0  0.09535  0.100789  0  1.070181  0
H  H7  1  0.59314486  0.08108636  0.66547790  1  0  0.095266  0.100096  0  1.070944  0
H  H8  1  0.66058839  0.58141076  0.16533669  1  0  0.095302  0.100696  0  1.070264  0
H  H9  1  0.40680684  0.91892960  0.33449866  1  0  0.095282  0.100182  0  1.070843  0
H  H10  1  0.59466544  0.45209893  0.96043245  1  0  0.106124  0.103876  0  1.061553  0
H  H11  1  0.00830846  0.04827052  0.53916647  1  0  0.106168  0.104095  0  1.061436  0
H  H12  1  0.40538478  0.54790501  0.03958150  1  0  0.106126  0.103912  0  1.061423  0
H  H13  1  0.99168533  0.95170911  0.46082976  1  0  0.10619  0.10416  0  1.061316  0
H  H14  1  0.64659223  0.23183241  0.01138016  1  0  0.114893  0.094672  0  1.027163  0
H  H15  1  0.88995620  0.26870533  0.48837261  1  0  0.115209  0.095685  0  1.025251  0
H  H16  1  0.35340810  0.76817498  0.98862345  1  0  0.11486  0.094665  0  1.027228  0
H  H17  1  0.11000472  0.73127862  0.51161158  1  0  0.115206  0.095735  0  1.025176  0
H  H18  1  0.08726625  0.74331661  0.80503584  1  0  0.09764  0.156409  0  1.001534  0
H  H19  1  0.63611786  0.75644848  0.69520777  1  0  0.097429  0.1562  0  1.001311  0
H  H20  1  0.91283109  0.25666895  0.19500586  1  0  0.097604  0.156365  0  1.001629  0
H  H21  1  0.36391349  0.24356517  0.30479779  1  0  0.09747  0.156306  0  1.001336  0
H  H22  1  0.18063513  0.63832679  0.73867590  1  0  0.101404  0.164271  0  1.004496  0
H  H23  1  0.55649932  0.86140105  0.76162971  1  0  0.101297  0.164114  0  1.004997  0
H  H24  1  0.81947692  0.36165957  0.26135947  1  0  0.101507  0.164378  0  1.004587  0
H  H25  1  0.44352384  0.13863906  0.23835330  1  0  0.101308  0.164181  0  1.004873  0
H  H26  1  0.30087315  0.60996741  0.84794011  1  0  0.098659  0.152981  0  1.011994  0
H  H27  1  0.75805402  0.88998344  0.65256090  1  0  0.098496  0.152993  0  1.012311  0
H  H28  1  0.69921350  0.39000575  0.15210953  1  0  0.09867  0.153067  0  1.011728  0
H  H29  1  0.24196494  0.11003971  0.34742130  1  0  0.098514  0.153131  0  1.01217  0
C  C30  1  0.57248180  0.99340931  0.87762426  1  0  0.106342  0.202609  0  4.139393  0
C  C31  1  0.44381750  0.50621997  0.62261110  1  0  0.106235  0.203039  0  4.1404  0
C  C32  1  0.42743702  0.00658998  0.12237269  1  0  0.106029  0.202426  0  4.139497  0
C  C33  1  0.55619518  0.49378625  0.37737233  1  0  0.10621  0.20278  0  4.140168  0
C  C34  1  0.19183762  0.25955565  0.90259142  1  0  0.049986  0.105196  0  3.905967  0
C  C35  1  0.35408844  0.24032351  0.59749069  1  0  0.050023  0.104554  0  3.906787  0
C  C36  1  0.80817498  0.74044718  0.09740468  1  0  0.050015  0.105132  0  3.905984  0
C  C37  1  0.64582462  0.75968192  0.40249762  1  0  0.049942  0.104385  0  3.90658  0
C  C38  1  0.17970287  0.38220104  0.87349306  1  0  -0.075082  -0.125538  0  3.900741  0
C  C39  1  0.43579340  0.11764549  0.62658719  1  0  -0.075522  -0.125228  0  3.899725  0
C  C40  1  0.82032308  0.61779384  0.12651053  1  0  -0.075055  -0.12555  0  3.900457  0
C  C41  1  0.56414993  0.88235822  0.37340713  1  0  -0.075456  -0.125294  0  3.89952  0
C  C42  1  0.96338571  0.45486685  0.89453613  1  0  -0.004919  0.011837  0  3.929985  0
C  C43  1  0.31323700  0.04525091  0.60538799  1  0  -0.004131  0.012086  0  3.930089  0
C  C44  1  0.03665783  0.54512824  0.10548305  1  0  -0.004902  0.011969  0  3.929438  0
C  C45  1  0.68671580  0.95474220  0.39461412  1  0  -0.004199  0.012194  0  3.92987  0
C  C46  1  0.76764423  0.39981037  0.94355077  1  0  -0.076028  -0.137218  0  3.955335  0
C  C47  1  0.11162378  0.10053498  0.55614793  1  0  -0.076413  -0.137332  0  3.956866  0
C  C48  1  0.23239538  0.60019538  0.05646555  1  0  -0.076026  -0.137352  0  3.955153  0
C  C49  1  0.88834839  0.89944995  0.44384368  1  0  -0.076491  -0.137511  0  3.956727  0
C  C50  1  0.79471948  0.27714414  0.97133332  1  0  0.047348  0.095107  0  3.923858  0
C  C51  1  0.04336141  0.22315926  0.52850414  1  0  0.046873  0.094094  0  3.924149  0
C  C52  1  0.20529769  0.72286148  0.02867217  1  0  0.04731  0.095166  0  3.923837  0
C  C53  1  0.95659163  0.77682935  0.47149534  1  0  0.047009  0.094248  0  3.92367  0
C  C54  1  0.93218455  0.58784400  0.86906367  1  0  0.167989  0.462266  0  3.926494  0
C  C55  1  0.38878918  0.91220336  0.63108477  1  0  0.168116  0.462746  0  3.927562  0
C  C56  1  0.06788306  0.41214671  0.13096235  1  0  0.167934  0.462307  0  3.926325  0
C  C57  1  0.61120591  0.08779241  0.36891742  1  0  0.168098  0.462653  0  3.927582  0
C  C58  1  0.13691095  0.64866577  0.81223922  1  0  -0.245809  -0.504408  0  3.888372  0
C  C59  1  0.59741078  0.85111711  0.68804858  1  0  -0.24541  -0.50406  0  3.889572  0
C  C60  1  0.86319112  0.35131886  0.18780015  1  0  -0.245948  -0.504664  0  3.88857  0
C  C61  1  0.40261221  0.14890527  0.31194232  1  0  -0.245463  -0.504368  0  3.88964  0
Se  Se62  1  0.85368646  0.03588357  0.81697617  1  0  -0.081355  -0.243123  0  2.324498  0
Se  Se63  1  0.70682428  0.46431993  0.68323225  1  0  -0.08145  -0.24371  0  2.325885  0
Se  Se64  1  0.14623998  0.96413524  0.18301311  1  0  -0.081422  -0.243241  0  2.324725  0
Se  Se65  1  0.29313758  0.53572009  0.31674174  1  0  -0.081327  -0.243527  0  2.325408  0
N  N66  1  0.38709522  0.96550289  0.91716251  1  0  -0.380523  -0.425439  0  3.176839  0
N  N67  1  0.26999700  0.53389211  0.58306235  1  0  -0.380316  -0.425844  0  3.176384  0
N  N68  1  0.61281572  0.03447078  0.08285317  1  0  -0.380153  -0.425108  0  3.17656  0
N  N69  1  0.73001635  0.46609264  0.41691656  1  0  -0.380273  -0.42552  0  3.176748  0
N  N70  1  0.00353110  0.20767568  0.95114979  1  0  -0.320457  -0.22554  0  3.509904  0
N  N71  1  0.16237772  0.29237603  0.54885491  1  0  -0.320552  -0.225366  0  3.512287  0
N  N72  1  0.99646478  0.79232976  0.04884201  1  0  -0.32041  -0.225476  0  3.509919  0
N  N73  1  0.83752912  0.70762059  0.45114163  1  0  -0.320544  -0.22536  0  3.511539  0
O  O74  1  0.73830414  0.64357591  0.89561637  1  0  -0.253695  -0.40899  0  2.104253  0
O  O75  1  0.27663272  0.85676949  0.60463857  1  0  -0.254249  -0.409734  0  2.104545  0
O  O76  1  0.26173924  0.35642687  0.10437722  1  0  -0.253594  -0.408878  0  2.104098  0
O  O77  1  0.72337574  0.14322449  0.39536372  1  0  -0.254268  -0.409734  0  2.104524  0
