# generated using pymatgen
data_CdH13C13S2N3O2
_symmetry_space_group_name_H-M   'P 1'
_cell_length_a   8.44044853
_cell_length_b   9.08811245
_cell_length_c   10.53041245
_cell_angle_alpha   82.24046846
_cell_angle_beta   73.02360476
_cell_angle_gamma   79.87408801
_symmetry_Int_Tables_number   1
_chemical_formula_structural   CdH13C13S2N3O2
_chemical_formula_sum   'Cd2 H26 C26 S4 N6 O4'
_cell_volume   757.52240917
_cell_formula_units_Z   2
loop_
 _symmetry_equiv_pos_site_id
 _symmetry_equiv_pos_as_xyz
  1  'x, y, z'
loop_
 _atom_site_type_symbol
 _atom_site_label
 _atom_site_symmetry_multiplicity
 _atom_site_fract_x
 _atom_site_fract_y
 _atom_site_fract_z
 _atom_site_occupancy
 _atom_site_hle17_bader_spin_density
 _atom_site_hle17_ddec_charge
 _atom_site_hle17_ddec_spin_density
 _atom_site_hle17_ddec_sum_bond_order
 _atom_site_hle17_magmom
 _atom_site_hse06_10hf_bader_spin_density
 _atom_site_hse06_10hf_ddec_charge
 _atom_site_hse06_10hf_ddec_spin_density
 _atom_site_hse06_10hf_ddec_sum_bond_order
 _atom_site_hse06_10hf_magmom
 _atom_site_hse06_bader_spin_density
 _atom_site_hse06_ddec_charge
 _atom_site_hse06_ddec_spin_density
 _atom_site_hse06_ddec_sum_bond_order
 _atom_site_hse06_magmom
 _atom_site_pbe_bader_spin_density
 _atom_site_pbe_cm5_charge
 _atom_site_pbe_ddec_charge
 _atom_site_pbe_ddec_spin_density
 _atom_site_pbe_ddec_sum_bond_order
 _atom_site_pbe_magmom
Cd  Cd0  1  0.42377584  0.38284937  0.27818686  1  0  1.030972  0  1.940079  0  0  0.854102  0  2.419592  0  0  0.902195  0  2.375366  0  0  0.722429  0.82061  0  2.447628  0
Cd  Cd1  1  0.57622150  0.61714997  0.72181811  1  0  1.03093  0  1.940139  0  0  0.854049  0  2.419673  0  0  0.902142  0  2.375447  0  0  0.722417  0.820563  0  2.447713  0
H  H2  1  0.83017100  0.21654625  0.41613366  1  0  0.097939  0  0.98666  0  0  0.108635  0  1.051337  0  0  0.110663  0  1.050484  0  0  0.095861  0.106771  0  1.052766  0
H  H3  1  0.16982909  0.78345202  0.58386321  1  0  0.097976  0  0.986785  0  0  0.108671  0  1.05145  0  0  0.110698  0  1.050597  0  0  0.095893  0.106811  0  1.052883  0
H  H4  1  0.80912224  0.96452711  0.36649516  1  0  0.089053  0  0.97475  0  0  0.093743  0  1.047805  0  0  0.097265  0  1.0467  0  0  0.088206  0.091328  0  1.048422  0
H  H5  1  0.19087911  0.03547118  0.63349857  1  0  0.089063  0  0.974832  0  0  0.093783  0  1.04783  0  0  0.097317  0  1.046717  0  0  0.088227  0.09137  0  1.04845  0
H  H6  1  0.06817502  0.79815178  0.25309850  1  0  0.090818  0  0.960142  0  0  0.103026  0  1.021986  0  0  0.105275  0  1.020892  0  0  0.099653  0.102275  0  1.021136  0
H  H7  1  0.93183017  0.20184536  0.74690019  1  0  0.090774  0  0.960261  0  0  0.102985  0  1.022098  0  0  0.105231  0  1.021005  0  0  0.099655  0.102238  0  1.021247  0
H  H8  1  0.36172380  0.75633274  0.14813326  1  0  0.083566  0  0.953366  0  0  0.095781  0  1.017994  0  0  0.097236  0  1.014962  0  0  0.124172  0.094364  0  1.020469  0
H  H9  1  0.63827446  0.24366888  0.85186651  1  0  0.083595  0  0.953408  0  0  0.095821  0  1.018032  0  0  0.097281  0  1.015  0  0  0.124183  0.094404  0  1.020509  0
H  H10  1  0.65358433  0.74398321  0.00090951  1  0  0.072578  0  0.949124  0  0  0.084588  0  1.008659  0  0  0.084986  0  1.010155  0  0  0.114424  0.084119  0  1.0077  0
H  H11  1  0.34641625  0.25601955  0.99908770  1  0  0.072596  0  0.949179  0  0  0.084578  0  1.008729  0  0  0.084976  0  1.010226  0  0  0.114435  0.084111  0  1.007761  0
H  H12  1  0.83148647  0.98242543  0.07223988  1  0  0.107672  0  0.959572  0  0  0.122956  0  1.02163  0  0  0.124358  0  1.022198  0  0  0.097534  0.123304  0  1.018632  0
H  H13  1  0.16851606  0.01757283  0.92775929  1  0  0.107694  0  0.959506  0  0  0.122986  0  1.021564  0  0  0.124401  0  1.022116  0  0  0.097551  0.123332  0  1.018567  0
H  H14  1  0.92655781  0.85305060  0.94202180  1  0  0.106632  0  0.987524  0  0  0.119161  0  1.052306  0  0  0.119892  0  1.054682  0  0  0.091603  0.118167  0  1.051655  0
H  H15  1  0.07344189  0.14694991  0.05797681  1  0  0.10667  0  0.987506  0  0  0.119204  0  1.052286  0  0  0.119936  0  1.054662  0  0  0.091619  0.118211  0  1.051628  0
H  H16  1  0.77930621  0.76285792  0.24701084  1  0  0.105585  0  0.979962  0  0  0.121555  0  1.039573  0  0  0.122941  0  1.040618  0  0  0.093324  0.119697  0  1.040175  0
H  H17  1  0.22069493  0.23714148  0.75298566  1  0  0.105561  0  0.979934  0  0  0.121539  0  1.03954  0  0  0.122926  0  1.040585  0  0  0.093313  0.119685  0  1.040142  0
H  H18  1  0.87208238  0.63137074  0.11710749  1  0  0.102943  0  0.978133  0  0  0.116799  0  1.040197  0  0  0.118071  0  1.041133  0  0  0.091717  0.116173  0  1.0384  0
H  H19  1  0.12791857  0.36862977  0.88288989  1  0  0.102939  0  0.97815  0  0  0.116777  0  1.040229  0  0  0.11805  0  1.041165  0  0  0.091711  0.116151  0  1.038434  0
H  H20  1  0.93377043  0.45117309  0.27339860  1  0  0.079394  0  0.970116  0  0  0.093356  0  1.042133  0  0  0.093911  0  1.042423  0  0  0.090901  0.09324  0  1.041872  0
H  H21  1  0.06622838  0.54882516  0.72660141  1  0  0.079418  0  0.970127  0  0  0.093382  0  1.042143  0  0  0.093939  0  1.042431  0  0  0.090902  0.093271  0  1.041887  0
H  H22  1  0.02793112  0.55914958  0.35473663  1  0  0.094712  0  0.939546  0  0  0.11182  0  1.004971  0  0  0.112251  0  1.004663  0  0  0.103371  0.112548  0  1.003732  0
H  H23  1  0.97206505  0.44084979  0.64526291  1  0  0.094716  0  0.939642  0  0  0.111831  0  1.005053  0  0  0.112261  0  1.004747  0  0  0.103379  0.112565  0  1.003811  0
H  H24  1  0.87602232  0.44346191  0.45210536  1  0  0.088306  0  0.964723  0  0  0.103856  0  1.032025  0  0  0.10445  0  1.031967  0  0  0.094517  0.103093  0  1.032714  0
H  H25  1  0.12397526  0.55653634  0.54789494  1  0  0.088314  0  0.964728  0  0  0.10387  0  1.032019  0  0  0.104464  0  1.031963  0  0  0.094518  0.10311  0  1.032705  0
H  H26  1  0.53166782  0.00328935  0.17305960  1  0  0.297784  0  0.922452  0  0  0.277818  0  0.984199  0  0  0.287793  0  0.976422  0  0  0.309662  0.270952  0  0.989381  0
H  H27  1  0.46833523  0.99671341  0.82693800  1  0  0.2978  0  0.92247  0  0  0.277844  0  0.984199  0  0  0.287819  0  0.97642  0  0  0.309672  0.270979  0  0.989373  0
C  C28  1  0.23328230  0.95775379  0.24552348  1  0  -0.105917  0  3.828164  0  0  -0.086158  0  4.074481  0  0  -0.10153  0  4.101899  0  0  -0.034307  -0.076139  0  4.056554  0
C  C29  1  0.76672002  0.04224557  0.75447846  1  0  -0.105991  0  3.828329  0  0  -0.086197  0  4.074612  0  0  -0.101566  0  4.102028  0  0  -0.034303  -0.076182  0  4.056689  0
C  C30  1  0.24839940  0.10358732  0.27500696  1  0  0.265684  0  3.83008  0  0  0.242626  0  4.087719  0  0  0.260442  0  4.102087  0  0  0.089577  0.229993  0  4.079405  0
C  C31  1  0.75159990  0.89641541  0.72499434  1  0  0.265618  0  3.830202  0  0  0.242587  0  4.08779  0  0  0.2604  0  4.102157  0  0  0.089537  0.229961  0  4.079457  0
C  C32  1  0.09726981  0.19586814  0.33675340  1  0  0.127972  0  3.772956  0  0  0.124291  0  4.025625  0  0  0.126339  0  4.042708  0  0  0.060027  0.122145  0  4.014766  0
C  C33  1  0.90272989  0.80413237  0.66324521  1  0  0.127974  0  3.772947  0  0  0.124276  0  4.02562  0  0  0.12633  0  4.042694  0  0  0.060009  0.12214  0  4.014755  0
C  C34  1  0.94391659  0.14522331  0.36803049  1  0  -0.131676  0  3.758273  0  0  -0.158344  0  4.01385  0  0  -0.156012  0  4.032728  0  0  -0.099584  -0.159556  0  4.001941  0
C  C35  1  0.05608207  0.85477608  0.63196658  1  0  -0.131708  0  3.75853  0  0  -0.158372  0  4.014114  0  0  -0.156043  0  4.032998  0  0  -0.099601  -0.159598  0  4.002226  0
C  C36  1  0.93182807  0.00105963  0.33942864  1  0  -0.093228  0  3.816161  0  0  -0.110939  0  4.084947  0  0  -0.117499  0  4.107212  0  0  -0.111817  -0.1069  0  4.070536  0
C  C37  1  0.06817450  0.99893865  0.66056672  1  0  -0.093331  0  3.816204  0  0  -0.111067  0  4.084983  0  0  -0.117641  0  4.107246  0  0  -0.111867  -0.107023  0  4.070578  0
C  C38  1  0.07442800  0.90896651  0.27857408  1  0  -0.080863  0  3.759525  0  0  -0.108469  0  4.016039  0  0  -0.104354  0  4.036567  0  0  -0.092499  -0.110628  0  4.000513  0
C  C39  1  0.92557149  0.09103510  0.72142636  1  0  -0.080734  0  3.759467  0  0  -0.108346  0  4.01597  0  0  -0.104226  0  4.036496  0  0  -0.092478  -0.11051  0  4.00045  0
C  C40  1  0.37640803  0.86353320  0.17610396  1  0  0.196947  0  3.599549  0  0  0.140864  0  3.857796  0  0  0.162781  0  3.863767  0  0  0.093354  0.126192  0  3.854361  0
C  C41  1  0.62359624  0.13646955  0.82389527  1  0  0.196992  0  3.599513  0  0  0.14084  0  3.857814  0  0  0.16275  0  3.863792  0  0  0.093332  0.126171  0  3.854374  0
C  C42  1  0.67582309  0.80986431  0.07141080  1  0  0.136268  0  3.645829  0  0  0.111319  0  3.906373  0  0  0.11411  0  3.923824  0  0  0.001637  0.110016  0  3.893691  0
C  C43  1  0.32418050  0.19013508  0.92858705  1  0  0.13627  0  3.646031  0  0  0.11138  0  3.906498  0  0  0.114168  0  3.923954  0  0  0.001671  0.110073  0  3.893809  0
C  C44  1  0.83763545  0.87279276  0.03840176  1  0  -0.218923  0  3.67328  0  0  -0.261065  0  3.92413  0  0  -0.263825  0  3.938807  0  0  -0.179898  -0.259748  0  3.913896  0
C  C45  1  0.16236427  0.12720776  0.96159495  1  0  -0.218989  0  3.673341  0  0  -0.261153  0  3.92417  0  0  -0.263927  0  3.938849  0  0  -0.17993  -0.259838  0  3.913935  0
C  C46  1  0.80783102  0.74273397  0.14247017  1  0  -0.226739  0  3.651686  0  0  -0.265268  0  3.898674  0  0  -0.27018  0  3.914648  0  0  -0.181829  -0.261632  0  3.887129  0
C  C47  1  0.19216763  0.25726541  0.85752785  1  0  -0.22668  0  3.651692  0  0  -0.265221  0  3.898715  0  0  -0.270133  0  3.914693  0  0  -0.181816  -0.261589  0  3.887177  0
C  C48  1  0.97889070  0.45392127  0.36076498  1  0  -0.068696  0  3.596647  0  0  -0.163995  0  3.856451  0  0  -0.157596  0  3.860874  0  0  -0.144184  -0.16868  0  3.853443  0
C  C49  1  0.02110811  0.54607699  0.63923504  1  0  -0.06876  0  3.596744  0  0  -0.164074  0  3.856552  0  0  -0.157675  0  3.860974  0  0  -0.14418  -0.168766  0  3.85355  0
C  C50  1  0.54582724  0.32931031  0.56983909  1  0  0.314679  0  4.010082  0  0  0.293619  0  4.306568  0  0  0.315592  0  4.323394  0  0  0.155941  0.279789  0  4.293809  0
C  C51  1  0.45417296  0.67068681  0.43016454  1  0  0.314666  0  4.00997  0  0  0.293598  0  4.306463  0  0  0.315569  0  4.323289  0  0  0.15591  0.279766  0  4.293711  0
C  C52  1  0.70853965  0.42515736  0.98983615  1  0  0.303764  0  3.991097  0  0  0.285142  0  4.292381  0  0  0.30658  0  4.306524  0  0  0.154736  0.270695  0  4.281804  0
C  C53  1  0.29145591  0.57484535  0.01016886  1  0  0.303821  0  3.991054  0  0  0.285203  0  4.292334  0  0  0.306643  0  4.306476  0  0  0.154738  0.270765  0  4.281738  0
S  S54  1  0.47921760  0.20971360  0.50321649  1  0  -0.306841  0  2.150138  0  0  -0.275039  0  2.475389  0  0  -0.29153  0  2.469537  0  0  -0.121398  -0.263966  0  2.475651  0
S  S55  1  0.52078503  0.79028350  0.49679038  1  0  -0.306828  0  2.14996  0  0  -0.275028  0  2.475228  0  0  -0.291521  0  2.469375  0  0  -0.121374  -0.263951  0  2.475495  0
S  S56  1  0.74145344  0.33631860  0.12752410  1  0  -0.327198  0  2.168529  0  0  -0.287628  0  2.496989  0  0  -0.304976  0  2.490186  0  0  -0.119178  -0.274605  0  2.496758  0
S  S57  1  0.25854477  0.66368299  0.87248138  1  0  -0.327187  0  2.168555  0  0  -0.287635  0  2.49704  0  0  -0.304982  0  2.490238  0  0  -0.119142  -0.274612  0  2.496805  0
N  N58  1  0.52801748  0.89929458  0.14294230  1  0  -0.264145  0  3.413427  0  0  -0.192696  0  3.648976  0  0  -0.210288  0  3.661036  0  0  -0.36651  -0.181523  0  3.641563  0
N  N59  1  0.47198115  0.10070480  0.85705763  1  0  -0.264264  0  3.413534  0  0  -0.192806  0  3.649079  0  0  -0.210399  0  3.661142  0  0  -0.366558  -0.181625  0  3.641646  0
N  N60  1  0.60117953  0.41151529  0.61860953  1  0  -0.565337  0  2.927143  0  0  -0.501853  0  3.210126  0  0  -0.526066  0  3.217272  0  0  -0.401905  -0.485704  0  3.203937  0
N  N61  1  0.39882239  0.58848631  0.38139511  1  0  -0.565335  0  2.927184  0  0  -0.501851  0  3.210176  0  0  -0.52606  0  3.217318  0  0  -0.401904  -0.485695  0  3.203967  0
N  N62  1  0.68754454  0.48688272  0.88847844  1  0  -0.525834  0  2.867322  0  0  -0.472233  0  3.144605  0  0  -0.492601  0  3.150167  0  0  -0.385278  -0.458942  0  3.141731  0
N  N63  1  0.31244887  0.51311773  0.11153015  1  0  -0.525929  0  2.867299  0  0  -0.472333  0  3.14459  0  0  -0.4927  0  3.150146  0  0  -0.385332  -0.459044  0  3.141707  0
O  O64  1  0.39413559  0.15081624  0.24191548  1  0  -0.602934  0  2.133363  0  0  -0.533931  0  2.386553  0  0  -0.563911  0  2.38335  0  0  -0.334283  -0.513526  0  2.389214  0
O  O65  1  0.60586513  0.84918537  0.75808562  1  0  -0.602888  0  2.133362  0  0  -0.533889  0  2.386511  0  0  -0.56387  0  2.38331  0  0  -0.334258  -0.513503  0  2.389216  0
O  O66  1  0.11731971  0.33582638  0.36125157  1  0  -0.27488  0  2.426907  0  0  -0.187367  0  2.667801  0  0  -0.206692  0  2.672532  0  0  -0.199964  -0.173866  0  2.664524  0
O  O67  1  0.88267768  0.66417299  0.63874864  1  0  -0.274822  0  2.426872  0  0  -0.187305  0  2.667781  0  0  -0.206629  0  2.672509  0  0  -0.199939  -0.173799  0  2.664501  0
