# generated using pymatgen
data_CdH6C2N5Cl3
_symmetry_space_group_name_H-M   'P 1'
_cell_length_a   6.56793582
_cell_length_b   11.73357842
_cell_length_c   11.40769142
_cell_angle_alpha   90.00015429
_cell_angle_beta   90.00006610
_cell_angle_gamma   101.73183477
_symmetry_Int_Tables_number   1
_chemical_formula_structural   CdH6C2N5Cl3
_chemical_formula_sum   'Cd4 H24 C8 N20 Cl12'
_cell_volume   860.77298021
_cell_formula_units_Z   4
loop_
 _symmetry_equiv_pos_site_id
 _symmetry_equiv_pos_as_xyz
  1  'x, y, z'
loop_
 _atom_site_type_symbol
 _atom_site_label
 _atom_site_symmetry_multiplicity
 _atom_site_fract_x
 _atom_site_fract_y
 _atom_site_fract_z
 _atom_site_occupancy
 _atom_site_hle17_bader_spin_density
 _atom_site_hle17_ddec_charge
 _atom_site_hle17_ddec_spin_density
 _atom_site_hle17_ddec_sum_bond_order
 _atom_site_hle17_magmom
 _atom_site_hse06_10hf_bader_spin_density
 _atom_site_hse06_10hf_ddec_charge
 _atom_site_hse06_10hf_ddec_spin_density
 _atom_site_hse06_10hf_ddec_sum_bond_order
 _atom_site_hse06_10hf_magmom
 _atom_site_hse06_bader_spin_density
 _atom_site_hse06_ddec_charge
 _atom_site_hse06_ddec_spin_density
 _atom_site_hse06_ddec_sum_bond_order
 _atom_site_hse06_magmom
 _atom_site_pbe_bader_spin_density
 _atom_site_pbe_cm5_charge
 _atom_site_pbe_ddec_charge
 _atom_site_pbe_ddec_spin_density
 _atom_site_pbe_ddec_sum_bond_order
 _atom_site_pbe_magmom
Cd  Cd0  1  0.26261633  0.55484054  0.94094408  1  0  0.95603  0  2.011241  0  0  0.812329  0  2.472055  0  0  0.85681  0  2.431432  0  0  0.539501  0.780879  0  2.499672  0
Cd  Cd1  1  0.73738298  0.94516172  0.44094878  1  0  0.956067  0  2.011189  0  0  0.812368  0  2.471989  0  0  0.85685  0  2.431365  0  0  0.539512  0.780918  0  2.49961  0
Cd  Cd2  1  0.73737912  0.44516284  0.05905399  1  0  0.95606  0  2.011243  0  0  0.812355  0  2.472073  0  0  0.856835  0  2.431447  0  0  0.539519  0.780906  0  2.499693  0
Cd  Cd3  1  0.26261998  0.05483728  0.55905543  1  0  0.956077  0  2.011147  0  0  0.812356  0  2.471991  0  0  0.856837  0  2.431367  0  0  0.539524  0.780905  0  2.499607  0
H  H4  1  0.71120460  0.72324011  0.77615125  1  0  0.130958  0  0.920543  0  0  0.135377  0  0.9882  0  0  0.138403  0  0.984075  0  0  0.139672  0.133015  0  0.991438  0
H  H5  1  0.28878657  0.77676169  0.27615608  1  0  0.130973  0  0.920491  0  0  0.135375  0  0.988172  0  0  0.138403  0  0.984042  0  0  0.139665  0.133013  0  0.99141  0
H  H6  1  0.28878444  0.27676242  0.22384156  1  0  0.130924  0  0.920505  0  0  0.135335  0  0.988186  0  0  0.138362  0  0.984056  0  0  0.139655  0.132974  0  0.991423  0
H  H7  1  0.71121639  0.22323732  0.72384900  1  0  0.13094  0  0.920616  0  0  0.135357  0  0.988283  0  0  0.138384  0  0.984155  0  0  0.139661  0.132995  0  0.991519  0
H  H8  1  0.36153943  0.39724118  0.69195487  1  0  0.317353  0  0.917266  0  0  0.291597  0  0.988797  0  0  0.300765  0  0.981166  0  0  0.289663  0.285041  0  0.99438  0
H  H9  1  0.63845780  0.10276545  0.19195241  1  0  0.317423  0  0.917205  0  0  0.291627  0  0.988804  0  0  0.300803  0  0.98116  0  0  0.289637  0.28507  0  0.994393  0
H  H10  1  0.63846187  0.60276568  0.30804496  1  0  0.317349  0  0.917261  0  0  0.29159  0  0.988802  0  0  0.300763  0  0.981164  0  0  0.289636  0.285033  0  0.994389  0
H  H11  1  0.36154309  0.89723618  0.80805092  1  0  0.31734  0  0.917311  0  0  0.291619  0  0.9888  0  0  0.300762  0  0.981204  0  0  0.289664  0.285061  0  0.994387  0
H  H12  1  0.05183295  0.67455611  0.67429777  1  0  0.295463  0  0.920525  0  0  0.27982  0  0.992775  0  0  0.285493  0  0.987867  0  0  0.278231  0.27549  0  0.996718  0
H  H13  1  0.94816268  0.82544189  0.17430051  1  0  0.295422  0  0.920539  0  0  0.279772  0  0.992792  0  0  0.285444  0  0.987886  0  0  0.278238  0.275445  0  0.996732  0
H  H14  1  0.94815752  0.32544206  0.32569942  1  0  0.295414  0  0.920536  0  0  0.279768  0  0.992784  0  0  0.285441  0  0.987876  0  0  0.278235  0.275441  0  0.996726  0
H  H15  1  0.05184147  0.17455624  0.82570107  1  0  0.295416  0  0.920502  0  0  0.279766  0  0.992773  0  0  0.285439  0  0.987866  0  0  0.278251  0.275438  0  0.996708  0
H  H16  1  0.94849086  0.70393296  0.54567610  1  0  0.285804  0  0.940526  0  0  0.268323  0  1.01682  0  0  0.273836  0  1.011984  0  0  0.270905  0.264118  0  1.020712  0
H  H17  1  0.05150619  0.79606552  0.04567820  1  0  0.285804  0  0.940576  0  0  0.268297  0  1.016889  0  0  0.27381  0  1.012051  0  0  0.270904  0.264092  0  1.020782  0
H  H18  1  0.05150264  0.29606520  0.45431847  1  0  0.285807  0  0.940623  0  0  0.268282  0  1.016952  0  0  0.273794  0  1.012119  0  0  0.270909  0.264078  0  1.020845  0
H  H19  1  0.94850262  0.20393695  0.95432337  1  0  0.285836  0  0.940458  0  0  0.268305  0  1.016783  0  0  0.273815  0  1.011954  0  0  0.270946  0.2641  0  1.020675  0
H  H20  1  0.84153066  0.43274048  0.50048512  1  0  0.338034  0  0.908787  0  0  0.311668  0  0.989655  0  0  0.320728  0  0.980881  0  0  0.301038  0.305148  0  0.996116  0
H  H21  1  0.15846954  0.06726295  0.00048490  1  0  0.337983  0  0.90881  0  0  0.31163  0  0.989664  0  0  0.32069  0  0.980892  0  0  0.301031  0.305111  0  0.996125  0
H  H22  1  0.15846436  0.56725768  0.49951207  1  0  0.337992  0  0.908815  0  0  0.311666  0  0.989645  0  0  0.320726  0  0.980871  0  0  0.301015  0.305143  0  0.996112  0
H  H23  1  0.84154144  0.93274126  0.99951930  1  0  0.338044  0  0.908661  0  0  0.311664  0  0.989575  0  0  0.320724  0  0.9808  0  0  0.301022  0.305141  0  0.996045  0
H  H24  1  0.61948994  0.33102553  0.53354506  1  0  0.344058  0  0.905685  0  0  0.324026  0  0.974553  0  0  0.331636  0  0.968302  0  0  0.286457  0.318637  0  0.978967  0
H  H25  1  0.38050484  0.16897540  0.03354263  1  0  0.34404  0  0.905657  0  0  0.324021  0  0.974509  0  0  0.33163  0  0.968258  0  0  0.286455  0.318633  0  0.978916  0
H  H26  1  0.38049596  0.66897265  0.46645827  1  0  0.344113  0  0.905642  0  0  0.324072  0  0.974524  0  0  0.331682  0  0.968271  0  0  0.286441  0.318675  0  0.97895  0
H  H27  1  0.61950485  0.83102533  0.96646070  1  0  0.344098  0  0.905607  0  0  0.324052  0  0.974493  0  0  0.331661  0  0.968241  0  0  0.286419  0.318657  0  0.978919  0
C  C28  1  0.65406840  0.63929421  0.73572401  1  0  0.179387  0  3.615881  0  0  0.103577  0  3.912357  0  0  0.120791  0  3.919294  0  0  0.169362  0.092092  0  3.907816  0
C  C29  1  0.34592808  0.86070571  0.23572735  1  0  0.179315  0  3.615858  0  0  0.103533  0  3.912316  0  0  0.120748  0  3.91925  0  0  0.169368  0.09205  0  3.907778  0
C  C30  1  0.34592608  0.36070657  0.26426880  1  0  0.179435  0  3.615815  0  0  0.103615  0  3.912303  0  0  0.120832  0  3.919235  0  0  0.169331  0.092132  0  3.907764  0
C  C31  1  0.65407488  0.13929329  0.76427510  1  0  0.17932  0  3.616015  0  0  0.10349  0  3.912516  0  0  0.120703  0  3.919452  0  0  0.169351  0.092009  0  3.907968  0
C  C32  1  0.65064958  0.48603561  0.62223370  1  0  0.569103  0  3.781976  0  0  0.497728  0  4.072974  0  0  0.524681  0  4.078978  0  0  0.365814  0.479728  0  4.068536  0
C  C33  1  0.34934788  0.01396383  0.12223520  1  0  0.569001  0  3.781871  0  0  0.497588  0  4.072927  0  0  0.524541  0  4.07893  0  0  0.365774  0.47959  0  4.068487  0
C  C34  1  0.34935024  0.51395904  0.37776087  1  0  0.569295  0  3.781595  0  0  0.497709  0  4.072884  0  0  0.524661  0  4.078889  0  0  0.365842  0.479721  0  4.068429  0
C  C35  1  0.65065844  0.98603604  0.87776901  1  0  0.569117  0  3.78184  0  0  0.49778  0  4.072783  0  0  0.524731  0  4.078786  0  0  0.365878  0.479776  0  4.068348  0
N  N36  1  0.76178325  0.59457084  0.64934279  1  0  -0.036439  0  3.539656  0  0  0.047926  0  3.770206  0  0  0.031436  0  3.790994  0  0  -0.148027  0.05856  0  3.756121  0
N  N37  1  0.23820773  0.90542710  0.14934444  1  0  -0.036287  0  3.53957  0  0  0.048049  0  3.77015  0  0  0.031561  0  3.790937  0  0  -0.148049  0.05868  0  3.756065  0
N  N38  1  0.23821025  0.40542732  0.35065353  1  0  -0.036541  0  3.539691  0  0  0.047878  0  3.770305  0  0  0.031389  0  3.791092  0  0  -0.148036  0.058506  0  3.75622  0
N  N39  1  0.76179403  0.09457278  0.85065714  1  0  -0.036359  0  3.539532  0  0  0.047978  0  3.770095  0  0  0.03149  0  3.790881  0  0  -0.148076  0.058609  0  3.756011  0
N  N40  1  0.48318295  0.56499889  0.76180100  1  0  -0.210798  0  3.099134  0  0  -0.178373  0  3.39306  0  0  -0.191072  0  3.407964  0  0  -0.23125  -0.169784  0  3.383015  0
N  N41  1  0.51680752  0.93500113  0.26180816  1  0  -0.210861  0  3.099128  0  0  -0.178453  0  3.393065  0  0  -0.191152  0  3.407965  0  0  -0.23133  -0.169868  0  3.383027  0
N  N42  1  0.51680696  0.43500190  0.23819006  1  0  -0.210824  0  3.099165  0  0  -0.178392  0  3.393094  0  0  -0.191091  0  3.407993  0  0  -0.231237  -0.169804  0  3.383054  0
N  N43  1  0.48318935  0.06499790  0.73820043  1  0  -0.210809  0  3.099079  0  0  -0.178382  0  3.393023  0  0  -0.19108  0  3.407919  0  0  -0.23126  -0.169795  0  3.382976  0
N  N44  1  0.48177193  0.47049185  0.69087153  1  0  -0.287009  0  3.384509  0  0  -0.225698  0  3.624558  0  0  -0.242854  0  3.637843  0  0  -0.276061  -0.214335  0  3.615818  0
N  N45  1  0.51823216  0.02950865  0.19087230  1  0  -0.28702  0  3.38429  0  0  -0.225666  0  3.624352  0  0  -0.242832  0  3.637638  0  0  -0.275935  -0.214296  0  3.615609  0
N  N46  1  0.51822799  0.52950716  0.30912830  1  0  -0.287041  0  3.384424  0  0  -0.225661  0  3.624544  0  0  -0.242822  0  3.637844  0  0  -0.276037  -0.214297  0  3.615795  0
N  N47  1  0.48177688  0.97049034  0.80913103  1  0  -0.286983  0  3.384392  0  0  -0.225698  0  3.624381  0  0  -0.242836  0  3.637707  0  0  -0.27606  -0.214332  0  3.615647  0
N  N48  1  0.95996162  0.63882890  0.60470723  1  0  -0.504052  0  2.950752  0  0  -0.495261  0  3.180944  0  0  -0.50342  0  3.179531  0  0  -0.491646  -0.489144  0  3.182756  0
N  N49  1  0.04003498  0.86116801  0.10471215  1  0  -0.504069  0  2.950943  0  0  -0.495168  0  3.181075  0  0  -0.503331  0  3.179665  0  0  -0.491615  -0.489051  0  3.182886  0
N  N50  1  0.04003461  0.36116838  0.39528645  1  0  -0.50404  0  2.951035  0  0  -0.495134  0  3.181168  0  0  -0.503295  0  3.179758  0  0  -0.491644  -0.48902  0  3.182981  0
N  N51  1  0.95997134  0.13883186  0.89529206  1  0  -0.504018  0  2.950671  0  0  -0.495137  0  3.180915  0  0  -0.503297  0  3.179503  0  0  -0.491654  -0.489021  0  3.182723  0
N  N52  1  0.69901217  0.41541707  0.54090427  1  0  -0.658796  0  3.119831  0  0  -0.626951  0  3.369705  0  0  -0.64675  0  3.363203  0  0  -0.565241  -0.613095  0  3.374065  0
N  N53  1  0.30098166  0.08458127  0.04090682  1  0  -0.658718  0  3.11983  0  0  -0.62688  0  3.369728  0  0  -0.646678  0  3.363228  0  0  -0.565243  -0.613023  0  3.374082  0
N  N54  1  0.30097862  0.58458197  0.45909380  1  0  -0.658872  0  3.119575  0  0  -0.627007  0  3.369507  0  0  -0.646804  0  3.363001  0  0  -0.56521  -0.613143  0  3.37388  0
N  N55  1  0.69902227  0.91542034  0.95909826  1  0  -0.658923  0  3.119696  0  0  -0.627066  0  3.369518  0  0  -0.646863  0  3.363015  0  0  -0.565261  -0.613203  0  3.373892  0
Cl  Cl56  1  0.38852512  0.34828839  0.96052010  1  0  -0.567928  0  1.049876  0  0  -0.507253  0  1.337589  0  0  -0.526206  0  1.318724  0  0  -0.302766  -0.493553  0  1.350436  0
Cl  Cl57  1  0.61147528  0.15171292  0.46052127  1  0  -0.567924  0  1.049857  0  0  -0.507232  0  1.33755  0  0  -0.526185  0  1.318687  0  0  -0.302764  -0.493523  0  1.350381  0
Cl  Cl58  1  0.61147153  0.65171412  0.03947972  1  0  -0.567956  0  1.049896  0  0  -0.507261  0  1.337592  0  0  -0.526213  0  1.318729  0  0  -0.30276  -0.493541  0  1.350411  0
Cl  Cl59  1  0.38852952  0.84828695  0.53948206  1  0  -0.567957  0  1.049885  0  0  -0.507243  0  1.337577  0  0  -0.526199  0  1.318713  0  0  -0.302765  -0.493526  0  1.350393  0
Cl  Cl60  1  0.92234815  0.43330759  0.85516515  1  0  -0.556519  0  1.045026  0  0  -0.495204  0  1.333035  0  0  -0.514997  0  1.314837  0  0  -0.316751  -0.480928  0  1.345619  0
Cl  Cl61  1  0.07765159  0.06669255  0.35516488  1  0  -0.556517  0  1.044962  0  0  -0.495209  0  1.332968  0  0  -0.515005  0  1.314777  0  0  -0.316751  -0.480933  0  1.345553  0
Cl  Cl62  1  0.07764753  0.56669231  0.14483380  1  0  -0.556512  0  1.044994  0  0  -0.495203  0  1.333006  0  0  -0.515  0  1.314817  0  0  -0.316751  -0.480928  0  1.345591  0
Cl  Cl63  1  0.92235050  0.93330820  0.64483845  1  0  -0.556535  0  1.045004  0  0  -0.495225  0  1.33303  0  0  -0.515021  0  1.314839  0  0  -0.316762  -0.480952  0  1.345614  0
Cl  Cl64  1  0.16470111  0.74676307  0.86135153  1  0  -0.594605  0  0.933951  0  0  -0.543645  0  1.188893  0  0  -0.559282  0  1.170137  0  0  -0.308904  -0.531897  0  1.202373  0
Cl  Cl65  1  0.83529338  0.75323897  0.36134786  1  0  -0.594618  0  0.933987  0  0  -0.543617  0  1.188888  0  0  -0.559264  0  1.170132  0  0  -0.308892  -0.531869  0  1.202363  0
Cl  Cl66  1  0.83529162  0.25324119  0.13864742  1  0  -0.59464  0  0.933994  0  0  -0.543622  0  1.188896  0  0  -0.559269  0  1.170139  0  0  -0.308886  -0.53187  0  1.202371  0
Cl  Cl67  1  0.16470469  0.24675918  0.63865109  1  0  -0.594629  0  0.933957  0  0  -0.543625  0  1.188869  0  0  -0.559272  0  1.170112  0  0  -0.308906  -0.531878  0  1.202344  0
