# generated using pymatgen
data_Ag2H6C8S(NO)4
_symmetry_space_group_name_H-M   'P 1'
_cell_length_a   7.98685024
_cell_length_b   8.31610153
_cell_length_c   9.74952059
_cell_angle_alpha   58.53244445
_cell_angle_beta   79.40642978
_cell_angle_gamma   70.57497632
_symmetry_Int_Tables_number   1
_chemical_formula_structural   Ag2H6C8S(NO)4
_chemical_formula_sum   'Ag4 H12 C16 S2 N8 O8'
_cell_volume   520.84346333
_cell_formula_units_Z   2
loop_
 _symmetry_equiv_pos_site_id
 _symmetry_equiv_pos_as_xyz
  1  'x, y, z'
loop_
 _atom_site_type_symbol
 _atom_site_label
 _atom_site_symmetry_multiplicity
 _atom_site_fract_x
 _atom_site_fract_y
 _atom_site_fract_z
 _atom_site_occupancy
 _atom_site_hle17_bader_spin_density
 _atom_site_hle17_ddec_charge
 _atom_site_hle17_ddec_spin_density
 _atom_site_hle17_ddec_sum_bond_order
 _atom_site_hle17_magmom
 _atom_site_hse06_10hf_bader_spin_density
 _atom_site_hse06_10hf_ddec_charge
 _atom_site_hse06_10hf_ddec_spin_density
 _atom_site_hse06_10hf_ddec_sum_bond_order
 _atom_site_hse06_10hf_magmom
 _atom_site_hse06_bader_spin_density
 _atom_site_hse06_ddec_charge
 _atom_site_hse06_ddec_spin_density
 _atom_site_hse06_ddec_sum_bond_order
 _atom_site_hse06_magmom
 _atom_site_pbe_bader_spin_density
 _atom_site_pbe_cm5_charge
 _atom_site_pbe_ddec_charge
 _atom_site_pbe_ddec_spin_density
 _atom_site_pbe_ddec_sum_bond_order
 _atom_site_pbe_magmom
Ag  Ag0  1  0.30547525  0.12520153  0.39068059  1  0  0.590951  0  1.340455  0  0  0.456325  0  1.780499  0  0  0.484918  0  1.727027  0  0  0.468692  0.43764  0  1.81803  0
Ag  Ag1  1  0.69455651  0.87479865  0.60932003  1  0  0.590927  0  1.340457  0  0  0.456308  0  1.780534  0  0  0.484902  0  1.727061  0  0  0.468708  0.437625  0  1.818063  0
Ag  Ag2  1  0.57732406  0.68463752  0.42552034  1  0  0.540889  0  1.50237  0  0  0.393767  0  1.97677  0  0  0.418489  0  1.926526  0  0  0.499616  0.376248  0  2.013178  0
Ag  Ag3  1  0.42267302  0.31534523  0.57448842  1  0  0.540793  0  1.502359  0  0  0.393757  0  1.976727  0  0  0.418482  0  1.926481  0  0  0.499625  0.37624  0  2.013122  0
H  H4  1  0.09045167  0.28090678  0.08341754  1  0  0.105037  0  0.9556  0  0  0.110676  0  1.02385  0  0  0.113783  0  1.020648  0  0  0.127864  0.108035  0  1.026711  0
H  H5  1  0.90956443  0.71910306  0.91658790  1  0  0.104937  0  0.955718  0  0  0.110632  0  1.023872  0  0  0.113738  0  1.02067  0  0  0.127853  0.107987  0  1.026737  0
H  H6  1  0.30671361  0.88425468  0.89084944  1  0  0.142874  0  0.970461  0  0  0.148464  0  1.032657  0  0  0.152815  0  1.028901  0  0  0.118798  0.14566  0  1.03466  0
H  H7  1  0.69327601  0.11574098  0.10916952  1  0  0.142799  0  0.970143  0  0  0.14831  0  1.03248  0  0  0.152659  0  1.028735  0  0  0.118764  0.145509  0  1.034473  0
H  H8  1  0.50256396  0.67647279  0.13144006  1  0  0.127558  0  0.945563  0  0  0.133941  0  1.006017  0  0  0.137387  0  1.003541  0  0  0.129067  0.131186  0  1.00822  0
H  H9  1  0.49742380  0.32351708  0.86856055  1  0  0.127547  0  0.945584  0  0  0.133921  0  1.006025  0  0  0.137364  0  1.00355  0  0  0.12912  0.131168  0  1.008226  0
H  H10  1  0.98727537  0.50134323  0.85357681  1  0  0.101258  0  0.952122  0  0  0.108807  0  1.017257  0  0  0.111671  0  1.014191  0  0  0.128129  0.106514  0  1.020047  0
H  H11  1  0.01272373  0.49866490  0.14642850  1  0  0.101275  0  0.952148  0  0  0.108864  0  1.017218  0  0  0.111729  0  1.014151  0  0  0.128156  0.106572  0  1.020011  0
H  H12  1  0.08609180  0.04102432  0.73619142  1  0  0.130369  0  0.977807  0  0  0.137993  0  1.039576  0  0  0.141666  0  1.03673  0  0  0.117708  0.135033  0  1.042228  0
H  H13  1  0.91392835  0.95899334  0.26379736  1  0  0.130307  0  0.977801  0  0  0.137912  0  1.039607  0  0  0.14159  0  1.036763  0  0  0.117665  0.134952  0  1.042259  0
H  H14  1  0.86043995  0.27588147  0.52570717  1  0  0.118911  0  0.969837  0  0  0.123753  0  1.036003  0  0  0.127041  0  1.033399  0  0  0.126462  0.120772  0  1.038869  0
H  H15  1  0.13956198  0.72412949  0.47428653  1  0  0.119002  0  0.969774  0  0  0.123796  0  1.035946  0  0  0.127084  0  1.033342  0  0  0.126478  0.120809  0  1.038821  0
C  C16  1  0.18468937  0.15448718  0.07944628  1  0  0.07878  0  3.620399  0  0  0.044018  0  3.871984  0  0  0.047418  0  3.887977  0  0  0.07082  0.041125  0  3.861739  0
C  C17  1  0.81532233  0.84550680  0.92055200  1  0  0.078915  0  3.62064  0  0  0.044183  0  3.872238  0  0  0.047579  0  3.888231  0  0  0.070768  0.041298  0  3.861987  0
C  C18  1  0.17982203  0.11112400  0.95889259  1  0  0.042751  0  3.740145  0  0  0.055707  0  3.974313  0  0  0.05555  0  3.994626  0  0  0.017348  0.056201  0  3.960628  0
C  C19  1  0.82017899  0.88886433  0.04110758  1  0  0.042754  0  3.740206  0  0  0.05561  0  3.974478  0  0  0.055457  0  3.99479  0  0  0.017406  0.056099  0  3.960797  0
C  C20  1  0.29717587  0.93438179  0.97630709  1  0  -0.085105  0  3.615185  0  0  -0.10959  0  3.865087  0  0  -0.110088  0  3.880081  0  0  -0.055358  -0.108395  0  3.853891  0
C  C21  1  0.70281282  0.06561201  0.02368372  1  0  -0.08517  0  3.615164  0  0  -0.10957  0  3.865105  0  0  -0.110075  0  3.880098  0  0  -0.055387  -0.108369  0  3.853911  0
C  C22  1  0.40988650  0.81847275  0.10775844  1  0  0.095321  0  3.623887  0  0  0.061465  0  3.877251  0  0  0.06525  0  3.893864  0  0  0.052125  0.058006  0  3.86669  0
C  C23  1  0.59010859  0.18151583  0.89224829  1  0  0.095261  0  3.624047  0  0  0.061561  0  3.877305  0  0  0.06534  0  3.893935  0  0  0.052057  0.058081  0  3.866774  0
C  C24  1  0.96104633  0.43632551  0.79085834  1  0  0.101273  0  3.604876  0  0  0.062955  0  3.8589  0  0  0.067248  0  3.874123  0  0  0.074517  0.059711  0  3.849793  0
C  C25  1  0.03895440  0.56367078  0.20915024  1  0  0.101217  0  3.605251  0  0  0.062856  0  3.859225  0  0  0.067142  0  3.874452  0  0  0.074486  0.059613  0  3.850125  0
C  C26  1  0.05433641  0.24294169  0.82525978  1  0  0.0384  0  3.741118  0  0  0.050687  0  3.981179  0  0  0.050972  0  4.000344  0  0  0.014918  0.049935  0  3.969185  0
C  C27  1  0.94566302  0.75705090  0.17473995  1  0  0.038573  0  3.74095  0  0  0.050894  0  3.980976  0  0  0.051184  0  4.000138  0  0  0.014999  0.050131  0  3.969004  0
C  C28  1  0.01919987  0.18413345  0.72594668  1  0  -0.093303  0  3.642118  0  0  -0.119608  0  3.897359  0  0  -0.120896  0  3.913254  0  0  -0.05942  -0.11969  0  3.888235  0
C  C29  1  0.98081126  0.81587300  0.27405834  1  0  -0.093339  0  3.641939  0  0  -0.11963  0  3.89705  0  0  -0.120934  0  3.912965  0  0  -0.059417  -0.119693  0  3.887906  0
C  C30  1  0.89144830  0.31455361  0.60749256  1  0  0.094618  0  3.648968  0  0  0.058916  0  3.906833  0  0  0.063112  0  3.923979  0  0  0.049456  0.055841  0  3.896545  0
C  C31  1  0.10856068  0.68545016  0.39250742  1  0  0.094447  0  3.649206  0  0  0.058862  0  3.906956  0  0  0.063058  0  3.924101  0  0  0.049425  0.05579  0  3.896677  0
S  S32  1  0.26655057  0.72095654  0.72047804  1  0  1.525511  0  5.883011  0  0  1.415351  0  6.401653  0  0  1.471416  0  6.370485  0  0  0.517849  1.376472  0  6.420924  0
S  S33  1  0.73343430  0.27904431  0.27951146  1  0  1.525892  0  5.883202  0  0  1.41573  0  6.401803  0  0  1.471783  0  6.370622  0  0  0.517978  1.376861  0  6.42107  0
N  N34  1  0.29904543  0.04160555  0.20056483  1  0  -0.148226  0  3.190091  0  0  -0.090766  0  3.472803  0  0  -0.099729  0  3.486574  0  0  -0.205759  -0.084382  0  3.463467  0
N  N35  1  0.70096563  0.95839110  0.79945109  1  0  -0.148342  0  3.190292  0  0  -0.090855  0  3.473101  0  0  -0.099817  0  3.486875  0  0  -0.205715  -0.084468  0  3.463745  0
N  N36  1  0.41327492  0.87390653  0.21401676  1  0  -0.16243  0  3.292468  0  0  -0.087079  0  3.574239  0  0  -0.09836  0  3.590647  0  0  -0.223986  -0.079066  0  3.56355  0
N  N37  1  0.58673351  0.12607506  0.78598536  1  0  -0.162068  0  3.292045  0  0  -0.086937  0  3.573988  0  0  -0.098217  0  3.590398  0  0  -0.223897  -0.078909  0  3.563275  0
N  N38  1  0.83980238  0.55592228  0.67618336  1  0  -0.149431  0  3.194039  0  0  -0.089547  0  3.476228  0  0  -0.099127  0  3.490168  0  0  -0.207111  -0.083487  0  3.467647  0
N  N39  1  0.16019139  0.44409171  0.32381604  1  0  -0.149572  0  3.194375  0  0  -0.089635  0  3.476527  0  0  -0.099216  0  3.49047  0  0  -0.207196  -0.083569  0  3.467941  0
N  N40  1  0.80239626  0.49370775  0.58584649  1  0  -0.156794  0  3.265716  0  0  -0.084915  0  3.545109  0  0  -0.096285  0  3.561828  0  0  -0.22488  -0.077209  0  3.534084  0
N  N41  1  0.19760382  0.50629189  0.41415675  1  0  -0.156595  0  3.265882  0  0  -0.084806  0  3.545264  0  0  -0.096177  0  3.561984  0  0  -0.224794  -0.077109  0  3.534245  0
O  O42  1  0.35797731  0.88210291  0.66182385  1  0  -0.799445  0  2.064231  0  0  -0.71425  0  2.363211  0  0  -0.742289  0  2.33803  0  0  -0.38879  -0.693424  0  2.379444  0
O  O43  1  0.64202918  0.11789291  0.33818033  1  0  -0.79952  0  2.0645  0  0  -0.714278  0  2.363412  0  0  -0.742336  0  2.33829  0  0  -0.388814  -0.693452  0  2.379644  0
O  O44  1  0.37293075  0.58468376  0.65813173  1  0  -0.783216  0  2.075832  0  0  -0.710041  0  2.373812  0  0  -0.736096  0  2.351924  0  0  -0.392057  -0.69148  0  2.388648  0
O  O45  1  0.62707341  0.41529876  0.34187141  1  0  -0.783381  0  2.075911  0  0  -0.710194  0  2.373871  0  0  -0.736247  0  2.351985  0  0  -0.392114  -0.691635  0  2.388704  0
O  O46  1  0.08507564  0.81516702  0.65425150  1  0  -0.735428  0  1.942024  0  0  -0.683956  0  2.206863  0  0  -0.708003  0  2.191299  0  0  -0.3719  -0.665989  0  2.216528  0
O  O47  1  0.91491035  0.18486503  0.34570248  1  0  -0.735435  0  1.942014  0  0  -0.683934  0  2.206791  0  0  -0.707973  0  2.191229  0  0  -0.371939  -0.665971  0  2.216452  0
O  O48  1  0.26295079  0.61214029  0.89834122  1  0  -0.721107  0  1.837963  0  0  -0.673133  0  2.0762  0  0  -0.697892  0  2.063029  0  0  -0.384139  -0.655324  0  2.084766  0
O  O49  1  0.73699235  0.38786972  0.10166147  1  0  -0.72124  0  1.838066  0  0  -0.673297  0  2.076357  0  0  -0.698072  0  2.063223  0  0  -0.384188  -0.655494  0  2.084935  0
