# generated using pymatgen
data_TbH21C36(NO4)2
_symmetry_space_group_name_H-M   'P 1'
_cell_length_a   10.78554681
_cell_length_b   12.16482297
_cell_length_c   12.33690000
_cell_angle_alpha   94.20826134
_cell_angle_beta   106.29980115
_cell_angle_gamma   100.93816837
_symmetry_Int_Tables_number   1
_chemical_formula_structural   TbH21C36(NO4)2
_chemical_formula_sum   'Tb2 H42 C72 N4 O16'
_cell_volume   1511.53352841
_cell_formula_units_Z   2
loop_
 _symmetry_equiv_pos_site_id
 _symmetry_equiv_pos_as_xyz
  1  'x, y, z'
loop_
 _atom_site_type_symbol
 _atom_site_label
 _atom_site_symmetry_multiplicity
 _atom_site_fract_x
 _atom_site_fract_y
 _atom_site_fract_z
 _atom_site_occupancy
 _atom_site_hle17_bader_spin_density
 _atom_site_hle17_ddec_charge
 _atom_site_hle17_ddec_spin_density
 _atom_site_hle17_ddec_sum_bond_order
 _atom_site_hle17_magmom
 _atom_site_hse06_10hf_bader_spin_density
 _atom_site_hse06_10hf_ddec_charge
 _atom_site_hse06_10hf_ddec_spin_density
 _atom_site_hse06_10hf_ddec_sum_bond_order
 _atom_site_hse06_10hf_magmom
 _atom_site_hse06_bader_spin_density
 _atom_site_hse06_ddec_charge
 _atom_site_hse06_ddec_spin_density
 _atom_site_hse06_ddec_sum_bond_order
 _atom_site_hse06_magmom
 _atom_site_pbe_bader_charge
 _atom_site_pbe_bader_spin_density
 _atom_site_pbe_cm5_charge
 _atom_site_pbe_ddec_charge
 _atom_site_pbe_ddec_spin_density
 _atom_site_pbe_ddec_sum_bond_order
 _atom_site_pbe_magmom
Tb  Tb0  1  0.08834450  0.80925805  0.99880245  1  0  2.126574  0  1.780085  0  0  1.950633  0  2.294538  0  0  2.00587  0  2.245027  0  2.133978  0  1.545405  1.90809  0  2.334565  0
Tb  Tb1  1  0.91165582  0.19074253  0.00119823  1  0  2.126591  0  1.780086  0  0  1.950649  0  2.294549  0  0  2.005888  0  2.245035  0  2.133979  0  1.545423  1.908119  0  2.334556  0
H  H2  1  0.27811244  0.07057845  0.01955680  1  0  0.089777  0  0.931292  0  0  0.096632  0  0.995335  0  0  0.099629  0  0.99247  0  0.127071  0  0.125613  0.094413  0  0.997448  0
H  H3  1  0.72188787  0.92942213  0.98044308  1  0  0.08978  0  0.931292  0  0  0.096639  0  0.995332  0  0  0.099637  0  0.992467  0  0.127077  0  0.125615  0.09442  0  0.997446  0
H  H4  1  0.51256351  0.18336894  0.09364789  1  0  0.108839  0  0.946842  0  0  0.120527  0  1.004425  0  0  0.1234  0  1.004107  0  0.093433  0  0.110243  0.118436  0  1.004891  0
H  H5  1  0.48743681  0.81663164  0.90635279  1  0  0.108842  0  0.94688  0  0  0.120521  0  1.004472  0  0  0.123394  0  1.004152  0  0.093433  0  0.110253  0.11843  0  1.004936  0
H  H6  1  0.68822660  0.09405446  0.20395210  1  0  0.116031  0  0.941926  0  0  0.125813  0  1.002545  0  0  0.129299  0  0.999501  0  0.173571  0  0.11522  0.123236  0  1.004799  0
H  H7  1  0.31177350  0.90594527  0.79604766  1  0  0.116029  0  0.941932  0  0  0.125809  0  1.002559  0  0  0.129297  0  0.999512  0  0.173573  0  0.115222  0.123233  0  1.004811  0
H  H8  1  0.74945096  0.92324579  0.29035991  1  0  0.097943  0  0.976192  0  0  0.107358  0  1.039111  0  0  0.10884  0  1.040844  0  0.107683  0  0.101971  0.106145  0  1.038169  0
H  H9  1  0.25054773  0.07675225  0.70963939  1  0  0.097938  0  0.976156  0  0  0.107331  0  1.039101  0  0  0.108813  0  1.040833  0  0.107662  0  0.101964  0.106117  0  1.038159  0
H  H10  1  0.68259261  0.72472496  0.32255091  1  0  0.100296  0  0.93609  0  0  0.113708  0  0.990619  0  0  0.116247  0  0.990522  0  0.073869  0  0.107935  0.111906  0  0.990754  0
H  H11  1  0.31740727  0.27527393  0.67744793  1  0  0.100273  0  0.936108  0  0  0.113703  0  0.990618  0  0  0.116241  0  0.990521  0  0.073868  0  0.107928  0.111899  0  0.990753  0
H  H12  1  0.50203211  0.55171132  0.30001188  1  0  0.110731  0  0.922931  0  0  0.124656  0  0.975939  0  0  0.127516  0  0.973874  0  0.109176  0  0.115674  0.122576  0  0.977483  0
H  H13  1  0.49796798  0.44828842  0.69998788  1  0  0.110713  0  0.922946  0  0  0.124637  0  0.975955  0  0  0.127497  0  0.97389  0  0.109176  0  0.115649  0.122557  0  0.977499  0
H  H14  1  0.26287830  0.45776838  0.22087163  1  0  0.120021  0  0.951374  0  0  0.125633  0  1.016052  0  0  0.129692  0  1.013745  0  0.130989  0  0.111166  0.122647  0  1.01795  0
H  H15  1  0.73712105  0.54223219  0.77912882  1  0  0.120035  0  0.951375  0  0  0.125644  0  1.016057  0  0  0.1297  0  1.013758  0  0.130997  0  0.111173  0.12266  0  1.017954  0
H  H16  1  0.10505819  0.56322753  0.10778347  1  0  0.096849  0  0.934706  0  0  0.102989  0  0.999152  0  0  0.106296  0  0.995661  0  0.169826  0  0.127041  0.100511  0  1.001812  0
H  H17  1  0.89494094  0.43677220  0.89221768  1  0  0.096873  0  0.934667  0  0  0.10301  0  0.999119  0  0  0.106318  0  0.995627  0  0.169831  0  0.127062  0.100533  0  1.001778  0
H  H18  1  0.27228180  0.70970149  0.68892040  1  0  0.103896  0  0.948523  0  0  0.113677  0  1.011082  0  0  0.11727  0  1.00887  0  0.085639  0  0.106744  0.111088  0  1.012662  0
H  H19  1  0.72771851  0.29029909  0.31107948  1  0  0.103917  0  0.9485  0  0  0.113672  0  1.011096  0  0  0.117269  0  1.008865  0  0.085651  0  0.106765  0.111085  0  1.012672  0
H  H20  1  0.24988383  0.61088761  0.49860596  1  0  0.094304  0  0.970594  0  0  0.10641  0  1.029335  0  0  0.109452  0  1.027783  0  0.06054  0  0.101739  0.104221  0  1.030496  0
H  H21  1  0.75011433  0.38911212  0.50139414  1  0  0.094335  0  0.970568  0  0  0.106442  0  1.029307  0  0  0.109485  0  1.027754  0  0.060542  0  0.101743  0.104253  0  1.03047  0
H  H22  1  0.88383050  0.52603598  0.67305414  1  0  0.106095  0  0.959493  0  0  0.114949  0  1.024494  0  0  0.118483  0  1.022239  0  0.10155  0  0.10622  0.112381  0  1.026204  0
H  H23  1  0.11616981  0.47396460  0.32694654  1  0  0.106098  0  0.959558  0  0  0.114952  0  1.024546  0  0  0.118484  0  1.022292  0  0.101533  0  0.106223  0.112384  0  1.026256  0
H  H24  1  0.83920928  0.54374798  0.17506825  1  0  0.100841  0  0.959718  0  0  0.10992  0  1.021905  0  0  0.112672  0  1.02105  0  0.087991  0  0.102759  0.107855  0  1.022783  0
H  H25  1  0.16079103  0.45625260  0.82493162  1  0  0.100863  0  0.959768  0  0  0.109941  0  1.021952  0  0  0.112693  0  1.021097  0  0.087992  0  0.10278  0.107875  0  1.02283  0
H  H26  1  0.64091310  0.40118092  0.17748616  1  0  0.096246  0  0.96557  0  0  0.106022  0  1.030517  0  0  0.108748  0  1.029421  0  0.05393  0  0.101024  0.104247  0  1.031041  0
H  H27  1  0.35908699  0.59881882  0.82251360  1  0  0.096253  0  0.965565  0  0  0.106031  0  1.030512  0  0  0.108757  0  1.029415  0  0.05393  0  0.101025  0.104256  0  1.031036  0
H  H28  1  0.59988557  0.67971454  0.89941762  1  0  0.101159  0  0.970332  0  0  0.107903  0  1.041069  0  0  0.111471  0  1.038164  0  0.079619  0  0.104224  0.105268  0  1.043303  0
H  H29  1  0.40011453  0.32028519  0.10058214  1  0  0.10117  0  0.97033  0  0  0.107916  0  1.04106  0  0  0.111483  0  1.038157  0  0.079623  0  0.104225  0.10528  0  1.043296  0
H  H30  1  0.03146637  0.80637942  0.27828872  1  0  0.109332  0  0.959248  0  0  0.117315  0  1.022247  0  0  0.121201  0  1.01969  0  0.114538  0  0.107967  0.114506  0  1.024126  0
H  H31  1  0.96853394  0.19362116  0.72171116  1  0  0.109307  0  0.95927  0  0  0.117291  0  1.022267  0  0  0.121178  0  1.01971  0  0.114545  0  0.10796  0.114481  0  1.024149  0
H  H32  1  0.02883086  0.77717317  0.47568030  1  0  0.092599  0  0.963949  0  0  0.103523  0  1.024267  0  0  0.105638  0  1.024944  0  0.09116  0  0.09911  0.101955  0  1.023984  0
H  H33  1  0.97116923  0.22282656  0.52431946  1  0  0.09264  0  0.963939  0  0  0.103552  0  1.024271  0  0  0.105665  0  1.024949  0  0.091161  0  0.099122  0.101982  0  1.023989  0
H  H34  1  0.98208529  0.14639031  0.33522423  1  0  0.106129  0  0.950598  0  0  0.114407  0  1.016066  0  0  0.117432  0  1.014433  0  0.093348  0  0.107497  0.112243  0  1.017226  0
H  H35  1  0.01791502  0.85361027  0.66477565  1  0  0.106169  0  0.950625  0  0  0.114452  0  1.016084  0  0  0.117477  0  1.014451  0  0.093356  0  0.107527  0.112288  0  1.017244  0
H  H36  1  0.22428776  0.21956941  0.17291202  1  0  0.415718  0  0.865087  0  0  0.384238  0  0.945646  0  0  0.396658  0  0.93139  0  0.662809  0  0.315408  0.375465  0  0.955626  0
H  H37  1  0.77571256  0.78043117  0.82708786  1  0  0.415725  0  0.865102  0  0  0.384235  0  0.945677  0  0  0.396658  0  0.931418  0  0.662814  0  0.31539  0.375461  0  0.955657  0
H  H38  1  0.57695880  0.30105319  0.49862449  1  0  0.090107  0  0.973186  0  0  0.101155  0  1.034278  0  0  0.104437  0  1.031835  0  0.074624  0  0.100722  0.098776  0  1.036051  0
H  H39  1  0.42304226  0.69894654  0.50137470  1  0  0.090095  0  0.9732  0  0  0.101158  0  1.034274  0  0  0.104439  0  1.031833  0  0.074597  0  0.100722  0.098779  0  1.036047  0
H  H40  1  0.69888396  0.18176951  0.62828175  1  0  0.098963  0  0.9433  0  0  0.110455  0  1.002598  0  0  0.11291  0  1.00253  0  0.092636  0  0.104034  0.108676  0  1.002793  0
H  H41  1  0.30111806  0.81823022  0.37171849  1  0  0.098979  0  0.943296  0  0  0.110488  0  1.002573  0  0  0.112943  0  1.002505  0  0.092643  0  0.104044  0.108709  0  1.002769  0
H  H42  1  0.28670574  0.00660472  0.31217041  1  0  0.115984  0  0.954798  0  0  0.120989  0  1.025287  0  0  0.124301  0  1.023359  0  0.114721  0  0.108916  0.118536  0  1.026819  0
H  H43  1  0.71329458  0.99339586  0.68782947  1  0  0.115977  0  0.954783  0  0  0.120981  0  1.025277  0  0  0.124292  0  1.023348  0  0.114712  0  0.108916  0.118527  0  1.026809  0
C  C44  1  0.35733114  0.03322044  0.06771840  1  0  0.163186  0  3.693048  0  0  0.13026  0  3.958543  0  0  0.139392  0  3.973558  0  0.473089  0  0.066081  0.124421  0  3.947972  0
C  C45  1  0.64266821  0.96678013  0.93228205  1  0  0.163106  0  3.693046  0  0  0.130173  0  3.95856  0  0  0.139304  0  3.973576  0  0.473066  0  0.066035  0.124335  0  3.94799  0
C  C46  1  0.48823116  0.09669145  0.11070795  1  0  -0.112558  0  3.714289  0  0  -0.129298  0  3.974235  0  0  -0.136791  0  3.995922  0  0.042748  0  -0.081066  -0.124488  0  3.959613  0
C  C47  1  0.51176894  0.90330829  0.88929263  1  0  -0.11245  0  3.71424  0  0  -0.129176  0  3.974175  0  0  -0.136669  0  3.995859  0  0.042728  0  -0.081028  -0.124368  0  3.959553  0
C  C48  1  0.58558677  0.04698667  0.17233733  1  0  -0.035044  0  3.656462  0  0  -0.057936  0  3.902248  0  0  -0.054822  0  3.919042  0  -0.111854  0  -0.055837  -0.059635  0  3.890749  0
C  C49  1  0.41441355  0.95301390  0.82766255  1  0  -0.03508  0  3.656455  0  0  -0.057976  0  3.902257  0  0  -0.054862  0  3.919048  0  -0.11179  0  -0.055843  -0.059674  0  3.890758  0
C  C50  1  0.55155286  0.93373797  0.19167930  1  0  0.02554  0  3.788794  0  0  0.042107  0  4.017378  0  0  0.039196  0  4.041866  0  0.011546  0  5.1e-05  0.043756  0  4.000957  0
C  C51  1  0.44844627  0.06626176  0.80832022  1  0  0.025521  0  3.788877  0  0  0.042044  0  4.017461  0  0  0.039133  0  4.041949  0  0.011483  0  1.1e-05  0.043693  0  4.001039  0
C  C52  1  0.64678276  0.87694181  0.25573514  1  0  -0.0935  0  3.735835  0  0  -0.113301  0  3.983372  0  0  -0.116274  0  4.007226  0  -0.071571  0  -0.082047  -0.111087  0  3.967316  0
C  C53  1  0.35321637  0.12305793  0.74426439  1  0  -0.093434  0  3.735864  0  0  -0.113213  0  3.983409  0  0  -0.116185  0  4.007263  0  -0.071581  0  -0.082007  -0.111  0  3.967353  0
C  C54  1  0.60982923  0.76766279  0.27349621  1  0  -0.095081  0  3.752989  0  0  -0.119062  0  4.007293  0  0  -0.122702  0  4.03111  0  0.039665  0  -0.081071  -0.1165  0  3.991057  0
C  C55  1  0.39016969  0.23233610  0.72650239  1  0  -0.095064  0  3.752993  0  0  -0.119058  0  4.007286  0  0  -0.1227  0  4.031105  0  0.039716  0  -0.081071  -0.116495  0  3.99105  0
C  C56  1  0.47475275  0.70718701  0.22947895  1  0  0.026633  0  3.789732  0  0  0.042217  0  4.022611  0  0  0.039437  0  4.047806  0  -0.001595  0  0.000597  0.043909  0  4.005649  0
C  C57  1  0.52524734  0.29281272  0.77052081  1  0  0.026572  0  3.789675  0  0  0.042157  0  4.022573  0  0  0.039376  0  4.047769  0  -0.001634  0  0.000588  0.04385  0  4.005611  0
C  C58  1  0.43131980  0.59599679  0.25035264  1  0  -0.034959  0  3.673261  0  0  -0.059807  0  3.919544  0  0  -0.057059  0  3.937802  0  -0.053708  0  -0.055876  -0.061395  0  3.90705  0
C  C59  1  0.56868051  0.40400379  0.74964724  1  0  -0.034875  0  3.673259  0  0  -0.059725  0  3.919539  0  0  -0.056975  0  3.937794  0  -0.053709  0  -0.055847  -0.061313  0  3.907044  0
C  C60  1  0.29889962  0.54373868  0.20698843  1  0  -0.11773  0  3.723759  0  0  -0.130733  0  3.980967  0  0  -0.138623  0  4.002713  0  -0.050099  0  -0.080681  -0.125621  0  3.966452  0
C  C61  1  0.70110026  0.45626021  0.79301122  1  0  -0.117795  0  3.723914  0  0  -0.130793  0  3.98112  0  0  -0.138685  0  4.002865  0  -0.050102  0  -0.080683  -0.125683  0  3.966606  0
C  C62  1  0.21020774  0.60232100  0.14236646  1  0  0.166455  0  3.678397  0  0  0.135534  0  3.937326  0  0  0.144275  0  3.952665  0  0.470931  0  0.065543  0.129833  0  3.926784  0
C  C63  1  0.78979161  0.39767958  0.85763642  1  0  0.166514  0  3.678347  0  0  0.135596  0  3.937269  0  0  0.144339  0  3.952604  0  0.470873  0  0.065551  0.129893  0  3.926729  0
C  C64  1  0.37793592  0.76047677  0.16396619  1  0  0.138662  0  3.757236  0  0  0.135073  0  3.994309  0  0  0.139557  0  4.015014  0  0.468252  0  0.122465  0.132104  0  3.980082  0
C  C65  1  0.62206224  0.23952296  0.83603391  1  0  0.138798  0  3.757297  0  0  0.135181  0  3.994348  0  0  0.139665  0  4.015056  0  0.468232  0  0.122521  0.132212  0  3.980123  0
C  C66  1  0.41698273  0.87560346  0.14450183  1  0  0.139856  0  3.755431  0  0  0.135343  0  3.993017  0  0  0.139857  0  4.014068  0  0.443906  0  0.122805  0.132387  0  3.978602  0
C  C67  1  0.58301736  0.12439627  0.85549874  1  0  0.139695  0  3.755555  0  0  0.135287  0  3.993023  0  0  0.139801  0  4.014073  0  0.443956  0  0.122772  0.132332  0  3.978607  0
C  C68  1  0.09275124  0.67822073  0.80825016  1  0  0.623854  0  3.953511  0  0  0.581598  0  4.241753  0  0  0.615186  0  4.234621  0  1.525348  0  0.185571  0.558937  0  4.245536  0
C  C69  1  0.90725004  0.32177985  0.19174995  1  0  0.623864  0  3.953564  0  0  0.58161  0  4.241807  0  0  0.615198  0  4.234674  0  1.525314  0  0.185561  0.558948  0  4.24559  0
C  C70  1  0.07856987  0.62187491  0.69232337  1  0  -0.05771  0  3.767211  0  0  -0.035389  0  4.001853  0  0  -0.042577  0  4.024067  0  -0.028254  0  -0.016756  -0.030861  0  3.986873  0
C  C71  1  0.92143066  0.37812652  0.30767662  1  0  -0.057709  0  3.767308  0  0  -0.035404  0  4.001963  0  0  -0.042594  0  4.02418  0  -0.028275  0  -0.016764  -0.030875  0  3.986982  0
C  C72  1  0.18271890  0.64709821  0.64244347  1  0  -0.076805  0  3.749003  0  0  -0.102678  0  4.005135  0  0  -0.102998  0  4.025024  0  0.010491  0  -0.084523  -0.102221  0  3.991445  0
C  C73  1  0.81728163  0.35290321  0.35755652  1  0  -0.076815  0  3.749088  0  0  -0.102665  0  4.005222  0  0  -0.102977  0  4.02511  0  0.010602  0  -0.084535  -0.102208  0  3.991532  0
C  C74  1  0.17003550  0.59277681  0.53683220  1  0  -0.111028  0  3.749094  0  0  -0.13056  0  3.996666  0  0  -0.133559  0  4.017272  0  -0.030888  0  -0.086239  -0.128495  0  3.982632  0
C  C75  1  0.82996675  0.40722376  0.46316896  1  0  -0.111139  0  3.749066  0  0  -0.13068  0  3.996619  0  0  -0.133684  0  4.017225  0  -0.030932  0  -0.086281  -0.128616  0  3.982588  0
C  C76  1  0.96296707  0.54407242  0.63378137  1  0  -0.097733  0  3.678601  0  0  -0.12764  0  3.918778  0  0  -0.126727  0  3.936098  0  -0.120005  0  -0.073469  -0.127967  0  3.906989  0
C  C77  1  0.03703325  0.45592816  0.36621689  1  0  -0.097664  0  3.678636  0  0  -0.127539  0  3.918804  0  0  -0.126626  0  3.936126  0  -0.120034  0  -0.07343  -0.127867  0  3.907016  0
C  C78  1  0.05300361  0.51223257  0.47523097  1  0  0.054995  0  3.806037  0  0  0.07276  0  4.030395  0  0  0.072178  0  4.054761  0  0.029797  0  -0.005027  0.073027  0  4.013948  0
C  C79  1  0.94699982  0.48776885  0.52476730  1  0  0.055114  0  3.805956  0  0  0.072927  0  4.030263  0  0  0.072345  0  4.05463  0  -0.03065  0  -0.004997  0.073193  0  4.013818  0
C  C80  1  0.85148165  0.69673708  0.03033659  1  0  0.656065  0  3.893631  0  0  0.611135  0  4.175253  0  0  0.645555  0  4.167177  0  1.523278  0  0.202032  0.58786  0  4.179647  0
C  C81  1  0.14851867  0.30326350  0.96966248  1  0  0.656099  0  3.893591  0  0  0.611166  0  4.175205  0  0  0.645585  0  4.167127  0  1.52327  0  0.20205  0.587892  0  4.1796  0
C  C82  1  0.72979145  0.62066668  0.03747892  1  0  -0.062359  0  3.77832  0  0  -0.040085  0  4.012504  0  0  -0.048173  0  4.035747  0  -0.062054  0  -0.018928  -0.03483  0  3.996789  0
C  C83  1  0.27020939  0.37933221  0.96251853  1  0  -0.062403  0  3.778328  0  0  -0.040093  0  4.01247  0  0  -0.048182  0  4.035712  0  -0.062057  0  -0.01893  -0.03484  0  3.996756  0
C  C84  1  0.74168991  0.54146585  0.11675548  1  0  -0.069373  0  3.734778  0  0  -0.093636  0  3.984919  0  0  -0.09444  0  4.006571  0  -0.043884  0  -0.084976  -0.092963  0  3.970377  0
C  C85  1  0.25831041  0.45853472  0.88324440  1  0  -0.069354  0  3.734819  0  0  -0.093625  0  3.984958  0  0  -0.094428  0  4.006605  0  -0.043874  0  -0.084983  -0.092952  0  3.970416  0
C  C86  1  0.63229434  0.46270016  0.11747003  1  0  -0.099536  0  3.726172  0  0  -0.120335  0  3.976829  0  0  -0.123284  0  3.998159  0  0.015463  0  -0.083369  -0.118317  0  3.962138  0
C  C87  1  0.36770575  0.53729957  0.88252973  1  0  -0.099557  0  3.726218  0  0  -0.120377  0  3.97688  0  0  -0.123323  0  3.998206  0  0.015448  0  -0.083382  -0.118358  0  3.962187  0
C  C88  1  0.60762480  0.62109674  0.96234110  1  0  -0.101095  0  3.692874  0  0  -0.134584  0  3.943378  0  0  -0.133515  0  3.961298  0  -0.00333  0  -0.0758  -0.134824  0  3.930949  0
C  C89  1  0.39237648  0.37890384  0.03765901  1  0  -0.101146  0  3.692925  0  0  -0.134643  0  3.943441  0  0  -0.133572  0  3.961361  0  -0.003324  0  -0.07582  -0.13488  0  3.931012  0
C  C90  1  0.50635181  0.45915489  0.03917107  1  0  0.057425  0  3.784259  0  0  0.074976  0  4.009333  0  0  0.074477  0  4.033389  0  -0.040809  0  -0.004352  0.075293  0  3.99298  0
C  C91  1  0.49364829  0.54084484  0.96082788  1  0  0.057402  0  3.784257  0  0  0.075  0  4.009293  0  0  0.0745  0  4.033352  0  0.009279  0  -0.004317  0.075317  0  3.99294  0
C  C92  1  0.00948190  0.99549126  0.17812067  1  0  0.754658  0  3.834172  0  0  0.708223  0  4.118495  0  0  0.745225  0  4.104492  0  1.61254  0  0.248046  0.682806  0  4.127427  0
C  C93  1  0.99051723  0.00450848  0.82187886  1  0  0.754653  0  3.834106  0  0  0.708188  0  4.118469  0  0  0.745182  0  4.104482  0  1.61256  0  0.248048  0.682771  0  4.127402  0
C  C94  1  0.00738903  0.97907114  0.29645645  1  0  -0.069628  0  3.757447  0  0  -0.050046  0  3.993832  0  0  -0.056973  0  4.01466  0  -0.005876  0  -0.014851  -0.045626  0  3.980151  0
C  C95  1  0.99261204  0.02092859  0.70354273  1  0  -0.069753  0  3.757608  0  0  -0.05014  0  3.993973  0  0  -0.057064  0  4.014803  0  -0.005867  0  -0.014883  -0.045718  0  3.980291  0
C  C96  1  0.02144414  0.87400572  0.33615254  1  0  -0.081384  0  3.745901  0  0  -0.10517  0  3.996276  0  0  -0.105998  0  4.01622  0  -0.105706  0  -0.086226  -0.104495  0  3.982861  0
C  C97  1  0.97855595  0.12599401  0.66384641  1  0  -0.081302  0  3.745951  0  0  -0.105097  0  3.996322  0  0  -0.105924  0  4.016265  0  -0.105695  0  -0.086219  -0.104421  0  3.982906  0
C  C98  1  0.01929671  0.85797765  0.44494013  1  0  -0.111553  0  3.745823  0  0  -0.126314  0  3.987918  0  0  -0.1291  0  4.009204  0  -0.020317  0  -0.088019  -0.124301  0  3.973407  0
C  C99  1  0.98070361  0.14202293  0.55505975  1  0  -0.111553  0  3.745795  0  0  -0.126314  0  3.987894  0  0  -0.129099  0  4.009181  0  -0.020332  0  -0.088008  -0.1243  0  3.973383  0
C  C100  1  0.99286076  0.06636231  0.36703686  1  0  -0.103917  0  3.69127  0  0  -0.134408  0  3.938387  0  0  -0.133461  0  3.955388  0  -0.088565  0  -0.076033  -0.134727  0  3.926801  0
C  C101  1  0.00713934  0.93363742  0.63296209  1  0  -0.10397  0  3.691291  0  0  -0.134474  0  3.93842  0  0  -0.133527  0  3.95542  0  -0.088568  0  -0.07606  -0.134794  0  3.926835  0
C  C102  1  0.00647255  0.94667111  0.51986776  1  0  0.055531  0  3.796984  0  0  0.072119  0  4.02279  0  0  0.071746  0  4.046571  0  -0.032298  0  -0.004921  0.072365  0  4.006403  0
C  C103  1  0.99352776  0.05332947  0.48013131  1  0  0.055393  0  3.797066  0  0  0.072007  0  4.022849  0  0  0.071632  0  4.046631  0  0.016754  0  -0.004929  0.072254  0  4.00646  0
C  C104  1  0.36801652  0.23307118  0.31483059  1  0  0.636821  0  3.856064  0  0  0.592295  0  4.148035  0  0  0.625388  0  4.139329  0  1.528359  0  0.224674  0.569822  0  4.153391  0
C  C105  1  0.63198357  0.76692856  0.68516917  1  0  0.636831  0  3.85599  0  0  0.592269  0  4.147996  0  0  0.625362  0  4.13929  0  1.528361  0  0.224662  0.569796  0  4.153352  0
C  C106  1  0.42646509  0.16005515  0.39763585  1  0  -0.072279  0  3.795117  0  0  -0.050672  0  4.029991  0  0  -0.059449  0  4.054528  0  -0.034746  0  -0.021046  -0.044999  0  4.013497  0
C  C107  1  0.57353500  0.83994459  0.60236391  1  0  -0.072305  0  3.795082  0  0  -0.050659  0  4.029922  0  0  -0.059435  0  4.054459  0  -0.034728  0  -0.021055  -0.044986  0  4.013429  0
C  C108  1  0.54259665  0.20972866  0.48814686  1  0  -0.080683  0  3.777392  0  0  -0.106676  0  4.030033  0  0  -0.108185  0  4.052524  0  -0.046572  0  -0.089552  -0.105502  0  4.014793  0
C  C109  1  0.45740345  0.79027108  0.51185452  1  0  -0.080623  0  3.777447  0  0  -0.106639  0  4.030087  0  0  -0.108147  0  4.052579  0  -0.046539  0  -0.08953  -0.105465  0  4.014848  0
C  C110  1  0.60841339  0.14402538  0.55958235  1  0  -0.104735  0  3.73993  0  0  -0.126141  0  3.994139  0  0  -0.129129  0  4.016372  0  -0.02313  0  -0.085828  -0.124221  0  3.979222  0
C  C111  1  0.39158478  0.85597435  0.44041937  1  0  -0.104792  0  3.740003  0  0  -0.126218  0  3.994217  0  0  -0.129207  0  4.016449  0  -0.023182  0  -0.085863  -0.124299  0  3.979301  0
C  C112  1  0.37553473  0.04461753  0.38224297  1  0  -0.091836  0  3.665372  0  0  -0.126869  0  3.917401  0  0  -0.12571  0  3.936337  0  -0.049396  0  -0.074947  -0.12751  0  3.904666  0
C  C113  1  0.62446440  0.95538221  0.61775736  1  0  -0.091838  0  3.66539  0  0  -0.126872  0  3.917418  0  0  -0.125714  0  3.936353  0  -0.049306  0  -0.074941  -0.127513  0  3.904683  0
C  C114  1  0.55975598  0.02514050  0.54496058  1  0  0.059203  0  3.774863  0  0  0.077377  0  3.999852  0  0  0.077163  0  4.022621  0  0.009088  0  -0.003202  0.077524  0  3.98435  0
C  C115  1  0.44024153  0.97485670  0.45504079  1  0  0.059141  0  3.77491  0  0  0.077342  0  3.999883  0  0  0.077127  0  4.022653  0  -0.045129  0  -0.003205  0.077489  0  3.984382  0
N  N116  1  0.32240572  0.92566986  0.08310459  1  0  -0.436665  0  3.241553  0  0  -0.383597  0  3.511729  0  0  -0.39974  0  3.529377  0  -1.251045  0  -0.38461  -0.372161  0  3.499354  0
N  N117  1  0.67759460  0.07433072  0.91689529  1  0  -0.436592  0  3.241558  0  0  -0.383552  0  3.511704  0  0  -0.399694  0  3.529352  0  -1.251082  0  -0.384602  -0.372117  0  3.499328  0
N  N118  1  0.24774532  0.70761877  0.12125560  1  0  -0.449857  0  3.246219  0  0  -0.397178  0  3.515134  0  0  -0.413406  0  3.532887  0  -1.258715  0  -0.388732  -0.385697  0  3.502718  0
N  N119  1  0.75225337  0.29237928  0.87874450  1  0  -0.449974  0  3.24622  0  0  -0.397299  0  3.515149  0  0  -0.41353  0  3.532904  0  -1.258629  0  -0.38879  -0.38582  0  3.502735  0
O  O120  1  0.19857665  0.75074164  0.86273572  1  0  -0.686791  0  1.976119  0  0  -0.643102  0  2.223268  0  0  -0.667625  0  2.215954  0  -1.183998  0  -0.373218  -0.625692  0  2.227627  0
O  O121  1  0.80142516  0.24925725  0.13726359  1  0  -0.686773  0  1.976132  0  0  -0.643094  0  2.223303  0  0  -0.667617  0  2.215986  0  -1.183958  0  -0.373205  -0.625685  0  2.227661  0
O  O122  1  0.99648129  0.65414144  0.85068735  1  0  -0.698619  0  1.959395  0  0  -0.649344  0  2.197785  0  0  -0.674537  0  2.190123  0  -1.184983  0  -0.397282  -0.631473  0  2.202485  0
O  O123  1  0.00351924  0.34585998  0.14931264  1  0  -0.698646  0  1.959455  0  0  -0.649369  0  2.197844  0  0  -0.674565  0  2.190188  0  -1.184982  0  -0.397289  -0.631499  0  2.202542  0
O  O124  1  0.96420872  0.68589849  0.09179381  1  0  -0.689516  0  2.010732  0  0  -0.638101  0  2.250843  0  0  -0.663412  0  2.242063  0  -1.175809  0  -0.378122  -0.619892  0  2.256218  0
O  O125  1  0.03579159  0.31410209  0.90820606  1  0  -0.689533  0  2.010708  0  0  -0.63812  0  2.250822  0  0  -0.663432  0  2.24204  0  -1.175808  0  -0.378134  -0.619908  0  2.256185  0
O  O126  1  0.84506434  0.77125706  0.96122981  1  0  -0.706725  0  2.040933  0  0  -0.646563  0  2.277635  0  0  -0.672504  0  2.267668  0  -1.194523  0  -0.364618  -0.628188  0  2.283907  0
O  O127  1  0.15493501  0.22874351  0.03876983  1  0  -0.706712  0  2.040925  0  0  -0.646552  0  2.277622  0  0  -0.672493  0  2.267659  0  -1.194496  0  -0.364612  -0.628178  0  2.283893  0
O  O128  1  0.07198423  0.93645691  0.13338192  1  0  -0.74914  0  2.098546  0  0  -0.697269  0  2.371346  0  0  -0.723296  0  2.357623  0  -1.202926  0  -0.41821  -0.678357  0  2.380239  0
O  O129  1  0.92801490  0.06354282  0.86661760  1  0  -0.749121  0  2.098481  0  0  -0.697242  0  2.371296  0  0  -0.723267  0  2.357582  0  -1.202918  0  -0.418199  -0.678332  0  2.380189  0
O  O130  1  0.94873578  0.06682617  0.12922776  1  0  -0.743118  0  2.038785  0  0  -0.688846  0  2.303618  0  0  -0.71508  0  2.290699  0  -1.209236  0  -0.417226  -0.66999  0  2.312153  0
O  O131  1  0.05126432  0.93317356  0.87077281  1  0  -0.743098  0  2.038734  0  0  -0.688822  0  2.303586  0  0  -0.715052  0  2.290672  0  -1.209231  0  -0.417247  -0.669962  0  2.312122  0
O  O132  1  0.25106165  0.17993435  0.24200766  1  0  -0.552251  0  2.131493  0  0  -0.500543  0  2.354886  0  0  -0.522991  0  2.341448  0  -1.176066  0  -0.325716  -0.484845  0  2.363652  0
O  O133  1  0.74893985  0.82006707  0.75799175  1  0  -0.552261  0  2.131445  0  0  -0.500534  0  2.354851  0  0  -0.522978  0  2.341401  0  -1.176074  0  -0.325677  -0.484834  0  2.363616  0
O  O134  1  0.42454936  0.33057797  0.31184793  1  0  -0.564038  0  1.895234  0  0  -0.524043  0  2.101682  0  0  -0.543953  0  2.093248  0  -1.167545  0  -0.302139  -0.510344  0  2.107113  0
O  O135  1  0.57544999  0.66942261  0.68815252  1  0  -0.564042  0  1.895263  0  0  -0.52404  0  2.101731  0  0  -0.54395  0  2.093297  0  -1.167549  0  -0.302145  -0.510342  0  2.107162  0
