# generated using pymatgen
data_AgH22C24SN5O3
_symmetry_space_group_name_H-M   'P 1'
_cell_length_a   8.13324458
_cell_length_b   11.45437757
_cell_length_c   13.07236807
_cell_angle_alpha   76.41870558
_cell_angle_beta   82.51531273
_cell_angle_gamma   71.44730884
_symmetry_Int_Tables_number   1
_chemical_formula_structural   AgH22C24SN5O3
_chemical_formula_sum   'Ag2 H44 C48 S2 N10 O6'
_cell_volume   1120.22455337
_cell_formula_units_Z   2
loop_
 _symmetry_equiv_pos_site_id
 _symmetry_equiv_pos_as_xyz
  1  'x, y, z'
loop_
 _atom_site_type_symbol
 _atom_site_label
 _atom_site_symmetry_multiplicity
 _atom_site_fract_x
 _atom_site_fract_y
 _atom_site_fract_z
 _atom_site_occupancy
 _atom_site_hle17_bader_spin_density
 _atom_site_hle17_ddec_charge
 _atom_site_hle17_ddec_spin_density
 _atom_site_hle17_ddec_sum_bond_order
 _atom_site_hle17_magmom
 _atom_site_hse06_10hf_bader_spin_density
 _atom_site_hse06_10hf_ddec_charge
 _atom_site_hse06_10hf_ddec_spin_density
 _atom_site_hse06_10hf_ddec_sum_bond_order
 _atom_site_hse06_10hf_magmom
 _atom_site_hse06_bader_spin_density
 _atom_site_hse06_ddec_charge
 _atom_site_hse06_ddec_spin_density
 _atom_site_hse06_ddec_sum_bond_order
 _atom_site_hse06_magmom
 _atom_site_pbe_bader_spin_density
 _atom_site_pbe_cm5_charge
 _atom_site_pbe_ddec_charge
 _atom_site_pbe_ddec_spin_density
 _atom_site_pbe_ddec_sum_bond_order
 _atom_site_pbe_magmom
Ag  Ag0  1  0.75817907  0.07362835  0.45636724  1  0  0.559323  0  1.375711  0  0  0.415612  0  1.802786  0  0  0.441682  0  1.760677  0  0  0.475808  0.39879  0  1.83125  0
Ag  Ag1  1  0.24182131  0.92637129  0.54363381  1  0  0.559265  0  1.375751  0  0  0.415556  0  1.802846  0  0  0.441627  0  1.760737  0  0  0.475789  0.398748  0  1.831267  0
H  H2  1  0.48910395  0.12098134  0.89002657  1  0  0.092246  0  1.002344  0  0  0.101945  0  1.068376  0  0  0.105086  0  1.067436  0  0  0.097744  0.099704  0  1.069118  0
H  H3  1  0.51089690  0.87902019  0.10997329  1  0  0.092275  0  1.002409  0  0  0.101978  0  1.068423  0  0  0.105138  0  1.067462  0  0  0.097756  0.099736  0  1.069163  0
H  H4  1  0.66834797  0.26134231  0.84775141  1  0  0.113345  0  0.965949  0  0  0.122719  0  1.028679  0  0  0.126072  0  1.025611  0  0  0.106561  0.120241  0  1.030965  0
H  H5  1  0.33165165  0.73865920  0.15225085  1  0  0.113305  0  0.965991  0  0  0.122712  0  1.028683  0  0  0.126066  0  1.025615  0  0  0.106548  0.120233  0  1.030966  0
H  H6  1  0.23105822  0.57013550  0.91370779  1  0  0.096288  0  0.974855  0  0  0.101649  0  1.04899  0  0  0.104809  0  1.045976  0  0  0.10335  0.099301  0  1.051222  0
H  H7  1  0.76894006  0.42986320  0.08629438  1  0  0.096258  0  0.974801  0  0  0.101605  0  1.048968  0  0  0.104763  0  1.045958  0  0  0.103345  0.099261  0  1.051201  0
H  H8  1  0.04287785  0.43177061  0.95083875  1  0  0.093075  0  0.993863  0  0  0.10626  0  1.053942  0  0  0.108536  0  1.054485  0  0  0.100305  0.104676  0  1.0536  0
H  H9  1  0.95711842  0.56822998  0.04916244  1  0  0.093069  0  0.993958  0  0  0.10626  0  1.054022  0  0  0.108535  0  1.054569  0  0  0.10028  0.104672  0  1.053684  0
H  H10  1  0.85701519  0.54823036  0.82093810  1  0  0.093674  0  0.976188  0  0  0.097182  0  1.050542  0  0  0.101635  0  1.046603  0  0  0.098443  0.093947  0  1.05348  0
H  H11  1  0.14298269  0.45176930  0.17906162  1  0  0.093651  0  0.97637  0  0  0.097162  0  1.050709  0  0  0.101614  0  1.046774  0  0  0.098412  0.093929  0  1.053656  0
H  H12  1  0.03209719  0.69980138  0.78143650  1  0  0.094461  0  0.972976  0  0  0.103264  0  1.039995  0  0  0.106137  0  1.038522  0  0  0.101311  0.101138  0  1.041172  0
H  H13  1  0.96789962  0.30020395  0.21855911  1  0  0.094363  0  0.973125  0  0  0.103183  0  1.040111  0  0  0.106067  0  1.038625  0  0  0.101256  0.101051  0  1.041298  0
H  H14  1  0.56296279  0.00905596  0.77617077  1  0  0.09066  0  0.970621  0  0  0.099707  0  1.036294  0  0  0.103168  0  1.033879  0  0  0.101025  0.097188  0  1.03815  0
H  H15  1  0.43702820  0.99094843  0.22382779  1  0  0.090587  0  0.970756  0  0  0.099634  0  1.036425  0  0  0.103091  0  1.034016  0  0  0.100992  0.097118  0  1.038281  0
H  H16  1  0.38607919  0.85584155  0.81560260  1  0  0.124018  0  0.967546  0  0  0.132118  0  1.031584  0  0  0.136225  0  1.02855  0  0  0.10786  0.1291  0  1.033943  0
H  H17  1  0.61391175  0.14415995  0.18440344  1  0  0.124023  0  0.96758  0  0  0.132103  0  1.031638  0  0  0.136207  0  1.02861  0  0  0.107882  0.129086  0  1.034001  0
H  H18  1  0.64382087  0.86134180  0.60957040  1  0  0.06854  0  0.992709  0  0  0.07625  0  1.062851  0  0  0.077229  0  1.062543  0  0  0.107661  0.075394  0  1.063353  0
H  H19  1  0.35618427  0.13865224  0.39042679  1  0  0.068501  0  0.992712  0  0  0.07619  0  1.062875  0  0  0.077169  0  1.062565  0  0  0.107633  0.075333  0  1.063378  0
H  H20  1  0.65631390  0.64057166  0.62160621  1  0  0.105425  0  0.969142  0  0  0.114887  0  1.03213  0  0  0.116445  0  1.033492  0  0  0.107103  0.113747  0  1.031337  0
H  H21  1  0.34370082  0.35942324  0.37839614  1  0  0.105374  0  0.96909  0  0  0.114841  0  1.032087  0  0  0.116399  0  1.033448  0  0  0.10707  0.113668  0  1.031324  0
H  H22  1  0.82084312  0.68692371  0.28998569  1  0  0.107233  0  0.963738  0  0  0.117222  0  1.023982  0  0  0.120092  0  1.02392  0  0  0.107334  0.11511  0  1.024226  0
H  H23  1  0.17915763  0.31307500  0.71001474  1  0  0.107265  0  0.96368  0  0  0.117241  0  1.023934  0  0  0.120117  0  1.023875  0  0  0.107348  0.115129  0  1.024186  0
H  H24  1  0.80487073  0.90602930  0.29242896  1  0  0.086889  0  0.956532  0  0  0.094867  0  1.022142  0  0  0.097495  0  1.019728  0  0  0.117924  0.092866  0  1.023988  0
H  H25  1  0.19512392  0.09397224  0.70757217  1  0  0.086937  0  0.956491  0  0  0.094857  0  1.022172  0  0  0.097486  0  1.019758  0  0  0.117911  0.092854  0  1.024017  0
H  H26  1  0.67629898  0.33123598  0.30373963  1  0  0.081833  0  0.964482  0  0  0.085224  0  1.039773  0  0  0.08781  0  1.036518  0  0  0.114939  0.083119  0  1.042415  0
H  H27  1  0.32370797  0.66876274  0.69625724  1  0  0.081853  0  0.964511  0  0  0.085274  0  1.039753  0  0  0.087832  0  1.036526  0  0  0.114952  0.08317  0  1.042395  0
H  H28  1  0.67670238  0.54888002  0.29562560  1  0  0.100601  0  0.999512  0  0  0.110248  0  1.06316  0  0  0.111529  0  1.066127  0  0  0.103762  0.109274  0  1.061271  0
H  H29  1  0.32331279  0.45111679  0.70437250  1  0  0.100652  0  0.999509  0  0  0.110314  0  1.063127  0  0  0.111592  0  1.0661  0  0  0.103842  0.109344  0  1.061238  0
H  H30  1  0.79786699  0.43643358  0.62384236  1  0  0.109217  0  0.940769  0  0  0.121749  0  0.99791  0  0  0.124979  0  0.996379  0  0  0.110239  0.119354  0  0.999253  0
H  H31  1  0.20214112  0.56356231  0.37615574  1  0  0.109221  0  0.94075  0  0  0.121704  0  0.997956  0  0  0.124933  0  0.996429  0  0  0.110241  0.119316  0  0.999291  0
H  H32  1  0.79072113  0.22305168  0.61933797  1  0  0.095749  0  0.964058  0  0  0.101461  0  1.030586  0  0  0.104455  0  1.027626  0  0  0.116135  0.099176  0  1.032828  0
H  H33  1  0.20928372  0.77694610  0.38066079  1  0  0.09575  0  0.964094  0  0  0.101453  0  1.030607  0  0  0.104447  0  1.027649  0  0  0.11613  0.099171  0  1.032847  0
H  H34  1  0.89262498  0.17400323  0.94475417  1  0  0.108307  0  0.956918  0  0  0.131179  0  1.014436  0  0  0.131668  0  1.014945  0  0  0.109147  0.130692  0  1.014242  0
H  H35  1  0.10737539  0.82599641  0.05524687  1  0  0.108272  0  0.956895  0  0  0.131138  0  1.014429  0  0  0.131627  0  1.014939  0  0  0.109129  0.130653  0  1.014235  0
H  H36  1  0.89694476  0.33163227  0.91432333  1  0  0.089652  0  0.965856  0  0  0.103186  0  1.043235  0  0  0.103784  0  1.041634  0  0  0.097379  0.102597  0  1.044546  0
H  H37  1  0.10305398  0.66836833  0.08567612  1  0  0.089657  0  0.965841  0  0  0.103191  0  1.043219  0  0  0.10379  0  1.041621  0  0  0.097395  0.102607  0  1.044524  0
H  H38  1  0.92914318  0.24077959  0.04615667  1  0  0.100657  0  0.954847  0  0  0.119739  0  1.022185  0  0  0.119074  0  1.023166  0  0  0.097585  0.12013  0  1.021548  0
H  H39  1  0.07085480  0.75922288  0.95384323  1  0  0.100659  0  0.954814  0  0  0.119731  0  1.022164  0  0  0.119067  0  1.023143  0  0  0.097603  0.120122  0  1.021529  0
H  H40  1  0.11010260  0.01958630  0.92639337  1  0  0.110816  0  0.958669  0  0  0.129196  0  1.023223  0  0  0.130067  0  1.023107  0  0  0.108377  0.128436  0  1.02346  0
H  H41  1  0.88989328  0.98041524  0.07360689  1  0  0.110852  0  0.958687  0  0  0.129234  0  1.023232  0  0  0.130106  0  1.023115  0  0  0.108383  0.128477  0  1.023471  0
H  H42  1  0.26210632  0.00687134  0.01893913  1  0  0.09939  0  0.948608  0  0  0.118901  0  1.014731  0  0  0.118254  0  1.016149  0  0  0.09811  0.119274  0  1.013794  0
H  H43  1  0.73789691  0.99312738  0.98105880  1  0  0.099408  0  0.948636  0  0  0.118923  0  1.014745  0  0  0.118277  0  1.016161  0  0  0.098116  0.1193  0  1.013807  0
H  H44  1  0.31722038  0.03470827  0.88062286  1  0  0.085133  0  0.983946  0  0  0.106604  0  1.050229  0  0  0.105556  0  1.05185  0  0  0.100172  0.107304  0  1.049115  0
H  H45  1  0.68277510  0.96529424  0.11937342  1  0  0.085146  0  0.983935  0  0  0.106609  0  1.050222  0  0  0.105559  0  1.051846  0  0  0.100166  0.107313  0  1.049104  0
C  C46  1  0.24693497  0.26534783  0.91908107  1  0  0.211392  0  3.79372  0  0  0.196349  0  4.037492  0  0  0.21099  0  4.058076  0  0  0.110848  0.186675  0  4.023255  0
C  C47  1  0.75306465  0.73465368  0.08092119  1  0  0.211452  0  3.793615  0  0  0.196374  0  4.037422  0  0  0.211016  0  4.058007  0  0  0.110839  0.186708  0  4.023178  0
C  C48  1  0.42836753  0.21933805  0.89338287  1  0  -0.188299  0  3.752836  0  0  -0.207095  0  4.010817  0  0  -0.216964  0  4.032709  0  0  -0.111236  -0.200535  0  3.996004  0
C  C49  1  0.57162960  0.78066348  0.10661882  1  0  -0.188315  0  3.752953  0  0  -0.207105  0  4.010933  0  0  -0.216989  0  4.032817  0  0  -0.11122  -0.200551  0  3.996119  0
C  C50  1  0.53162068  0.29844823  0.87139663  1  0  -0.094451  0  3.732745  0  0  -0.117309  0  3.981602  0  0  -0.113363  0  4.000513  0  0  -0.082681  -0.119555  0  3.968599  0
C  C51  1  0.46838056  0.70155234  0.12860492  1  0  -0.094442  0  3.732765  0  0  -0.117329  0  3.981628  0  0  -0.113382  0  4.000539  0  0  -0.082661  -0.119578  0  3.968622  0
C  C52  1  0.46232851  0.42662456  0.87633054  1  0  0.123641  0  3.860017  0  0  0.12723  0  4.115816  0  0  0.119759  0  4.142718  0  0  0.068656  0.131858  0  4.097709  0
C  C53  1  0.53766939  0.57337507  0.12367224  1  0  0.123707  0  3.85991  0  0  0.127276  0  4.115747  0  0  0.119804  0  4.14265  0  0  0.068632  0.131913  0  4.097636  0
C  C54  1  0.28360577  0.47221102  0.90628404  1  0  -0.099342  0  3.743162  0  0  -0.122252  0  3.993641  0  0  -0.119551  0  4.014964  0  0  -0.086655  -0.123631  0  3.979083  0
C  C55  1  0.71639299  0.52778955  0.09371848  1  0  -0.099347  0  3.743304  0  0  -0.122233  0  3.993767  0  0  -0.119544  0  4.01512  0  0  -0.086647  -0.1236  0  3.979166  0
C  C56  1  0.17898147  0.39462488  0.92648131  1  0  -0.1824  0  3.754349  0  0  -0.195507  0  4.003464  0  0  -0.205955  0  4.027088  0  0  -0.105076  -0.188584  0  3.987378  0
C  C57  1  0.82101558  0.60537382  0.07352172  1  0  -0.182429  0  3.754469  0  0  -0.19552  0  4.003569  0  0  -0.205971  0  4.027189  0  0  -0.105061  -0.188596  0  3.98749  0
C  C58  1  0.61108667  0.69374007  0.82198861  1  0  0.171407  0  3.821155  0  0  0.177354  0  4.06536  0  0  0.179446  0  4.088333  0  0  0.086567  0.175894  0  4.049813  0
C  C59  1  0.38891410  0.30625862  0.17801413  1  0  0.171318  0  3.821393  0  0  0.177431  0  4.065388  0  0  0.179526  0  4.088354  0  0  0.086545  0.175979  0  4.049837  0
C  C60  1  0.79385692  0.64906501  0.81162762  1  0  -0.135791  0  3.730299  0  0  -0.152902  0  3.977953  0  0  -0.155843  0  3.997284  0  0  -0.090601  -0.150827  0  3.964779  0
C  C61  1  0.20613667  0.35094217  0.18837247  1  0  -0.135719  0  3.73036  0  0  -0.152883  0  3.977977  0  0  -0.155825  0  3.99731  0  0  -0.090535  -0.150815  0  3.964806  0
C  C62  1  0.89084667  0.73303311  0.78989465  1  0  -0.060178  0  3.76378  0  0  -0.082866  0  4.008057  0  0  -0.082474  0  4.028054  0  0  -0.088538  -0.08292  0  3.994486  0
C  C63  1  0.10914673  0.26696843  0.21010582  1  0  -0.060162  0  3.763933  0  0  -0.082856  0  4.008214  0  0  -0.082474  0  4.028205  0  0  -0.088527  -0.082914  0  3.994636  0
C  C64  1  0.80700915  0.86242606  0.77862467  1  0  -0.11644  0  3.734905  0  0  -0.089977  0  3.977339  0  0  -0.095243  0  3.99703  0  0  -0.022902  -0.086742  0  3.964327  0
C  C65  1  0.19298021  0.13757928  0.22137154  1  0  -0.116327  0  3.734934  0  0  -0.089866  0  3.977366  0  0  -0.095131  0  3.997062  0  0  -0.022882  -0.086612  0  3.964325  0
C  C66  1  0.62558989  0.90782002  0.78798859  1  0  -0.076917  0  3.777922  0  0  -0.100141  0  4.028112  0  0  -0.099042  0  4.045436  0  0  -0.093158  -0.100798  0  4.016566  0
C  C67  1  0.37440426  0.09217966  0.21200990  1  0  -0.076859  0  3.777778  0  0  -0.100074  0  4.027963  0  0  -0.098979  0  4.045292  0  0  -0.093109  -0.100738  0  4.016417  0
C  C68  1  0.52779782  0.82393024  0.80962069  1  0  -0.132733  0  3.683268  0  0  -0.150854  0  3.930011  0  0  -0.153676  0  3.947889  0  0  -0.083218  -0.149022  0  3.918108  0
C  C69  1  0.47219692  0.17607410  0.19038141  1  0  -0.13272  0  3.683285  0  0  -0.150874  0  3.929996  0  0  -0.1537  0  3.947882  0  0  -0.083239  -0.14905  0  3.918104  0
C  C70  1  0.68274356  0.81951102  0.54032483  1  0  0.110954  0  3.734281  0  0  0.080415  0  3.98896  0  0  0.088394  0  4.005489  0  0  0.039883  0.074908  0  3.978193  0
C  C71  1  0.31726131  0.18048672  0.45967699  1  0  0.111053  0  3.734421  0  0  0.080551  0  3.98911  0  0  0.088532  0  4.005635  0  0  0.039944  0.07504  0  3.978331  0
C  C72  1  0.69164293  0.69475788  0.54661473  1  0  -0.154453  0  3.717704  0  0  -0.174445  0  3.965234  0  0  -0.181969  0  3.987223  0  0  -0.082255  -0.169562  0  3.950649  0
C  C73  1  0.30836825  0.30523047  0.45338617  1  0  -0.154481  0  3.717956  0  0  -0.1745  0  3.965472  0  0  -0.182001  0  3.987461  0  0  -0.082276  -0.169594  0  3.950905  0
C  C74  1  0.73866641  0.64283811  0.45637393  1  0  0.094483  0  3.755999  0  0  0.106882  0  3.983116  0  0  0.111366  0  4.003463  0  0  0.010422  0.103937  0  3.969274  0
C  C75  1  0.26134055  0.35716058  0.54362600  1  0  0.094437  0  3.755971  0  0  0.106862  0  3.98304  0  0  0.111291  0  4.003471  0  0  0.010415  0.103915  0  3.969185  0
C  C76  1  0.78020079  0.72103506  0.36308534  1  0  -0.151977  0  3.69048  0  0  -0.168197  0  3.932417  0  0  -0.175168  0  3.952929  0  0  -0.08016  -0.163752  0  3.918849  0
C  C77  1  0.21979989  0.27896082  0.63691720  1  0  -0.151935  0  3.690507  0  0  -0.168144  0  3.932396  0  0  -0.175105  0  3.952931  0  0  -0.080146  -0.163707  0  3.91884  0
C  C78  1  0.77089841  0.84426089  0.36343082  1  0  0.125806  0  3.690575  0  0  0.096583  0  3.935659  0  0  0.103026  0  3.954421  0  0  0.044522  0.092255  0  3.923273  0
C  C79  1  0.22909948  0.15573875  0.63657042  1  0  0.125742  0  3.690529  0  0  0.096569  0  3.935609  0  0  0.103011  0  3.954373  0  0  0.044493  0.09224  0  3.923224  0
C  C80  1  0.70359322  0.35785434  0.37323630  1  0  0.116507  0  3.701867  0  0  0.088228  0  3.948989  0  0  0.094191  0  3.968826  0  0  0.04147  0.084307  0  3.9358  0
C  C81  1  0.29641250  0.64214436  0.62676297  1  0  0.116406  0  3.701817  0  0  0.088103  0  3.948985  0  0  0.094089  0  3.968833  0  0  0.041435  0.084179  0  3.935806  0
C  C82  1  0.70581144  0.47975082  0.36887796  1  0  -0.156791  0  3.701588  0  0  -0.172743  0  3.940008  0  0  -0.180724  0  3.963834  0  0  -0.083859  -0.167564  0  3.924082  0
C  C83  1  0.29419667  0.52024507  0.63112014  1  0  -0.156769  0  3.70147  0  0  -0.172749  0  3.939919  0  0  -0.180723  0  3.963727  0  0  -0.083912  -0.167577  0  3.923997  0
C  C84  1  0.73976798  0.51287016  0.45891562  1  0  0.091091  0  3.758102  0  0  0.103241  0  3.98638  0  0  0.107305  0  4.007088  0  0  0.009713  0.100609  0  3.97225  0
C  C85  1  0.26024012  0.48712573  0.54108325  1  0  0.090949  0  3.758207  0  0  0.103125  0  3.98644  0  0  0.107206  0  4.007155  0  0  0.009671  0.100507  0  3.972303  0
C  C86  1  0.77026307  0.41824762  0.55067216  1  0  -0.152476  0  3.695076  0  0  -0.170475  0  3.939863  0  0  -0.177947  0  3.961526  0  0  -0.080652  -0.165612  0  3.925365  0
C  C87  1  0.22974628  0.58174825  0.44932815  1  0  -0.152315  0  3.695042  0  0  -0.170296  0  3.939794  0  0  -0.177767  0  3.961454  0  0  -0.0806  -0.16544  0  3.925296  0
C  C88  1  0.76604299  0.29809126  0.54912646  1  0  0.128832  0  3.672691  0  0  0.100672  0  3.914097  0  0  0.107608  0  3.932374  0  0  0.045839  0.096085  0  3.90186  0
C  C89  1  0.23395984  0.70190842  0.45086902  1  0  0.128715  0  3.672624  0  0  0.100618  0  3.91395  0  0  0.107554  0  3.932229  0  0  0.045844  0.096023  0  3.901726  0
C  C90  1  0.95575845  0.23795311  0.96183819  1  0  -0.176462  0  3.646045  0  0  -0.276551  0  3.888454  0  0  -0.272085  0  3.900548  0  0  -0.1384  -0.279274  0  3.88009  0
C  C91  1  0.04424029  0.76204748  0.03816203  1  0  -0.1764  0  3.645972  0  0  -0.276475  0  3.888376  0  0  -0.272012  0  3.900471  0  0  -0.138393  -0.279202  0  3.880014  0
C  C92  1  0.21199592  0.05599988  0.94104234  1  0  -0.17603  0  3.65447  0  0  -0.276832  0  3.897078  0  0  -0.272386  0  3.909421  0  0  -0.138608  -0.279559  0  3.888473  0
C  C93  1  0.78800283  0.94400072  0.05895711  1  0  -0.176086  0  3.654591  0  0  -0.276891  0  3.897168  0  0  -0.272445  0  3.909512  0  0  -0.138604  -0.279623  0  3.888566  0
S  S94  1  0.93182356  0.96978221  0.74198442  1  0  1.273807  0  5.714041  0  0  1.181683  0  6.224783  0  0  1.229654  0  6.201428  0  0  0.490635  1.148696  0  6.239514  0
S  S95  1  0.06817631  0.03021562  0.25801014  1  0  1.273703  0  5.714152  0  0  1.181568  0  6.224925  0  0  1.229537  0  6.201572  0  0  0.49055  1.148576  0  6.239651  0
N  N96  1  0.57446074  0.50005386  0.85061581  1  0  -0.173002  0  3.052195  0  0  -0.151668  0  3.342724  0  0  -0.14485  0  3.348093  0  0  -0.169572  -0.155745  0  3.338845  0
N  N97  1  0.42553840  0.49994577  0.14938764  1  0  -0.173066  0  3.052244  0  0  -0.151724  0  3.342794  0  0  -0.144907  0  3.348164  0  0  -0.169587  -0.1558  0  3.338913  0
N  N98  1  0.49970536  0.61822968  0.84406086  1  0  -0.20432  0  3.033849  0  0  -0.178629  0  3.321868  0  0  -0.180093  0  3.328124  0  0  -0.179356  -0.177405  0  3.317457  0
N  N99  1  0.50029217  0.38177088  0.15594329  1  0  -0.204252  0  3.034019  0  0  -0.178606  0  3.321974  0  0  -0.180072  0  3.328235  0  0  -0.17935  -0.177387  0  3.317563  0
N  N100  1  0.14091821  0.19089421  0.93427969  1  0  -0.087439  0  3.449263  0  0  0.020037  0  3.669578  0  0  -0.003671  0  3.699589  0  0  -0.280317  0.036265  0  3.648371  0
N  N101  1  0.85908054  0.80910638  0.06572130  1  0  -0.087472  0  3.449322  0  0  0.020015  0  3.669641  0  0  -0.003694  0  3.699654  0  0  -0.28033  0.036236  0  3.648442  0
N  N102  1  0.72126757  0.89437060  0.45032638  1  0  -0.295142  0  3.316104  0  0  -0.210911  0  3.595742  0  0  -0.228715  0  3.610275  0  0  -0.340449  -0.199101  0  3.585985  0
N  N103  1  0.27873394  0.10562624  0.54967283  1  0  -0.295129  0  3.315862  0  0  -0.210931  0  3.595514  0  0  -0.228735  0  3.610045  0  0  -0.340441  -0.199119  0  3.585754  0
N  N104  1  0.73266596  0.26756167  0.46195928  1  0  -0.293942  0  3.314697  0  0  -0.206991  0  3.58956  0  0  -0.224981  0  3.60548  0  0  -0.339569  -0.195006  0  3.578674  0
N  N105  1  0.26733727  0.73243705  0.53803942  1  0  -0.293799  0  3.314545  0  0  -0.206878  0  3.589414  0  0  -0.224866  0  3.605326  0  0  -0.339541  -0.194887  0  3.578529  0
O  O106  1  0.93213535  0.00357929  0.62511179  1  0  -0.703262  0  2.066262  0  0  -0.635594  0  2.359223  0  0  -0.65962  0  2.340249  0  0  -0.36288  -0.618416  0  2.371427  0
O  O107  1  0.06786414  0.99641947  0.37488338  1  0  -0.703243  0  2.066168  0  0  -0.635563  0  2.359124  0  0  -0.659587  0  2.340141  0  0  -0.362821  -0.618385  0  2.37133  0
O  O108  1  0.84159698  0.07800588  0.79073347  1  0  -0.665148  0  1.929138  0  0  -0.616979  0  2.174335  0  0  -0.637581  0  2.161  0  0  -0.349285  -0.602241  0  2.182844  0
O  O109  1  0.15839331  0.92200325  0.20925885  1  0  -0.665092  0  1.929606  0  0  -0.616927  0  2.174823  0  0  -0.63752  0  2.161474  0  0  -0.349239  -0.60219  0  2.183333  0
O  O110  1  0.10661092  0.90014594  0.77809749  1  0  -0.677467  0  1.960848  0  0  -0.630942  0  2.223357  0  0  -0.651632  0  2.207934  0  0  -0.347403  -0.616213  0  2.233403  0
O  O111  1  0.89337721  0.09985938  0.22190265  1  0  -0.677453  0  1.960518  0  0  -0.630945  0  2.223042  0  0  -0.651636  0  2.207617  0  0  -0.347424  -0.616226  0  2.23311  0
