# generated using pymatgen
data_LaH10C8NO10
_symmetry_space_group_name_H-M   'P 1'
_cell_length_a   6.35908843
_cell_length_b   9.82933006
_cell_length_c   10.29621325
_cell_angle_alpha   73.46129524
_cell_angle_beta   88.25096175
_cell_angle_gamma   88.05219713
_symmetry_Int_Tables_number   1
_chemical_formula_structural   LaH10C8NO10
_chemical_formula_sum   'La2 H20 C16 N2 O20'
_cell_volume   616.44229835
_cell_formula_units_Z   2
loop_
 _symmetry_equiv_pos_site_id
 _symmetry_equiv_pos_as_xyz
  1  'x, y, z'
loop_
 _atom_site_type_symbol
 _atom_site_label
 _atom_site_symmetry_multiplicity
 _atom_site_fract_x
 _atom_site_fract_y
 _atom_site_fract_z
 _atom_site_occupancy
 _atom_site_hle17_bader_spin_density
 _atom_site_hle17_ddec_charge
 _atom_site_hle17_ddec_spin_density
 _atom_site_hle17_ddec_sum_bond_order
 _atom_site_hle17_magmom
 _atom_site_hse06_10hf_bader_spin_density
 _atom_site_hse06_10hf_ddec_charge
 _atom_site_hse06_10hf_ddec_spin_density
 _atom_site_hse06_10hf_ddec_sum_bond_order
 _atom_site_hse06_10hf_magmom
 _atom_site_hse06_bader_spin_density
 _atom_site_hse06_ddec_charge
 _atom_site_hse06_ddec_spin_density
 _atom_site_hse06_ddec_sum_bond_order
 _atom_site_hse06_magmom
 _atom_site_pbe_bader_spin_density
 _atom_site_pbe_cm5_charge
 _atom_site_pbe_ddec_charge
 _atom_site_pbe_ddec_spin_density
 _atom_site_pbe_ddec_sum_bond_order
 _atom_site_pbe_magmom
La  La0  1  0.74015730  0.06189015  0.72326916  1  0  2.115471  0  1.720779  0  0  1.980292  0  2.223081  0  0  2.075675  0  2.129689  0  0  1.375077  1.907402  0  2.290943  0
La  La1  1  0.25983543  0.93810598  0.27672855  1  0  2.115448  0  1.720619  0  0  1.98025  0  2.222946  0  0  2.075611  0  2.129599  0  0  1.375035  1.907356  0  2.290819  0
H  H2  1  0.05377358  0.16307966  0.92308078  1  0  0.435994  0  0.85239  0  0  0.409337  0  0.908299  0  0  0.420646  0  0.891776  0  0  0.304306  0.400929  0  0.920603  0
H  H3  1  0.94622046  0.83692497  0.07691543  1  0  0.436079  0  0.852271  0  0  0.409411  0  0.908202  0  0  0.420721  0  0.891674  0  0  0.304339  0.401003  0  0.920503  0
H  H4  1  0.18974216  0.07833248  0.84119298  1  0  0.424141  0  0.877895  0  0  0.396207  0  0.937619  0  0  0.407533  0  0.921208  0  0  0.301697  0.387986  0  0.94955  0
H  H5  1  0.81025357  0.92167004  0.15880475  1  0  0.424179  0  0.877852  0  0  0.396244  0  0.937575  0  0  0.407567  0  0.921168  0  0  0.301742  0.388019  0  0.949511  0
H  H6  1  0.09703297  0.88261189  0.61065442  1  0  0.431606  0  0.878956  0  0  0.39638  0  0.950167  0  0  0.409545  0  0.931275  0  0  0.296416  0.386732  0  0.964084  0
H  H7  1  0.90296447  0.11738423  0.38934312  1  0  0.431653  0  0.878893  0  0  0.396423  0  0.950112  0  0  0.409589  0  0.931217  0  0  0.29645  0.386774  0  0.964031  0
H  H8  1  0.20319414  0.01989334  0.63049706  1  0  0.418007  0  0.889004  0  0  0.389259  0  0.9543  0  0  0.399974  0  0.939033  0  0  0.305599  0.381382  0  0.965598  0
H  H9  1  0.79679238  0.98010498  0.36950413  1  0  0.417983  0  0.889058  0  0  0.389233  0  0.954325  0  0  0.399944  0  0.939067  0  0  0.305584  0.381356  0  0.965624  0
H  H10  1  0.72895384  0.74710466  0.95471391  1  0  0.428169  0  0.876834  0  0  0.394697  0  0.94436  0  0  0.407157  0  0.926431  0  0  0.29582  0.385736  0  0.957275  0
H  H11  1  0.27104193  0.25289680  0.04528412  1  0  0.428191  0  0.87679  0  0  0.394752  0  0.944267  0  0  0.407213  0  0.926334  0  0  0.295825  0.385786  0  0.957191  0
H  H12  1  0.93810891  0.76466073  0.86384621  1  0  0.440609  0  0.807197  0  0  0.421192  0  0.863212  0  0  0.430615  0  0.852719  0  0  0.328428  0.414175  0  0.871184  0
H  H13  1  0.06188490  0.23534490  0.13614487  1  0  0.440596  0  0.807253  0  0  0.421183  0  0.863254  0  0  0.430602  0  0.852766  0  0  0.328387  0.414167  0  0.871223  0
H  H14  1  0.40115355  0.89624553  0.94788917  1  0  0.430737  0  0.879126  0  0  0.397774  0  0.94494  0  0  0.410337  0  0.927147  0  0  0.301293  0.388628  0  0.957841  0
H  H15  1  0.59884518  0.10376123  0.05210725  1  0  0.430726  0  0.879144  0  0  0.397758  0  0.944967  0  0  0.410319  0  0.927176  0  0  0.301279  0.388608  0  0.957876  0
H  H16  1  0.30957938  0.90310462  0.80029634  1  0  0.428793  0  0.849466  0  0  0.403743  0  0.91439  0  0  0.415082  0  0.898283  0  0  0.314048  0.395452  0  0.924019  0
H  H17  1  0.69041946  0.09689895  0.19970098  1  0  0.428741  0  0.849548  0  0  0.403695  0  0.914464  0  0  0.415035  0  0.898349  0  0  0.314044  0.395407  0  0.924087  0
H  H18  1  0.54167097  0.60685255  0.78999386  1  0  0.139261  0  0.922866  0  0  0.144044  0  0.987228  0  0  0.148636  0  0.983651  0  0  0.123754  0.140793  0  0.989816  0
H  H19  1  0.45832669  0.39314471  0.21000918  1  0  0.139209  0  0.922912  0  0  0.144026  0  0.987269  0  0  0.148619  0  0.983691  0  0  0.123725  0.140777  0  0.989855  0
H  H20  1  0.77848649  0.62976474  0.38479341  1  0  0.133813  0  0.92236  0  0  0.13768  0  0.990147  0  0  0.142308  0  0.986509  0  0  0.121661  0.134046  0  0.993323  0
H  H21  1  0.22153005  0.37023570  0.61521097  1  0  0.133766  0  0.922359  0  0  0.137608  0  0.990194  0  0  0.14221  0  0.986588  0  0  0.121636  0.133973  0  0.993371  0
C  C22  1  0.62956120  0.41148637  0.74521413  1  0  0.117405  0  3.721283  0  0  0.123138  0  3.969887  0  0  0.123237  0  3.988005  0  0  0.128136  0.122755  0  3.957788  0
C  C23  1  0.37044270  0.58850979  0.25478706  1  0  0.117495  0  3.721294  0  0  0.123373  0  3.96977  0  0  0.123474  0  3.987889  0  0  0.128173  0.122994  0  3.957667  0
C  C24  1  0.60612501  0.55870759  0.71384170  1  0  -0.062792  0  3.596442  0  0  -0.099158  0  3.844733  0  0  -0.098123  0  3.858997  0  0  -0.047812  -0.10019  0  3.835996  0
C  C25  1  0.39387417  0.44128858  0.28615965  1  0  -0.062721  0  3.596402  0  0  -0.099261  0  3.844705  0  0  -0.098226  0  3.858971  0  0  -0.047847  -0.100301  0  3.835971  0
C  C26  1  0.66100624  0.63940262  0.58261970  1  0  -0.014264  0  3.687745  0  0  0.003983  0  3.926206  0  0  0.000192  0  3.943109  0  0  0.009891  0.00654  0  3.915258  0
C  C27  1  0.33899457  0.36059571  0.41738390  1  0  -0.014432  0  3.687886  0  0  0.004007  0  3.926178  0  0  0.000215  0  3.943076  0  0  0.009932  0.006569  0  3.915226  0
C  C28  1  0.73743114  0.57057237  0.48852783  1  0  -0.095934  0  3.647733  0  0  -0.132386  0  3.901505  0  0  -0.133735  0  3.91992  0  0  -0.060169  -0.131018  0  3.88942  0
C  C29  1  0.26257739  0.42943019  0.51147429  1  0  -0.095726  0  3.647803  0  0  -0.132193  0  3.901509  0  0  -0.133525  0  3.919939  0  0  -0.060108  -0.130825  0  3.889418  0
C  C30  1  0.76307250  0.42311697  0.53027102  1  0  0.092947  0  3.767092  0  0  0.101059  0  4.013839  0  0  0.100485  0  4.035561  0  0  0.115991  0.101126  0  3.999197  0
C  C31  1  0.23693597  0.57688343  0.46972881  1  0  0.092908  0  3.767123  0  0  0.100999  0  4.013858  0  0  0.10043  0  4.035564  0  0  0.115961  0.101061  0  3.999235  0
C  C32  1  0.55588042  0.31377367  0.87851710  1  0  0.638472  0  3.871085  0  0  0.588004  0  4.165269  0  0  0.621711  0  4.158059  0  0  0.232861  0.564798  0  4.169766  0
C  C33  1  0.44412812  0.68622461  0.12148332  1  0  0.638311  0  3.87116  0  0  0.587756  0  4.165425  0  0  0.621466  0  4.158222  0  0  0.232733  0.564556  0  4.169894  0
C  C34  1  0.63866536  0.79859748  0.54141260  1  0  0.705204  0  3.848959  0  0  0.653631  0  4.148386  0  0  0.690492  0  4.136752  0  0  0.242058  0.628036  0  4.155749  0
C  C35  1  0.36133734  0.20139881  0.45859734  1  0  0.705316  0  3.848775  0  0  0.653633  0  4.148303  0  0  0.690502  0  4.136658  0  0  0.242155  0.628041  0  4.155656  0
C  C36  1  0.84196128  0.33889007  0.43539127  1  0  0.609671  0  3.930277  0  0  0.561587  0  4.231531  0  0  0.592836  0  4.227734  0  0  0.209974  0.539996  0  4.233564  0
C  C37  1  0.15804090  0.66110926  0.56460810  1  0  0.60963  0  3.930423  0  0  0.561579  0  4.231621  0  0  0.59283  0  4.227821  0  0  0.209986  0.540002  0  4.233637  0
N  N38  1  0.71070400  0.34592496  0.65626856  1  0  -0.386775  0  3.256405  0  0  -0.351991  0  3.514971  0  0  -0.367921  0  3.537496  0  0  -0.362314  -0.339716  0  3.498744  0
N  N39  1  0.28930286  0.65407650  0.34373102  1  0  -0.386832  0  3.256448  0  0  -0.352083  0  3.514992  0  0  -0.368013  0  3.537512  0  0  -0.362318  -0.339814  0  3.498773  0
O  O40  1  0.61037847  0.18086037  0.89836447  1  0  -0.697693  0  2.054235  0  0  -0.636124  0  2.291077  0  0  -0.669869  0  2.282208  0  0  -0.377811  -0.611349  0  2.296326  0
O  O41  1  0.38962358  0.81913892  0.10163201  1  0  -0.697636  0  2.054269  0  0  -0.636051  0  2.29115  0  0  -0.669789  0  2.282259  0  0  -0.377755  -0.611287  0  2.296394  0
O  O42  1  0.44599718  0.36133569  0.95912717  1  0  -0.554346  0  1.951899  0  0  -0.508694  0  2.163044  0  0  -0.531126  0  2.1521  0  0  -0.287302  -0.493186  0  2.170748  0
O  O43  1  0.55402065  0.63866573  0.04087106  1  0  -0.554239  0  1.951829  0  0  -0.508538  0  2.162993  0  0  -0.530972  0  2.152055  0  0  -0.287219  -0.493036  0  2.170678  0
O  O44  1  0.66509846  0.86109590  0.63072423  1  0  -0.67404  0  2.01052  0  0  -0.629642  0  2.274037  0  0  -0.660831  0  2.261864  0  0  -0.368743  -0.605657  0  2.281466  0
O  O45  1  0.33488663  0.13890569  0.36928191  1  0  -0.67404  0  2.010265  0  0  -0.629627  0  2.273841  0  0  -0.660817  0  2.261667  0  0  -0.368772  -0.605647  0  2.281267  0
O  O46  1  0.60018388  0.86051296  0.41681159  1  0  -0.706582  0  2.035456  0  0  -0.654173  0  2.289054  0  0  -0.685901  0  2.278977  0  0  -0.354001  -0.6314  0  2.296078  0
O  O47  1  0.39982819  0.13947577  0.58319240  1  0  -0.706671  0  2.035503  0  0  -0.65423  0  2.289174  0  0  -0.685959  0  2.279073  0  0  -0.354077  -0.631459  0  2.296197  0
O  O48  1  0.87691962  0.39732338  0.31378979  1  0  -0.544839  0  1.873998  0  0  -0.511535  0  2.081569  0  0  -0.531661  0  2.075655  0  0  -0.308663  -0.497407  0  2.0857  0
O  O49  1  0.12308091  0.60267808  0.68620904  1  0  -0.544847  0  1.874068  0  0  -0.511552  0  2.081614  0  0  -0.531677  0  2.075695  0  0  -0.308682  -0.497423  0  2.085735  0
O  O50  1  0.86540198  0.20247179  0.49532412  1  0  -0.723424  0  2.070423  0  0  -0.665274  0  2.319407  0  0  -0.699603  0  2.312205  0  0  -0.39237  -0.639652  0  2.323876  0
O  O51  1  0.13460325  0.79752644  0.50467255  1  0  -0.723368  0  2.070502  0  0  -0.665218  0  2.319457  0  0  -0.699547  0  2.312257  0  0  -0.392372  -0.639602  0  2.323924  0
O  O52  1  0.05481478  0.13288414  0.83932276  1  0  -0.876107  0  1.825544  0  0  -0.831452  0  2.007435  0  0  -0.85653  0  1.973841  0  0  -0.629738  -0.813181  0  2.031812  0
O  O53  1  0.94517942  0.86711732  0.16067532  1  0  -0.876211  0  1.825403  0  0  -0.831551  0  2.007309  0  0  -0.856627  0  1.973717  0  0  -0.629797  -0.813277  0  2.031687  0
O  O54  1  0.09459198  0.94823613  0.67180269  1  0  -0.89608  0  1.882119  0  0  -0.837702  0  2.078645  0  0  -0.865405  0  2.044985  0  0  -0.620189  -0.817859  0  2.103166  0
O  O55  1  0.90539929  0.05175789  0.32819663  1  0  -0.896119  0  1.882085  0  0  -0.837728  0  2.078625  0  0  -0.865425  0  2.044968  0  0  -0.620238  -0.817882  0  2.103144  0
O  O56  1  0.84727475  0.81445138  0.91465781  1  0  -0.870614  0  1.826467  0  0  -0.815148  0  2.002527  0  0  -0.839935  0  1.972036  0  0  -0.584357  -0.796989  0  2.024458  0
O  O57  1  0.15271759  0.18555214  0.08533489  1  0  -0.870587  0  1.82651  0  0  -0.815147  0  2.002526  0  0  -0.839929  0  1.97203  0  0  -0.584293  -0.796981  0  2.024456  0
O  O58  1  0.40000893  0.95209487  0.84792934  1  0  -0.886837  0  1.922751  0  0  -0.828774  0  2.119978  0  0  -0.855868  0  2.086721  0  0  -0.613535  -0.808948  0  2.141641  0
O  O59  1  0.59998498  0.04791616  0.15206701  1  0  -0.886776  0  1.922755  0  0  -0.828705  0  2.119972  0  0  -0.855793  0  2.086714  0  0  -0.613516  -0.808875  0  2.141636  0
