# generated using pymatgen
data_MnH12(CO2)4
_symmetry_space_group_name_H-M   'P 1'
_cell_length_a   5.23569722
_cell_length_b   5.34154184
_cell_length_c   7.80818083
_cell_angle_alpha   84.61205465
_cell_angle_beta   75.89860736
_cell_angle_gamma   79.70614980
_symmetry_Int_Tables_number   1
_chemical_formula_structural   MnH12(CO2)4
_chemical_formula_sum   'Mn1 H12 C4 O8'
_cell_volume   208.08940274
_cell_formula_units_Z   1
loop_
 _symmetry_equiv_pos_site_id
 _symmetry_equiv_pos_as_xyz
  1  'x, y, z'
loop_
 _atom_site_type_symbol
 _atom_site_label
 _atom_site_symmetry_multiplicity
 _atom_site_fract_x
 _atom_site_fract_y
 _atom_site_fract_z
 _atom_site_occupancy
 _atom_site_hle17_ddec_charge
 _atom_site_hle17_ddec_spin_density
 _atom_site_hle17_ddec_sum_bond_order
 _atom_site_hle17_magmom
 _atom_site_hse06_10hf_ddec_charge
 _atom_site_hse06_10hf_ddec_spin_density
 _atom_site_hse06_10hf_ddec_sum_bond_order
 _atom_site_hse06_10hf_magmom
 _atom_site_hse06_ddec_charge
 _atom_site_hse06_ddec_spin_density
 _atom_site_hse06_ddec_sum_bond_order
 _atom_site_hse06_magmom
 _atom_site_pbe_cm5_charge
 _atom_site_pbe_ddec_charge
 _atom_site_pbe_ddec_spin_density
 _atom_site_pbe_ddec_sum_bond_order
 _atom_site_pbe_magmom
Mn  Mn0  1  0.99999874  0.99999755  0.00000130  1  1.345847  -4.805436  1.599507  -4.707  1.195762  -4.735136  2.082753  -4.575  1.245644  -4.770817  2.013522  -4.626  0.602506  1.15655  -4.699432  2.133359  -4.525
H  H1  1  0.20226691  0.45033577  0.05846082  1  0.426629  -0.000138  0.877682  -0.002  0.396076  -0.000844  0.941942  -0.003  0.406393  -0.000511  0.92707  -0.003  0.300415  0.388745  -0.00115  0.952463  -0.003
H  H2  1  0.79772439  0.54966186  0.94153900  1  0.426622  -0.000141  0.877654  -0.002  0.39605  -0.000844  0.941972  -0.003  0.406361  -0.000511  0.927109  -0.003  0.30039  0.38872  -0.00115  0.952489  -0.003
H  H3  1  0.43300765  0.25757677  0.94876506  1  0.428974  0.000581  0.876905  -0.001  0.39717  -3.7e-05  0.941331  -0.002  0.408174  0.000233  0.925482  -0.002  0.298975  0.389349  -0.000291  0.952564  -0.002
H  H4  1  0.56699205  0.74243021  0.05123141  1  0.429106  0.00058  0.876727  -0.001  0.397261  -3.7e-05  0.941228  -0.002  0.408273  0.000233  0.925366  -0.002  0.29902  0.389436  -0.000291  0.952468  -0.002
H  H5  1  0.26939839  0.84368875  0.63855998  1  0.426073  -0.000314  0.871386  -0.001  0.393159  -0.000948  0.939288  -0.002  0.403679  -0.000674  0.924065  -0.002  0.294244  0.385699  -0.001202  0.950036  -0.003
H  H6  1  0.73059854  0.15631076  0.36144261  1  0.426081  -0.000317  0.871383  -0.001  0.393189  -0.000948  0.939272  -0.002  0.403709  -0.000674  0.92405  -0.002  0.294227  0.385726  -0.001201  0.950027  -0.003
H  H7  1  0.44274369  0.00171131  0.70826945  1  0.419731  0.000213  0.883969  -0.001  0.386683  -0.000284  0.951812  -0.002  0.398369  -8e-05  0.934757  -0.001  0.291644  0.378335  -0.000473  0.963954  -0.002
H  H8  1  0.55725325  0.99828822  0.29173442  1  0.419652  0.000215  0.884058  -0.001  0.386644  -0.000284  0.951826  -0.002  0.398328  -8e-05  0.934771  -0.001  0.291619  0.378294  -0.000474  0.963974  -0.002
H  H9  1  0.84409216  0.56222766  0.35285215  1  0.114437  0.000227  0.933834  0.0  0.128039  0.000122  0.996442  0.0  0.130722  0.000242  0.995243  0.0  0.108451  0.125984  -3.2e-05  0.99748  0.0
H  H10  1  0.15591859  0.43777174  0.64715329  1  0.114406  0.000194  0.933803  0.0  0.127994  0.000122  0.99649  0.0  0.130678  0.000241  0.995291  0.0  0.108385  0.125937  -3.2e-05  0.997529  0.0
H  H11  1  0.12567799  0.32374118  0.34621051  1  0.113357  8.8e-05  0.937129  0.0  0.127958  -0.000156  0.999028  0.0  0.130524  2.4e-05  0.997859  0.0  0.109451  0.125956  -0.000371  1.000094  -0.001
H  H12  1  0.87432515  0.67625627  0.65378737  1  0.113325  9.3e-05  0.937099  0.0  0.127966  -0.000157  0.999009  0.0  0.130524  2.4e-05  0.997847  0.0  0.109461  0.125965  -0.000372  1.000074  -0.001
C  C13  1  0.21029691  0.69807396  0.31421429  1  0.735211  -0.007008  3.776767  -0.007  0.674697  -0.011598  4.088428  -0.011  0.709798  -0.008222  4.078892  -0.008  0.231665  0.65012  -0.015644  4.094583  -0.014
C  C14  1  0.78970421  0.30193722  0.68580469  1  0.735088  -0.007014  3.776404  -0.007  0.674523  -0.011609  4.088228  -0.011  0.709616  -0.008232  4.078707  -0.008  0.231704  0.649937  -0.015661  4.094388  -0.014
C  C15  1  0.02898719  0.50952079  0.40025030  1  -0.262508  0.000455  3.718363  0.0  -0.302577  -0.000109  3.968315  0.0  -0.308345  0.000196  3.976411  0.0  -0.168164  -0.298401  -0.000393  3.9628  0.0
C  C16  1  0.97102779  0.49047637  0.59973924  1  -0.262298  0.000509  3.718179  0.0  -0.302453  -0.00011  3.968219  0.0  -0.308223  0.000199  3.976333  0.0  -0.16805  -0.298275  -0.000393  3.962706  0.0
O  O17  1  0.25125276  0.72664534  0.14281463  1  -0.733918  -0.026474  2.124544  -0.012  -0.650475  -0.032755  2.374993  -0.015  -0.681436  -0.029873  2.360143  -0.013  -0.317614  -0.628153  -0.035357  2.384976  -0.016
O  O18  1  0.74874476  0.27335047  0.85719454  1  -0.733725  -0.02646  2.124771  -0.012  -0.650335  -0.032746  2.375335  -0.015  -0.681234  -0.029863  2.360434  -0.013  -0.317614  -0.628018  -0.035345  2.385321  -0.016
O  O19  1  0.31776399  0.81604739  0.40242531  1  -0.615321  -0.004144  1.970211  -0.005  -0.545052  -0.007503  2.1839  -0.009  -0.571059  -0.005593  2.174226  -0.007  -0.289848  -0.527232  -0.009588  2.190557  -0.011
O  O20  1  0.68222933  0.18393655  0.59755595  1  -0.615483  -0.004147  1.969397  -0.005  -0.545136  -0.007507  2.183117  -0.009  -0.571157  -0.005595  2.173463  -0.007  -0.289969  -0.527311  -0.009594  2.189779  -0.011
O  O21  1  0.23680954  0.28377539  0.00313289  1  -0.873886  -0.032137  1.902824  -0.019  -0.811254  -0.040139  2.126309  -0.022  -0.835172  -0.036181  2.090147  -0.019  -0.583077  -0.79309  -0.043805  2.151369  -0.026
O  O22  1  0.76318256  0.71622982  0.99686625  1  -0.873967  -0.032132  1.902592  -0.019  -0.811335  -0.04014  2.126219  -0.022  -0.835235  -0.036182  2.09002  -0.019  -0.583099  -0.79319  -0.043807  2.151327  -0.026
O  O23  1  0.29731046  0.89636833  0.75020212  1  -0.851772  -0.028649  1.851586  -0.017  -0.792316  -0.038176  2.058284  -0.023  -0.814507  -0.034153  2.021598  -0.02  -0.577391  -0.775581  -0.041972  2.083962  -0.026
O  O24  1  0.70269379  0.10363497  0.24980411  1  -0.851661  -0.028641  1.851572  -0.017  -0.792236  -0.038173  2.058149  -0.023  -0.814423  -0.034149  2.021477  -0.02  -0.57733  -0.775501  -0.04197  2.083823  -0.026
