# generated using pymatgen
data_CuH12C11N2O3
_symmetry_space_group_name_H-M   'P 1'
_cell_length_a   14.41076272
_cell_length_b   14.41064904
_cell_length_c   14.41067674
_cell_angle_alpha   106.19635509
_cell_angle_beta   106.19658407
_cell_angle_gamma   116.24026597
_symmetry_Int_Tables_number   1
_chemical_formula_structural   CuH12C11N2O3
_chemical_formula_sum   'Cu8 H96 C88 N16 O24'
_cell_volume   2279.34566273
_cell_formula_units_Z   8
loop_
 _symmetry_equiv_pos_site_id
 _symmetry_equiv_pos_as_xyz
  1  'x, y, z'
loop_
 _atom_site_type_symbol
 _atom_site_label
 _atom_site_symmetry_multiplicity
 _atom_site_fract_x
 _atom_site_fract_y
 _atom_site_fract_z
 _atom_site_occupancy
 _atom_site_pbe_bader_charge
 _atom_site_pbe_bader_spin_density
 _atom_site_pbe_cm5_charge
 _atom_site_pbe_ddec_charge
 _atom_site_pbe_ddec_spin_density
 _atom_site_pbe_ddec_sum_bond_order
 _atom_site_pbe_magmom
Cu  Cu0  1  0.92048786  0.50601788  0.41415981  1  1.06641  0.572815  0.701839  0.803642  0.727815  2.216033  0.571
Cu  Cu1  1  0.59186081  0.50632674  0.08583798  1  1.071921  0.572833  0.701824  0.80364  0.727813  2.216056  0.571
Cu  Cu2  1  0.07951137  0.49398015  0.58583973  1  1.066387  0.57282  0.701813  0.803629  0.727819  2.216059  0.571
Cu  Cu3  1  0.40814179  0.49367315  0.91416143  1  1.071914  0.572827  0.701827  0.803625  0.727808  2.216028  0.571
Cu  Cu4  1  0.00632461  0.42048770  0.91446818  1  1.069499  0.572851  0.701845  0.803606  0.727805  2.21606  0.571
Cu  Cu5  1  0.00602045  0.09185691  0.58553335  1  1.066891  0.572818  0.701827  0.80359  0.727806  2.216113  0.571
Cu  Cu6  1  0.99367699  0.57951524  0.08553462  1  1.069526  0.572853  0.701819  0.803611  0.727806  2.216047  0.571
Cu  Cu7  1  0.99398046  0.90814424  0.41446788  1  1.066847  0.572814  0.701833  0.803587  0.727802  2.216145  0.571
H  H8  1  0.16103740  0.50963152  0.39591570  1  0.071475  0.004483  0.107605  0.073954  0.0021  0.95873  0.003
H  H9  1  0.34018740  0.64816267  0.39476692  1  0.052068  0.00018  0.099482  0.100161  9.6e-05  1.005784  0.0
H  H10  1  0.51935062  0.85210534  0.49050804  1  0.068338  0.000175  0.096612  0.093401  8.2e-05  1.023041  0.0
H  H11  1  0.52628162  0.01445589  0.61526244  1  0.068245  7.7e-05  0.095621  0.091864  2.9e-05  1.040864  0.0
H  H12  1  0.35192488  0.97541370  0.64513662  1  0.059486  1e-06  0.100744  0.099748  -3.5e-05  0.989273  0.0
H  H13  1  0.17433610  0.77076475  0.55133917  1  0.098857  7.5e-05  0.104538  0.119993  6.2e-05  1.011786  0.0
H  H14  1  0.77503984  0.47088237  0.20152464  1  0.121188  0.000618  0.126463  0.112863  6.1e-05  1.00129  0.001
H  H15  1  0.72221966  0.53523607  0.43756786  1  0.09724  0.000435  0.119184  0.092899  0.000138  1.006202  0.0
H  H16  1  0.69144770  0.40198327  0.44179387  1  0.067544  0.00098  0.117168  0.07784  0.000495  1.037993  0.001
H  H17  1  0.70126320  0.26386902  0.31237423  1  0.077402  0.001016  0.116606  0.082313  0.00046  1.018816  0.001
H  H18  1  0.73540421  0.29233830  0.20847329  1  0.072228  0.000228  0.117444  0.083036  -0.000194  1.017559  0.0
H  H19  1  0.41384176  0.21243109  0.19511454  1  0.050239  0.000772  0.117949  0.084571  0.000369  0.982068  0.0
H  H20  1  0.61372111  0.76512731  0.10408325  1  0.062955  0.004497  0.107595  0.073937  0.0021  0.958735  0.003
H  H21  1  0.75339567  0.94542371  0.10522672  1  0.051482  0.00018  0.099481  0.100153  9.6e-05  1.005814  0.0
H  H22  1  0.86159686  0.02884305  0.00948400  1  0.06945  0.000174  0.096585  0.093328  8.2e-05  1.023045  0.0
H  H23  1  0.89919192  0.91101534  0.88473211  1  0.075137  7.4e-05  0.09564  0.091879  2.9e-05  1.040825  0.0
H  H24  1  0.83027587  0.70678436  0.85486182  1  0.053859  1e-06  0.100729  0.099726  -3.5e-05  0.989194  0.0
H  H25  1  0.71942699  0.62299690  0.94866202  1  0.092772  7.8e-05  0.104523  0.119991  6.2e-05  1.011804  0.0
H  H26  1  0.76936110  0.57351400  0.29847358  1  0.168542  0.000598  0.126465  0.11286  6.1e-05  1.001219  0.001
H  H27  1  0.59766641  0.28464686  0.06242967  1  0.087038  0.000436  0.119198  0.092913  0.000138  1.006175  0.0
H  H28  1  0.46019022  0.24965257  0.05820721  1  0.072524  0.000975  0.11718  0.077861  0.000495  1.037981  0.001
H  H29  1  0.45149829  0.38889088  0.18762564  1  0.082179  0.001017  0.116611  0.082329  0.00046  1.018853  0.001
H  H30  1  0.58386854  0.52693190  0.29152593  1  0.106763  0.000239  0.117457  0.083024  -0.000194  1.017583  0.0
H  H31  1  0.51731890  0.21872637  0.30488629  1  0.060663  0.000769  0.117965  0.084595  0.000369  0.982063  0.0
H  H32  1  0.83895658  0.49036381  0.60407944  1  0.071206  0.004484  0.107619  0.073965  0.0021  0.958802  0.003
H  H33  1  0.65981143  0.35183751  0.60523309  1  0.052024  0.00018  0.099503  0.10018  9.6e-05  1.00573  0.0
H  H34  1  0.48064612  0.14789386  0.50949076  1  0.068299  0.000175  0.096613  0.093409  8.2e-05  1.022987  0.0
H  H35  1  0.47371779  0.98554557  0.38473642  1  0.068349  7.7e-05  0.095625  0.091851  2.9e-05  1.040879  0.0
H  H36  1  0.64807256  0.02458509  0.35486200  1  0.059515  1e-06  0.100749  0.099773  -3.5e-05  0.989259  0.0
H  H37  1  0.82566381  0.22923507  0.44866194  1  0.09888  7.5e-05  0.10454  0.119998  6.2e-05  1.011754  0.0
H  H38  1  0.22495919  0.52911619  0.79847469  1  0.121277  0.000618  0.126479  0.112868  6.1e-05  1.001308  0.001
H  H39  1  0.27778056  0.46476329  0.56243180  1  0.097257  0.000435  0.119184  0.092879  0.000138  1.00624  0.0
H  H40  1  0.30855133  0.59801529  0.55820547  1  0.067317  0.00098  0.117158  0.077791  0.000495  1.038013  0.001
H  H41  1  0.29873602  0.73613011  0.68762618  1  0.077424  0.001015  0.116603  0.082319  0.00046  1.018801  0.001
H  H42  1  0.26459453  0.70765962  0.79152662  1  0.072213  0.000228  0.117459  0.08304  -0.000194  1.017554  0.0
H  H43  1  0.58615677  0.78756844  0.80488606  1  0.050204  0.000772  0.117942  0.08457  0.000369  0.982057  0.0
H  H44  1  0.38627793  0.23487125  0.89591609  1  0.062941  0.004497  0.107589  0.073896  0.0021  0.958743  0.003
H  H45  1  0.24660248  0.05457358  0.89477085  1  0.051413  0.00018  0.099484  0.100149  9.6e-05  1.005853  0.0
H  H46  1  0.13840287  0.97115510  0.99051516  1  0.069409  0.000174  0.09659  0.093352  8.2e-05  1.02304  0.0
H  H47  1  0.10080990  0.08898269  0.11526738  1  0.075157  7.4e-05  0.095639  0.091874  2.9e-05  1.040823  0.0
H  H48  1  0.16972526  0.29321298  0.14513697  1  0.053927  1e-06  0.100745  0.099783  -3.5e-05  0.989227  0.0
H  H49  1  0.28057394  0.37700096  0.05133657  1  0.092882  7.8e-05  0.104517  0.119974  6.2e-05  1.011795  0.0
H  H50  1  0.23063952  0.42648542  0.70152735  1  0.168441  0.000598  0.126444  0.112835  6.1e-05  1.001224  0.001
H  H51  1  0.40233283  0.71535117  0.93756987  1  0.087113  0.000436  0.119196  0.092915  0.000138  1.006193  0.0
H  H52  1  0.53980891  0.75034649  0.94179485  1  0.072599  0.000975  0.117198  0.077893  0.000495  1.038007  0.001
H  H53  1  0.54850054  0.61110929  0.81237437  1  0.082188  0.001017  0.116619  0.082325  0.00046  1.018868  0.001
H  H54  1  0.41613119  0.47306735  0.70847410  1  0.106772  0.000239  0.117452  0.083029  -0.000194  1.017539  0.0
H  H55  1  0.48268013  0.78127328  0.69511392  1  0.060655  0.000769  0.117985  0.084649  0.000369  0.982069  0.0
H  H56  1  0.26512121  0.66103689  0.15140548  1  0.071359  0.004482  0.107609  0.073958  0.0021  0.958724  0.003
H  H57  1  0.44541779  0.84019125  0.19202767  1  0.055339  0.000179  0.099519  0.100199  9.6e-05  1.005818  0.0
H  H58  1  0.52883867  0.01935545  0.16724635  1  0.06758  0.000176  0.096622  0.093406  8.2e-05  1.02305  0.0
H  H59  1  0.41101402  0.02628134  0.01182439  1  0.06688  7.8e-05  0.095648  0.091884  2.9e-05  1.040819  0.0
H  H60  1  0.20678350  0.85191958  0.87650750  1  0.061077  1e-06  0.100742  0.099749  -3.5e-05  0.989236  0.0
H  H61  1  0.12299564  0.67433147  0.90356912  1  0.10369  7.4e-05  0.104524  0.119967  6.2e-05  1.01184  0.0
H  H62  1  0.07351486  0.27503959  0.80415421  1  0.117262  0.000618  0.126478  0.11288  6.1e-05  1.001331  0.001
H  H63  1  0.78465115  0.22221941  0.68698129  1  0.088649  0.000435  0.119182  0.092868  0.000138  1.006238  0.0
H  H64  1  0.74965583  0.19144905  0.78946351  1  0.068078  0.000979  0.117155  0.077812  0.000495  1.037971  0.001
H  H65  1  0.88889206  0.20126442  0.93739278  1  0.080245  0.001017  0.116605  0.082332  0.00046  1.01885  0.001
H  H66  1  0.02693276  0.23540471  0.94306320  1  0.090617  0.000224  0.117485  0.083079  -0.000194  1.017572  0.0
H  H67  1  0.71872857  0.91384055  0.70140795  1  0.053201  0.00077  0.118001  0.084655  0.000369  0.982064  0.0
H  H68  1  0.00963403  0.11371825  0.34859563  1  0.076061  0.004469  0.107587  0.073922  0.0021  0.958711  0.003
H  H69  1  0.14816518  0.25339206  0.30797044  1  0.053233  0.000179  0.099517  0.100184  9.6e-05  1.005772  0.0
H  H70  1  0.35210643  0.36158943  0.33274875  1  0.067021  0.000175  0.096608  0.093389  8.2e-05  1.022974  0.0
H  H71  1  0.51445360  0.39918215  0.48816892  1  0.049149  8.3e-05  0.095643  0.091863  2.9e-05  1.040837  0.0
H  H72  1  0.47541159  0.33027492  0.62348985  1  0.059899  1e-06  0.100733  0.099749  -3.5e-05  0.98928  0.0
H  H73  1  0.27076565  0.21943188  0.59643310  1  0.095283  7.8e-05  0.104503  0.119952  6.2e-05  1.011806  0.0
H  H74  1  0.97088566  0.26936010  0.69584453  1  0.141734  0.000609  0.126464  0.112872  6.1e-05  1.001249  0.001
H  H75  1  0.03523638  0.09766617  0.81301600  1  0.099055  0.000437  0.119181  0.092881  0.000138  1.00619  0.0
H  H76  1  0.90198329  0.96018799  0.71053491  1  0.106535  0.000969  0.117185  0.07785  0.000495  1.037997  0.001
H  H77  1  0.76387082  0.95149615  0.56260463  1  0.089459  0.001014  0.116618  0.082341  0.00046  1.018789  0.001
H  H78  1  0.79234175  0.08386876  0.55693522  1  0.091166  0.000234  0.117483  0.083079  -0.000194  1.017552  0.0
H  H79  1  0.71243328  0.01731811  0.79859022  1  0.060471  0.00077  0.117926  0.084533  0.000369  0.982029  0.0
H  H80  1  0.73488030  0.33896270  0.84859634  1  0.071399  0.004482  0.107631  0.073962  0.0021  0.958709  0.003
H  H81  1  0.55458202  0.15980916  0.80797159  1  0.055315  0.000179  0.099506  0.100178  9.6e-05  1.005843  0.0
H  H82  1  0.47116004  0.98064641  0.83275269  1  0.06753  0.000176  0.096619  0.09338  8.2e-05  1.02305  0.0
H  H83  1  0.58898451  0.97371884  0.98817270  1  0.066929  7.8e-05  0.095656  0.09187  2.9e-05  1.040864  0.0
H  H84  1  0.79321414  0.14807869  0.12349132  1  0.061048  1e-06  0.100723  0.099717  -3.5e-05  0.989302  0.0
H  H85  1  0.87700408  0.32566887  0.09643179  1  0.103685  7.4e-05  0.104552  0.120026  6.2e-05  1.011861  0.0
H  H86  1  0.92648634  0.72496110  0.19584557  1  0.117292  0.000618  0.126455  0.112862  6.1e-05  1.001226  0.001
H  H87  1  0.21534916  0.77778112  0.31301759  1  0.088631  0.000435  0.119204  0.09292  0.000138  1.006206  0.0
H  H88  1  0.25034517  0.80855217  0.21053607  1  0.068075  0.000979  0.117153  0.077813  0.000495  1.038007  0.001
H  H89  1  0.11110844  0.79873668  0.06260718  1  0.080223  0.001017  0.116606  0.082328  0.00046  1.01885  0.001
H  H90  1  0.97306745  0.76459575  0.05693733  1  0.090658  0.000224  0.117474  0.083034  -0.000194  1.017551  0.0
H  H91  1  0.28127234  0.08616060  0.29859328  1  0.053212  0.000771  0.118002  0.084664  0.000369  0.982066  0.0
H  H92  1  0.99036381  0.88628059  0.65140426  1  0.07609  0.004469  0.107609  0.073947  0.0021  0.958712  0.003
H  H93  1  0.85183554  0.74660742  0.69202884  1  0.05324  0.000179  0.099514  0.100191  9.6e-05  1.005737  0.0
H  H94  1  0.64789468  0.63841120  0.66725268  1  0.067026  0.000175  0.096619  0.093374  8.2e-05  1.023025  0.0
H  H95  1  0.48554722  0.60081674  0.51183221  1  0.049155  8.3e-05  0.095643  0.091855  2.9e-05  1.040839  0.0
H  H96  1  0.52458705  0.66972293  0.37651172  1  0.059922  1e-06  0.100738  0.099767  -3.5e-05  0.989281  0.0
H  H97  1  0.72923457  0.78056858  0.40356743  1  0.095252  7.8e-05  0.104527  0.12  6.2e-05  1.011758  0.0
H  H98  1  0.02911604  0.73064181  0.30415575  1  0.141748  0.000609  0.126438  0.112847  6.1e-05  1.001208  0.001
H  H99  1  0.96476482  0.90233453  0.18698377  1  0.099073  0.000437  0.119185  0.092886  0.000138  1.006203  0.0
H  H100  1  0.09801722  0.03981311  0.28946505  1  0.106518  0.000969  0.117177  0.077849  0.000495  1.037973  0.001
H  H101  1  0.23612870  0.04850362  0.43739520  1  0.089458  0.001014  0.116617  0.082329  0.00046  1.018789  0.001
H  H102  1  0.20765847  0.91613170  0.44306531  1  0.091176  0.000234  0.117464  0.083043  -0.000194  1.017503  0.0
H  H103  1  0.28756673  0.98268288  0.20141011  1  0.060487  0.00077  0.117935  0.08454  0.000369  0.982018  0.0
C  C104  1  0.05152306  0.54630201  0.30250788  1  1.577852  0.004341  0.202748  0.559874  0.003197  4.15967  0.004
C  C105  1  0.13780350  0.57394093  0.41486080  1  0.46922  0.004047  -0.012115  0.047985  0.004499  3.973839  0.001
C  C106  1  0.24658703  0.69710541  0.46811528  1  -0.002974  0.004072  -0.019683  0.058109  0.002789  3.965087  0.003
C  C107  1  0.34323935  0.72026895  0.44990755  1  -0.026611  0.003524  -0.096202  -0.146021  0.002358  4.005691  0.002
C  C108  1  0.44314242  0.83431326  0.50280074  1  -0.131029  -0.000201  -0.09522  -0.084679  -0.000418  4.02599  0.0
C  C109  1  0.44708893  0.92639290  0.57370433  1  -0.014494  0.003468  -0.096846  -0.09102  0.002257  4.017425  0.002
C  C110  1  0.35014537  0.90394703  0.59062995  1  -0.127635  -0.000752  -0.096371  -0.090478  -0.000942  4.034669  -0.001
C  C111  1  0.25030921  0.78994352  0.53820063  1  -0.043171  0.002866  -0.096754  -0.131206  0.001909  3.960598  0.002
C  C112  1  0.68203151  0.44173289  0.38835125  1  0.548451  -0.000711  0.016526  0.003189  -0.000375  3.849299  -0.001
C  C113  1  0.69016445  0.30123371  0.25675940  1  0.55372  -0.001343  0.015663  -0.007436  -0.001476  3.879801  -0.002
C  C114  1  0.74379528  0.74901591  0.19749202  1  1.581317  0.004384  0.202841  0.560059  0.003197  4.159694  0.004
C  C115  1  0.65908323  0.72294604  0.08513909  1  0.495215  0.003949  -0.012154  0.047783  0.0045  3.973965  0.001
C  C116  1  0.72899272  0.77847254  0.03188294  1  -0.01803  0.004093  -0.019708  0.058205  0.002789  3.964883  0.003
C  C117  1  0.77036169  0.89333311  0.05008710  1  -0.050387  0.003544  -0.096223  -0.146052  0.002358  4.005478  0.002
C  C118  1  0.83151055  0.94034020  0.99719231  1  -0.101948  -0.000213  -0.095187  -0.084641  -0.000418  4.025918  0.0
C  C119  1  0.85268625  0.87338208  0.92629035  1  -0.018488  0.003471  -0.096842  -0.090933  0.002257  4.017398  0.002
C  C120  1  0.81331643  0.75951299  0.90936777  1  -0.118461  -0.000756  -0.096293  -0.090402  -0.000942  4.034578  -0.001
C  C121  1  0.75174468  0.71210901  0.96179921  1  -0.041016  0.002867  -0.096773  -0.131301  0.001909  3.960727  0.002
C  C122  1  0.55338202  0.29367857  0.11164841  1  0.548938  -0.000706  0.016524  0.003223  -0.000375  3.849228  -0.001
C  C123  1  0.54447704  0.43340568  0.24323981  1  0.518689  -0.001364  0.015609  -0.00749  -0.001476  3.879865  -0.002
C  C124  1  0.94847743  0.45370128  0.69749383  1  1.577734  0.004341  0.202812  0.560039  0.003197  4.159784  0.004
C  C125  1  0.86219552  0.42605872  0.58513942  1  0.469605  0.004046  -0.012174  0.04784  0.0045  3.973905  0.001
C  C126  1  0.75341201  0.30289314  0.53188406  1  -0.002886  0.004072  -0.0197  0.058049  0.002789  3.96502  0.003
C  C127  1  0.65675878  0.27973053  0.55009177  1  -0.026527  0.003524  -0.096173  -0.145948  0.002358  4.00547  0.002
C  C128  1  0.55685670  0.16568755  0.49719870  1  -0.131194  -0.000201  -0.09523  -0.084712  -0.000418  4.025969  0.0
C  C129  1  0.55290880  0.07360763  0.42629460  1  -0.014559  0.003468  -0.09687  -0.090965  0.002257  4.017385  0.002
C  C130  1  0.64985415  0.09605274  0.40936988  1  -0.127668  -0.000752  -0.096355  -0.090571  -0.000942  4.034675  -0.001
C  C131  1  0.74968952  0.21005549  0.46180016  1  -0.043179  0.002865  -0.096776  -0.131176  0.001909  3.96068  0.002
C  C132  1  0.31796821  0.55826635  0.61164878  1  0.54867  -0.000712  0.016559  0.00331  -0.000376  3.84921  -0.001
C  C133  1  0.30983457  0.69876594  0.74324081  1  0.553703  -0.001342  0.015648  -0.007469  -0.001476  3.879753  -0.002
C  C134  1  0.25620671  0.25098665  0.80250768  1  1.581334  0.004383  0.202753  0.55992  0.003197  4.159633  0.004
C  C135  1  0.34091728  0.27705396  0.91485999  1  0.495286  0.00395  -0.012123  0.047967  0.0045  3.973861  0.001
C  C136  1  0.27100752  0.22152463  0.96811496  1  -0.018168  0.004092  -0.019684  0.058135  0.002788  3.965006  0.003
C  C137  1  0.22963784  0.10666446  0.94991098  1  -0.050107  0.003544  -0.096208  -0.146034  0.002358  4.00544  0.002
C  C138  1  0.16848987  0.05965754  0.00280666  1  -0.102068  -0.000213  -0.095152  -0.084565  -0.000418  4.025808  0.0
C  C139  1  0.14731487  0.12661636  0.07370932  1  -0.018837  0.003471  -0.096844  -0.090926  0.002257  4.017298  0.002
C  C140  1  0.18668499  0.24048499  0.09063045  1  -0.118168  -0.000756  -0.096364  -0.090602  -0.000942  4.034717  -0.001
C  C141  1  0.24825505  0.28788804  0.03819907  1  -0.041052  0.002867  -0.09678  -0.131227  0.001909  3.960835  0.002
C  C142  1  0.44661770  0.70632178  0.88835250  1  0.548758  -0.000706  0.016483  0.003076  -0.000375  3.84935  -0.001
C  C143  1  0.45552298  0.56659420  0.75675965  1  0.518674  -0.001364  0.015642  -0.007435  -0.001476  3.879825  -0.002
C  C144  1  0.73045740  0.48045610  0.24999884  1  0.474358  -0.001721  0.005422  -0.018965  -0.001667  3.807425  -0.003
C  C145  1  0.50736732  0.25736622  0.24999981  1  0.592006  -0.000292  0.023563  0.013136  -0.00026  3.884644  -0.001
C  C146  1  0.26954213  0.51954367  0.75000100  1  0.47436  -0.001721  0.005416  -0.018988  -0.001666  3.807429  -0.003
C  C147  1  0.49263150  0.74263395  0.75000020  1  0.592396  -0.000292  0.023444  0.012896  -0.00026  3.884949  -0.001
C  C148  1  0.24900630  0.55151696  0.00521748  1  1.582871  0.004337  0.202805  0.560018  0.003196  4.159283  0.004
C  C149  1  0.22294226  0.63780250  0.06386232  1  0.49212  0.004003  -0.012153  0.047967  0.004499  3.97377  0.001
C  C150  1  0.27847029  0.74658593  0.04948106  1  -0.018726  0.004136  -0.01969  0.058078  0.002789  3.96513  0.003
C  C151  1  0.39332890  0.84324224  0.12297152  1  -0.046856  0.003527  -0.096233  -0.145982  0.002358  4.005646  0.002
C  C152  1  0.44033664  0.94314459  0.10882980  1  -0.117736  -0.000212  -0.095264  -0.084827  -0.000418  4.02608  0.0
C  C153  1  0.37337909  0.94708851  0.02069447  1  -0.002561  0.003466  -0.096864  -0.090923  0.002258  4.017401  0.002
C  C154  1  0.25951191  0.85014251  0.94619677  1  -0.173415  -0.000744  -0.096301  -0.090411  -0.000942  4.034633  -0.001
C  C155  1  0.21210774  0.75030688  0.96036372  1  -0.014225  0.002863  -0.096778  -0.131257  0.00191  3.960748  0.002
C  C156  1  0.79368150  0.18203136  0.74029696  1  0.55269  -0.000693  0.01656  0.003292  -0.000376  3.849186  -0.001
C  C157  1  0.93340660  0.19016428  0.88892894  1  0.547609  -0.001353  0.01564  -0.007459  -0.001476  3.879885  -0.002
C  C158  1  0.04630077  0.24379050  0.49478441  1  1.576825  0.004372  0.202719  0.559873  0.003196  4.15945  0.004
C  C159  1  0.07394179  0.15908207  0.43613857  1  0.500027  0.003973  -0.012121  0.047993  0.004499  3.973837  0.001
C  C160  1  0.19710705  0.22899355  0.45052022  1  -0.039516  0.004147  -0.019718  0.058016  0.002789  3.965057  0.003
C  C161  1  0.22027074  0.27035874  0.37702718  1  -0.00312  0.003538  -0.096211  -0.14601  0.002358  4.005442  0.002
C  C162  1  0.33431356  0.33150506  0.39116695  1  -0.149107  -0.000209  -0.09519  -0.084642  -0.000418  4.025877  0.0
C  C163  1  0.42639134  0.35268064  0.47930017  1  -0.000617  0.003466  -0.096839  -0.090921  0.002258  4.017455  0.002
C  C164  1  0.40394631  0.31331603  0.55380194  1  -0.161592  -0.000749  -0.096342  -0.090515  -0.000942  4.034738  -0.001
C  C165  1  0.28994366  0.25174667  0.53963646  1  -3.2e-05  0.002858  -0.096755  -0.131173  0.00191  3.960715  0.002
C  C166  1  0.94173305  0.05338074  0.75970169  1  0.505604  -0.000697  0.016522  0.003194  -0.000376  3.849266  -0.001
C  C167  1  0.80123591  0.04447575  0.61106926  1  0.525713  -0.001356  0.015595  -0.007548  -0.001476  3.87978  -0.002
C  C168  1  0.75099747  0.44848703  0.99478488  1  1.58276  0.004336  0.202792  0.559965  0.003196  4.159405  0.004
C  C169  1  0.77706003  0.36220004  0.93614030  1  0.492273  0.004003  -0.012171  0.047966  0.0045  3.973844  0.001
C  C170  1  0.72153061  0.25341522  0.95052017  1  -0.018904  0.004136  -0.019688  0.058079  0.002789  3.96512  0.003
C  C171  1  0.60667071  0.15675979  0.87702841  1  -0.046999  0.003527  -0.096208  -0.145978  0.002358  4.00561  0.002
C  C172  1  0.55966296  0.05685744  0.89117014  1  -0.117582  -0.000212  -0.095229  -0.084683  -0.000419  4.026053  0.0
C  C173  1  0.62661845  0.05291145  0.97930338  1  -0.002598  0.003466  -0.096899  -0.091025  0.002258  4.017476  0.002
C  C174  1  0.74048781  0.14985783  0.05380414  1  -0.173329  -0.000744  -0.096277  -0.090347  -0.000942  4.034566  -0.001
C  C175  1  0.78789228  0.24969411  0.03963662  1  -0.01409  0.002863  -0.096814  -0.131321  0.00191  3.960808  0.002
C  C176  1  0.20631971  0.81796934  0.25970281  1  0.552723  -0.000693  0.016526  0.003232  -0.000376  3.849214  -0.001
C  C177  1  0.06659440  0.80983694  0.11107064  1  0.547558  -0.001353  0.015652  -0.007398  -0.001476  3.879884  -0.002
C  C178  1  0.95369716  0.75620841  0.50521384  1  1.576809  0.004372  0.202743  0.559931  0.003196  4.159394  0.004
C  C179  1  0.92605703  0.84091701  0.56386056  1  0.500033  0.003972  -0.01213  0.04794  0.004499  3.973772  0.001
C  C180  1  0.80289296  0.77100854  0.54948099  1  -0.039493  0.004147  -0.019666  0.05813  0.002789  3.96497  0.003
C  C181  1  0.77972997  0.72964184  0.62297297  1  -0.003152  0.003538  -0.096198  -0.146018  0.002358  4.005517  0.002
C  C182  1  0.66568795  0.66849452  0.60883487  1  -0.148975  -0.000209  -0.095257  -0.084689  -0.000419  4.026018  0.0
C  C183  1  0.57360899  0.64731813  0.52070134  1  -0.000807  0.003467  -0.096854  -0.090927  0.002258  4.01737  0.002
C  C184  1  0.59605361  0.68668379  0.44619917  1  -0.161427  -0.000749  -0.096327  -0.090519  -0.000942  4.034667  -0.001
C  C185  1  0.71005517  0.74825351  0.46036356  1  -0.000163  0.002858  -0.096792  -0.131247  0.00191  3.960697  0.002
C  C186  1  0.05826716  0.94661972  0.24029884  1  0.505592  -0.000697  0.016514  0.003203  -0.000376  3.84926  -0.001
C  C187  1  0.19876480  0.95552483  0.38893089  1  0.525701  -0.001356  0.015634  -0.00744  -0.001476  3.879711  -0.002
C  C188  1  0.98045761  0.23045633  0.74999935  1  0.505816  -0.001748  0.00537  -0.019074  -0.001665  3.807581  -0.003
C  C189  1  0.75736734  0.00736587  0.74999924  1  0.58896  -0.000292  0.023493  0.013037  -0.00026  3.884683  -0.001
C  C190  1  0.01954360  0.76954437  0.25000042  1  0.5058  -0.001748  0.005466  -0.01895  -0.001665  3.807388  -0.003
C  C191  1  0.24263287  0.99263459  0.25000129  1  0.588924  -0.000292  0.023481  0.013004  -0.00026  3.884694  -0.001
N  N192  1  0.74607560  0.42929493  0.32466163  1  -0.96974  0.081921  -0.362661  -0.179763  0.053986  3.483391  0.07
N  N193  1  0.55782125  0.38222232  0.31592093  1  -1.016418  0.018181  -0.339778  -0.183391  0.011561  3.401891  0.014
N  N194  1  0.60463459  0.42141347  0.17533648  1  -0.964063  0.08191  -0.362639  -0.179745  0.053986  3.483276  0.07
N  N195  1  0.56630020  0.24189662  0.18407815  1  -1.017694  0.018185  -0.339819  -0.183458  0.011561  3.401892  0.014
N  N196  1  0.25392273  0.57070403  0.67533788  1  -0.969741  0.08192  -0.362663  -0.179781  0.053984  3.483321  0.07
N  N197  1  0.44217946  0.61777826  0.68407922  1  -1.016744  0.01818  -0.339773  -0.183395  0.01156  3.40186  0.014
N  N198  1  0.39536473  0.57858682  0.82466316  1  -0.964021  0.081911  -0.362658  -0.179716  0.053987  3.483255  0.07
N  N199  1  0.43369883  0.75810303  0.81592206  1  -1.017686  0.018186  -0.339706  -0.183221  0.011561  3.401852  0.014
N  N200  1  0.92141462  0.24607611  0.81677866  1  -0.959109  0.081928  -0.362677  -0.17976  0.053986  3.48331  0.07
N  N201  1  0.74189938  0.05781959  0.67559670  1  -1.016501  0.018184  -0.339725  -0.183332  0.011561  3.401806  0.014
N  N202  1  0.92929679  0.10463350  0.68321952  1  -0.973647  0.08195  -0.362661  -0.179686  0.053989  3.483233  0.07
N  N203  1  0.88222259  0.06629987  0.82440175  1  -1.030838  0.018184  -0.33977  -0.183388  0.011561  3.401905  0.014
N  N204  1  0.07858638  0.75392511  0.18322092  1  -0.959084  0.08193  -0.362663  -0.179777  0.053987  3.483386  0.07
N  N205  1  0.25810133  0.94218099  0.32440346  1  -1.016521  0.018184  -0.339736  -0.183366  0.011561  3.401801  0.014
N  N206  1  0.07070392  0.89536708  0.31678063  1  -0.973609  0.081947  -0.362688  -0.179791  0.053987  3.483416  0.07
N  N207  1  0.11777792  0.93370123  0.17559820  1  -1.030829  0.018185  -0.339783  -0.183401  0.011561  3.401883  0.014
O  O208  1  0.94700347  0.51156604  0.28734083  1  -1.122664  0.089924  -0.325754  -0.535576  0.056644  2.376162  0.082
O  O209  1  0.08641661  0.55908917  0.23366073  1  -1.174379  0.029939  -0.321573  -0.554079  0.018837  2.233814  0.026
O  O210  1  0.08487460  0.56311280  0.48320728  1  -1.055443  0.179889  -0.407707  -0.578876  0.114666  2.541656  0.16
O  O211  1  0.72422638  0.65966265  0.21265865  1  -1.122596  0.089919  -0.325811  -0.535676  0.056645  2.376338  0.082
O  O212  1  0.82543088  0.85275845  0.26634009  1  -1.18317  0.029936  -0.321612  -0.55411  0.018838  2.233681  0.026
O  O213  1  0.57990662  0.60166916  0.01679238  1  -1.06471  0.179914  -0.407694  -0.5788  0.114664  2.541657  0.16
O  O214  1  0.05299644  0.48843487  0.71266116  1  -1.122618  0.089925  -0.3258  -0.535634  0.056645  2.376303  0.082
O  O215  1  0.91358347  0.44091736  0.76634234  1  -1.174381  0.02994  -0.321594  -0.554146  0.018837  2.233756  0.026
O  O216  1  0.91512671  0.43688731  0.51679435  1  -1.055369  0.179885  -0.407683  -0.578795  0.114661  2.541599  0.16
O  O217  1  0.27577394  0.34033788  0.78734023  1  -1.122634  0.089916  -0.325757  -0.535567  0.056643  2.376165  0.082
O  O218  1  0.17456864  0.14724198  0.73365624  1  -1.183173  0.029939  -0.321593  -0.554112  0.01884  2.23371  0.026
O  O219  1  0.42009489  0.39832999  0.98320507  1  -1.064802  0.179902  -0.407708  -0.57887  0.114657  2.541659  0.16
O  O220  1  0.15965751  0.44700155  0.93543308  1  -1.135084  0.089922  -0.325754  -0.535606  0.056641  2.376071  0.082
O  O221  1  0.35275317  0.58641032  0.02732648  1  -1.167298  0.029953  -0.321613  -0.55414  0.018844  2.233461  0.026
O  O222  1  0.10166696  0.58487551  0.02176126  1  -1.060221  0.179818  -0.407702  -0.578887  0.114667  2.541599  0.16
O  O223  1  0.01156923  0.22422397  0.56456713  1  -1.127444  0.089894  -0.325733  -0.535557  0.056636  2.376186  0.082
O  O224  1  0.05908837  0.32543355  0.47267820  1  -1.173868  0.029949  -0.321557  -0.554067  0.018844  2.233512  0.026
O  O225  1  0.06311712  0.07990802  0.47823972  1  -1.056752  0.179872  -0.407715  -0.578864  0.114666  2.541671  0.16
O  O226  1  0.84034458  0.55300151  0.06456934  1  -1.135135  0.089918  -0.325719  -0.53557  0.056638  2.376208  0.082
O  O227  1  0.64724753  0.41359245  0.97267543  1  -1.167245  0.029956  -0.321638  -0.554142  0.018845  2.233425  0.026
O  O228  1  0.89833473  0.41512749  0.97823989  1  -1.060354  0.179805  -0.40772  -0.578908  0.114659  2.541677  0.16
O  O229  1  0.98842752  0.77577303  0.43542992  1  -1.127449  0.089896  -0.325767  -0.535581  0.056637  2.376116  0.082
O  O230  1  0.94091184  0.67456691  0.52732233  1  -1.173853  0.029949  -0.321547  -0.554078  0.018844  2.233502  0.026
O  O231  1  0.93688478  0.92009336  0.52176075  1  -1.05684  0.179866  -0.407717  -0.578852  0.114663  2.541649  0.16
