# generated using pymatgen
data_Ag2H10C12SN2O5
_symmetry_space_group_name_H-M   'P 1'
_cell_length_a   8.12342396
_cell_length_b   8.68194631
_cell_length_c   11.08370846
_cell_angle_alpha   94.64452588
_cell_angle_beta   96.63189440
_cell_angle_gamma   109.24065647
_symmetry_Int_Tables_number   1
_chemical_formula_structural   Ag2H10C12SN2O5
_chemical_formula_sum   'Ag4 H20 C24 S2 N4 O10'
_cell_volume   727.17104347
_cell_formula_units_Z   2
loop_
 _symmetry_equiv_pos_site_id
 _symmetry_equiv_pos_as_xyz
  1  'x, y, z'
loop_
 _atom_site_type_symbol
 _atom_site_label
 _atom_site_symmetry_multiplicity
 _atom_site_fract_x
 _atom_site_fract_y
 _atom_site_fract_z
 _atom_site_occupancy
 _atom_site_hle17_bader_spin_density
 _atom_site_hle17_ddec_charge
 _atom_site_hle17_ddec_spin_density
 _atom_site_hle17_ddec_sum_bond_order
 _atom_site_hle17_magmom
 _atom_site_hse06_10hf_bader_spin_density
 _atom_site_hse06_10hf_ddec_charge
 _atom_site_hse06_10hf_ddec_spin_density
 _atom_site_hse06_10hf_ddec_sum_bond_order
 _atom_site_hse06_10hf_magmom
 _atom_site_hse06_bader_spin_density
 _atom_site_hse06_ddec_charge
 _atom_site_hse06_ddec_spin_density
 _atom_site_hse06_ddec_sum_bond_order
 _atom_site_hse06_magmom
 _atom_site_pbe_bader_spin_density
 _atom_site_pbe_cm5_charge
 _atom_site_pbe_ddec_charge
 _atom_site_pbe_ddec_spin_density
 _atom_site_pbe_ddec_sum_bond_order
 _atom_site_pbe_magmom
Ag  Ag0  1  0.41881113  0.96030123  0.12534204  1  0  0.48472  0  1.521518  0  0  0.346971  0  1.995319  0  0  0.384783  0  1.931526  0  0  0.412265  0.321515  0  2.038262  0
Ag  Ag1  1  0.58118784  0.03969766  0.87465647  1  0  0.48472  0  1.52148  0  0  0.346957  0  1.995325  0  0  0.384784  0  1.931507  0  0  0.412269  0.3215  0  2.038262  0
Ag  Ag2  1  0.41992358  0.24989118  0.03104953  1  0  0.559453  0  1.554891  0  0  0.456174  0  2.027521  0  0  0.482803  0  1.96851  0  0  0.434053  0.438059  0  2.06752  0
Ag  Ag3  1  0.58007831  0.75010892  0.96895022  1  0  0.559451  0  1.55488  0  0  0.456149  0  2.027507  0  0  0.482785  0  1.968481  0  0  0.434047  0.438033  0  2.067511  0
H  H4  1  0.74817639  0.29242560  0.10088546  1  0  0.322678  0  0.931311  0  0  0.307335  0  0.99148  0  0  0.314859  0  0.986185  0  0  0.291162  0.301965  0  0.995294  0
H  H5  1  0.25182551  0.70757450  0.89911429  1  0  0.322619  0  0.931374  0  0  0.307226  0  0.991572  0  0  0.314746  0  0.986286  0  0  0.291107  0.301857  0  0.995387  0
H  H6  1  0.72092843  0.46670145  0.16401504  1  0  0.335071  0  0.848755  0  0  0.330476  0  0.886758  0  0  0.336424  0  0.883101  0  0  0.317467  0.326164  0  0.889539  0
H  H7  1  0.27907486  0.53330235  0.83598595  1  0  0.33507  0  0.848683  0  0  0.330419  0  0.886762  0  0  0.336368  0  0.883104  0  0  0.317429  0.326107  0  0.889542  0
H  H8  1  0.10680298  0.36466983  0.08914350  1  0  0.121868  0  0.922238  0  0  0.133074  0  0.977296  0  0  0.137151  0  0.973831  0  0  0.11191  0.129988  0  0.980061  0
H  H9  1  0.89320014  0.63533026  0.91085636  1  0  0.121949  0  0.922203  0  0  0.133149  0  0.97726  0  0  0.137227  0  0.973795  0  0  0.11194  0.130063  0  0.980025  0
H  H10  1  0.96834110  0.96583451  0.30670278  1  0  0.108739  0  0.932007  0  0  0.120302  0  0.987655  0  0  0.12409  0  0.984751  0  0  0.108569  0.117577  0  0.989778  0
H  H11  1  0.03165956  0.03416560  0.69329686  1  0  0.108731  0  0.931973  0  0  0.120295  0  0.987626  0  0  0.124084  0  0.984722  0  0  0.10857  0.117567  0  0.98975  0
H  H12  1  0.73242661  0.11278304  0.57848178  1  0  0.108866  0  0.961168  0  0  0.11943  0  1.02183  0  0  0.121972  0  1.021822  0  0  0.108073  0.11774  0  1.021746  0
H  H13  1  0.26756275  0.88721355  0.42151839  1  0  0.108912  0  0.961153  0  0  0.119451  0  1.021844  0  0  0.121994  0  1.021835  0  0  0.108064  0.117762  0  1.021764  0
H  H14  1  0.41096255  0.40610889  0.44449231  1  0  0.106464  0  0.975273  0  0  0.113466  0  1.042979  0  0  0.116673  0  1.041037  0  0  0.104156  0.111023  0  1.04475  0
H  H15  1  0.58903809  0.59389124  0.55550913  1  0  0.106475  0  0.975333  0  0  0.113487  0  1.043007  0  0  0.116694  0  1.041065  0  0  0.104169  0.111044  0  1.044779  0
H  H16  1  0.82557551  0.52707051  0.37361582  1  0  0.125496  0  0.93372  0  0  0.139433  0  0.984825  0  0  0.142711  0  0.983908  0  0  0.114841  0.137031  0  0.985746  0
H  H17  1  0.17442711  0.47292837  0.62638664  1  0  0.12547  0  0.933672  0  0  0.139408  0  0.984784  0  0  0.142686  0  0.983866  0  0  0.114821  0.13701  0  0.985698  0
H  H18  1  0.58129422  0.92974869  0.38113284  1  0  0.084198  0  0.977032  0  0  0.089786  0  1.047535  0  0  0.092274  0  1.045147  0  0  0.113433  0.087979  0  1.049166  0
H  H19  1  0.41870229  0.07025024  0.61886544  1  0  0.084224  0  0.977092  0  0  0.089793  0  1.047607  0  0  0.092281  0  1.045219  0  0  0.113432  0.087985  0  1.049236  0
H  H20  1  0.21225674  0.13405518  0.47537694  1  0  0.096758  0  0.962066  0  0  0.108546  0  1.020093  0  0  0.111198  0  1.019536  0  0  0.103542  0.106689  0  1.020522  0
H  H21  1  0.78774190  0.86594622  0.52462438  1  0  0.096723  0  0.962091  0  0  0.10853  0  1.020105  0  0  0.111182  0  1.019548  0  0  0.103559  0.106674  0  1.020535  0
H  H22  1  0.85151404  0.41624327  0.57438691  1  0  0.091856  0  0.957554  0  0  0.102111  0  1.018917  0  0  0.10398  0  1.018154  0  0  0.106003  0.1007  0  1.019416  0
H  H23  1  0.14847851  0.58375207  0.42561621  1  0  0.091867  0  0.957532  0  0  0.102138  0  1.018878  0  0  0.104006  0  1.018118  0  0  0.106009  0.100729  0  1.019375  0
C  C24  1  0.69019488  0.28582854  0.27334596  1  0  0.436675  0  3.771653  0  0  0.411688  0  4.025353  0  0  0.427121  0  4.046593  0  0  0.212731  0.401456  0  4.01071  0
C  C25  1  0.30980963  0.71417526  0.72665605  1  0  0.436642  0  3.77173  0  0  0.411644  0  4.025424  0  0  0.427078  0  4.046663  0  0  0.212744  0.401412  0  4.010778  0
C  C26  1  0.27218023  0.40249840  0.26485219  1  0  -0.134651  0  3.769266  0  0  -0.103667  0  4.016178  0  0  -0.112241  0  4.038425  0  0  -0.0259  -0.098242  0  4.001434  0
C  C27  1  0.72782291  0.59750167  0.73514677  1  0  -0.134596  0  3.769204  0  0  -0.103607  0  4.016114  0  0  -0.112183  0  4.038363  0  0  -0.025877  -0.09818  0  4.001365  0
C  C28  1  0.13203204  0.31330350  0.17299451  1  0  -0.085465  0  3.734748  0  0  -0.121761  0  3.989935  0  0  -0.118465  0  4.005652  0  0  -0.087434  -0.123877  0  3.979645  0
C  C29  1  0.86797063  0.68669534  0.82700435  1  0  -0.085619  0  3.734704  0  0  -0.121898  0  3.989908  0  0  -0.118609  0  4.005631  0  0  -0.087479  -0.124016  0  3.97962  0
C  C30  1  0.02428574  0.15520310  0.18812062  1  0  -0.056267  0  3.751493  0  0  -0.032264  0  3.991295  0  0  -0.040822  0  4.013888  0  0  -0.017992  -0.026865  0  3.97629  0
C  C31  1  0.97571170  0.84479830  0.81187877  1  0  -0.056223  0  3.751419  0  0  -0.032239  0  3.991294  0  0  -0.040791  0  4.013887  0  0  -0.017973  -0.026846  0  3.976286  0
C  C32  1  0.05429925  0.08892080  0.29653216  1  0  -0.061671  0  3.709156  0  0  -0.08922  0  3.959229  0  0  -0.087029  0  3.977115  0  0  -0.080123  -0.090486  0  3.947106  0
C  C33  1  0.94569849  0.91107812  0.70346623  1  0  -0.061737  0  3.709309  0  0  -0.089272  0  3.959403  0  0  -0.087082  0  3.977289  0  0  -0.080175  -0.090535  0  3.947277  0
C  C34  1  0.72273850  0.16403131  0.49270733  1  0  -0.137887  0  3.745882  0  0  -0.151164  0  3.994719  0  0  -0.160108  0  4.017569  0  0  -0.090982  -0.14583  0  3.979464  0
C  C35  1  0.27725599  0.83596890  0.50729262  1  0  -0.137929  0  3.745977  0  0  -0.151198  0  3.994804  0  0  -0.160143  0  4.017655  0  0  -0.090975  -0.145868  0  3.979555  0
C  C36  1  0.30194554  0.33740712  0.37301115  1  0  -0.050659  0  3.726966  0  0  -0.079815  0  3.977665  0  0  -0.078141  0  3.998157  0  0  -0.082278  -0.08078  0  3.964076  0
C  C37  1  0.69805079  0.66258810  0.62698691  1  0  -0.050717  0  3.726956  0  0  -0.079879  0  3.977674  0  0  -0.078203  0  3.998167  0  0  -0.082287  -0.080845  0  3.964088  0
C  C38  1  0.77462364  0.39547869  0.37934046  1  0  -0.207044  0  3.683595  0  0  -0.221908  0  3.932117  0  0  -0.23242  0  3.95299  0  0  -0.084478  -0.215225  0  3.918311  0
C  C39  1  0.22537990  0.60452266  0.62066313  1  0  -0.206941  0  3.683534  0  0  -0.22182  0  3.932057  0  0  -0.232331  0  3.952933  0  0  -0.084432  -0.215142  0  3.918246  0
C  C40  1  0.63779978  0.06299622  0.38430255  1  0  0.126216  0  3.705178  0  0  0.095727  0  3.952317  0  0  0.103634  0  3.972834  0  0  0.041219  0.090685  0  3.938513  0
C  C41  1  0.36220106  0.93700760  0.61569730  1  0  0.126198  0  3.705222  0  0  0.095739  0  3.952334  0  0  0.103646  0  3.97285  0  0  0.041213  0.090697  0  3.938528  0
C  C42  1  0.19037945  0.18148316  0.38918885  1  0  -0.068706  0  3.741191  0  0  -0.078521  0  3.991643  0  0  -0.082727  0  4.013205  0  0  -0.088521  -0.075753  0  3.976947  0
C  C43  1  0.80962260  0.81852066  0.61081201  1  0  -0.068568  0  3.741208  0  0  -0.078411  0  3.99166  0  0  -0.082616  0  4.013219  0  0  -0.088497  -0.075646  0  3.97697  0
C  C44  1  0.78898928  0.33358431  0.49022307  1  0  0.023773  0  3.727943  0  0  0.00521  0  3.975796  0  0  0.011067  0  3.993807  0  0  -0.063557  0.001772  0  3.963504  0
C  C45  1  0.21100930  0.66641714  0.50978185  1  0  0.023719  0  3.728082  0  0  0.005162  0  3.975919  0  0  0.011016  0  3.993935  0  0  -0.063575  0.001718  0  3.963643  0
C  C46  1  0.87519015  0.05861595  0.08964840  1  0  0.638046  0  3.902466  0  0  0.580829  0  4.19254  0  0  0.616032  0  4.189826  0  0  0.20587  0.55697  0  4.193606  0
C  C47  1  0.12480928  0.94138418  0.91035112  1  0  0.638159  0  3.902252  0  0  0.580872  0  4.192451  0  0  0.616064  0  4.18975  0  0  0.205905  0.557027  0  4.193495  0
S  S48  1  0.41515709  0.59882902  0.23790871  1  0  1.276119  0  5.663964  0  0  1.18157  0  6.17673  0  0  1.22935  0  6.155928  0  0  0.492144  1.148667  0  6.189778  0
S  S49  1  0.58484602  0.40117107  0.76209206  1  0  1.276106  0  5.664029  0  0  1.181552  0  6.176802  0  0  1.229333  0  6.155998  0  0  0.492131  1.148648  0  6.189848  0
N  N50  1  0.61711346  0.12256090  0.27682055  1  0  -0.382496  0  3.271262  0  0  -0.293708  0  3.539304  0  0  -0.319536  0  3.559123  0  0  -0.345089  -0.276871  0  3.525853  0
N  N51  1  0.38288722  0.87743921  0.72317818  1  0  -0.382469  0  3.271343  0  0  -0.293689  0  3.539392  0  0  -0.319517  0  3.559212  0  0  -0.345096  -0.27685  0  3.525936  0
N  N52  1  0.67872665  0.34130989  0.15744694  1  0  -0.680442  0  3.191596  0  0  -0.619818  0  3.433016  0  0  -0.643134  0  3.430405  0  0  -0.612037  -0.60386  0  3.434587  0
N  N53  1  0.32127693  0.65869143  0.84255394  1  0  -0.680403  0  3.191641  0  0  -0.619644  0  3.433101  0  0  -0.642959  0  3.430492  0  0  -0.611959  -0.603687  0  3.434673  0
O  O54  1  0.30645292  0.70556510  0.22928989  1  0  -0.655089  0  1.95129  0  0  -0.59262  0  2.208897  0  0  -0.616247  0  2.192805  0  0  -0.356431  -0.57598  0  2.219035  0
O  O55  1  0.69354770  0.29443505  0.77071245  1  0  -0.655068  0  1.951349  0  0  -0.592599  0  2.208959  0  0  -0.61623  0  2.192871  0  0  -0.356433  -0.575962  0  2.219095  0
O  O56  1  0.56209133  0.65504936  0.33902668  1  0  -0.652965  0  1.930914  0  0  -0.606745  0  2.178229  0  0  -0.627234  0  2.165667  0  0  -0.343887  -0.592024  0  2.186181  0
O  O57  1  0.43791007  0.34494953  0.66097476  1  0  -0.652959  0  1.930935  0  0  -0.606719  0  2.17822  0  0  -0.627209  0  2.16566  0  0  -0.343883  -0.592004  0  2.186177  0
O  O58  1  0.46815353  0.56183804  0.11825858  1  0  -0.68644  0  2.08482  0  0  -0.619731  0  2.371127  0  0  -0.643646  0  2.35237  0  0  -0.36143  -0.602533  0  2.38316  0
O  O59  1  0.53184836  0.43816207  0.88174208  1  0  -0.686479  0  2.084818  0  0  -0.61976  0  2.37112  0  0  -0.643676  0  2.352363  0  0  -0.361447  -0.602567  0  2.383159  0
O  O60  1  0.81263603  0.14255494  0.01877382  1  0  -0.609789  0  2.146406  0  0  -0.523244  0  2.399865  0  0  -0.55601  0  2.389  0  0  -0.320905  -0.50059  0  2.406435  0
O  O61  1  0.18736588  0.85744515  0.98122503  1  0  -0.609868  0  2.146431  0  0  -0.523267  0  2.399907  0  0  -0.556027  0  2.389047  0  0  -0.320911  -0.500617  0  2.406473  0
O  O62  1  0.82173921  0.90357742  0.08573522  1  0  -0.577428  0  2.086454  0  0  -0.50795  0  2.348674  0  0  -0.538375  0  2.338449  0  0  -0.316386  -0.487056  0  2.354983  0
O  O63  1  0.17826518  0.09642262  0.91426296  1  0  -0.577457  0  2.086307  0  0  -0.507963  0  2.348579  0  0  -0.538386  0  2.338362  0  0  -0.316419  -0.487072  0  2.35487  0
