# generated using pymatgen
data_Zr3H20C44NO18F5
_symmetry_space_group_name_H-M   'P 1'
_cell_length_a   19.17979603
_cell_length_b   19.14633402
_cell_length_c   19.17132080
_cell_angle_alpha   59.67768752
_cell_angle_beta   59.90069433
_cell_angle_gamma   60.02951964
_symmetry_Int_Tables_number   1
_chemical_formula_structural   Zr3H20C44NO18F5
_chemical_formula_sum   'Zr6 H40 C88 N2 O36 F10'
_cell_volume   4963.27497747
_cell_formula_units_Z   2
loop_
 _symmetry_equiv_pos_site_id
 _symmetry_equiv_pos_as_xyz
  1  'x, y, z'
loop_
 _atom_site_type_symbol
 _atom_site_label
 _atom_site_symmetry_multiplicity
 _atom_site_fract_x
 _atom_site_fract_y
 _atom_site_fract_z
 _atom_site_occupancy
 _atom_site_pbe_bader_charge
 _atom_site_pbe_bader_spin_density
 _atom_site_pbe_cm5_charge
 _atom_site_pbe_ddec_charge
 _atom_site_pbe_ddec_spin_density
 _atom_site_pbe_ddec_sum_bond_order
 _atom_site_pbe_magmom
Zr  Zr0  1  0.90685336  0.40784020  0.59211257  1  2.636756  0  1.629904  2.379016  0  2.755784  0
Zr  Zr1  1  0.09319491  0.59154003  0.40843451  1  2.636871  0  1.630318  2.378711  0  2.756176  0
Zr  Zr2  1  0.09149409  0.40612151  0.59378274  1  2.637477  0  1.625852  2.377152  0  2.742234  0
Zr  Zr3  1  0.90857061  0.59318125  0.40671876  1  2.636607  0  1.626147  2.377018  0  2.743098  0
Zr  Zr4  1  0.90789920  0.59180966  0.59234069  1  2.638164  0  1.631029  2.378056  0  2.756491  0
Zr  Zr5  1  0.09213445  0.40763241  0.40811010  1  2.635287  0  1.630691  2.379468  0  2.753875  0
H  H6  1  0.92634035  0.42648512  0.71878315  1  0.604765  0  0.330326  0.420767  0  0.860382  0
H  H7  1  0.92835899  0.71820587  0.42710169  1  0.612794  0  0.330396  0.420457  0  0.861374  0
H  H8  1  0.21762334  0.42628581  0.42864814  1  0.619567  0  0.331165  0.422025  0  0.859293  0
H  H9  1  0.92742990  0.42806997  0.42685856  1  0.614725  0  0.330903  0.421845  0  0.858821  0
H  H10  1  0.45158417  0.61412012  0.04850681  1  0.098502  0  0.111076  0.131527  0  1.003765  0
H  H11  1  0.54865348  0.38535121  0.95231506  1  0.096743  0  0.110427  0.130636  0  1.005321  0
H  H12  1  0.67981246  0.60963275  0.81680390  1  0.112641  0  0.115683  0.124736  0  0.982242  0
H  H13  1  0.55322955  0.61238436  0.94676237  1  0.073105  0  0.105129  0.108281  0  1.00934  0
H  H14  1  0.31693989  0.39341725  0.18016203  1  0.108943  0  0.115614  0.124669  0  0.982285  0
H  H15  1  0.44672188  0.38752969  0.05344082  1  0.068924  0  0.104499  0.10749  0  1.010189  0
H  H16  1  0.11353193  0.95206996  0.38536085  1  0.058447  0  0.110612  0.131253  0  1.004285  0
H  H17  1  0.88565267  0.04829074  0.61410592  1  0.049681  0  0.110833  0.131207  0  1.004502  0
H  H18  1  0.10946404  0.17985091  0.39359982  1  0.077175  0  0.115641  0.124977  0  0.98221  0
H  H19  1  0.11218753  0.05325768  0.38754410  1  0.063321  0  0.104594  0.107515  0  1.010547  0
H  H20  1  0.89369843  0.81651701  0.60984091  1  0.11266  0  0.115878  0.124617  0  0.981668  0
H  H21  1  0.88749454  0.94659676  0.61240975  1  0.067682  0  0.104994  0.108189  0  1.009297  0
H  H22  1  0.45106129  0.04970739  0.38579858  1  0.110463  0  0.111603  0.132331  0  1.002654  0
H  H23  1  0.54974715  0.95028424  0.61387096  1  0.073205  0  0.11143  0.132005  0  1.003598  0
H  H24  1  0.67939293  0.81867006  0.39250080  1  0.11846  0  0.116148  0.126669  0  0.979247  0
H  H25  1  0.55296930  0.94808876  0.38703275  1  0.058412  0  0.105868  0.109902  0  1.008278  0
H  H26  1  0.31833494  0.17848967  0.60997731  1  0.117028  0  0.114659  0.123279  0  0.98306  0
H  H27  1  0.44831513  0.05242161  0.61208148  1  0.068808  0  0.105572  0.10933  0  1.009113  0
H  H28  1  0.88624408  0.61382281  0.95042886  1  0.080105  0  0.111412  0.132172  0  1.003361  0
H  H29  1  0.11357951  0.38576419  0.04985738  1  0.080082  0  0.111569  0.132274  0  1.00313  0
H  H30  1  0.89324498  0.60973459  0.17888007  1  0.090724  0  0.114515  0.123134  0  0.983054  0
H  H31  1  0.88734700  0.61205829  0.05263165  1  0.069157  0  0.10538  0.109231  0  1.009234  0
H  H32  1  0.10953339  0.39227484  0.81902505  1  0.120918  0  0.116122  0.126685  0  0.979719  0
H  H33  1  0.11205973  0.38699583  0.94833211  1  0.063125  0  0.105848  0.109769  0  1.0082  0
H  H34  1  0.11521120  0.82008664  0.17557578  1  0.102598  0  0.11813  0.129632  0  0.983424  0
H  H35  1  0.18036341  0.93250467  0.06144677  1  0.095436  0  0.124523  0.141464  0  0.96889  0
H  H36  1  0.88998741  0.81915619  0.18054859  1  0.159926  0  0.11457  0.129217  0  1.018028  0
H  H37  1  0.88905223  0.17494260  0.82081793  1  0.101729  0  0.117945  0.129651  0  0.983414  0
H  H38  1  0.82562790  0.06074101  0.93322494  1  0.124226  0  0.124517  0.141395  0  0.969718  0
H  H39  1  0.11024580  0.17989673  0.81990970  1  0.127596  0  0.114475  0.128762  0  1.018213  0
H  H40  1  0.45161849  0.38453575  0.61477432  1  0.056486  0  0.110974  0.131429  0  1.004783  0
H  H41  1  0.54919636  0.61445390  0.38486950  1  0.065362  0  0.11101  0.131569  0  1.00322  0
H  H42  1  0.67935146  0.39385720  0.60942605  1  0.080572  0  0.115113  0.124286  0  0.984193  0
H  H43  1  0.55304196  0.38721681  0.61267412  1  0.063691  0  0.104447  0.107731  0  1.010681  0
H  H44  1  0.31723035  0.60891899  0.39435436  1  0.12556  0  0.115155  0.124123  0  0.983993  0
H  H45  1  0.44694361  0.61232600  0.38754613  1  0.066056  0  0.104631  0.10773  0  1.009943  0
C  C46  1  0.76322693  0.50000429  0.73208544  1  1.57597  0  0.234662  0.655554  0  4.110705  0
C  C47  1  0.00468226  0.73161372  0.50042268  1  1.575805  0  0.234793  0.656135  0  4.110355  0
C  C48  1  0.23238608  0.50399387  0.26389287  1  1.572451  0  0.234745  0.655898  0  4.110321  0
C  C49  1  0.99977893  0.26343216  0.50434678  1  1.593239  0  0.234594  0.655573  0  4.110731  0
C  C50  1  0.00089907  0.26141866  0.73423778  1  1.547362  0  0.236715  0.636962  0  4.10426  0
C  C51  1  0.76341960  0.50521654  0.49915057  1  1.578313  0  0.235943  0.657757  0  4.106484  0
C  C52  1  0.00346475  0.73352974  0.26205611  1  1.585942  0  0.237533  0.638499  0  4.103424  0
C  C53  1  0.23221782  0.49855486  0.50580726  1  1.571835  0  0.23478  0.655345  0  4.109272  0
C  C54  1  0.00008708  0.50257923  0.73309594  1  1.579436  0  0.234693  0.655107  0  4.109275  0
C  C55  1  0.23134073  0.26214227  0.50179467  1  1.584268  0  0.234452  0.655116  0  4.109974  0
C  C56  1  0.00466293  0.50135876  0.26264045  1  1.572448  0  0.234329  0.654929  0  4.109256  0
C  C57  1  0.76430530  0.73268645  0.50297070  1  1.577241  0  0.23408  0.654978  0  4.107993  0
C  C58  1  0.31043697  0.50504177  0.18637199  1  0.035498  0  -0.024894  -0.159603  0  3.959507  0
C  C59  1  0.68610308  0.49812346  0.81054040  1  0.100719  0  -0.024372  -0.158342  0  3.95738  0
C  C60  1  0.35137361  0.56592774  0.14644108  1  0.448017  0  0.110368  0.295323  0  4.038516  0
C  C61  1  0.42460765  0.56413661  0.07489986  1  0.015603  0  -0.099327  -0.263516  0  3.972298  0
C  C62  1  0.64644467  0.43594287  0.85183330  1  0.421029  0  0.109354  0.294009  0  4.038777  0
C  C63  1  0.57493773  0.43606017  0.92511273  1  0.040399  0  -0.099391  -0.263935  0  3.973739  0
C  C64  1  0.64970241  0.56098886  0.84786303  1  -0.089798  0  -0.073917  -0.056733  0  3.981591  0
C  C65  1  0.57826786  0.56192910  0.92115600  1  0.011824  0  -0.093601  -0.14986  0  3.982703  0
C  C66  1  0.34783590  0.44125194  0.14996281  1  -0.060227  0  -0.074822  -0.057555  0  3.984304  0
C  C67  1  0.42104473  0.43857532  0.07847314  1  0.022095  0  -0.093661  -0.149868  0  3.983493  0
C  C68  1  0.46131171  0.50036347  0.03881860  1  -0.023929  0  0.002522  0.103948  0  3.988161  0
C  C69  1  0.53867833  0.49945096  0.96155840  1  -0.094393  0  0.002716  0.104608  0  3.988166  0
C  C70  1  0.00516517  0.81019297  0.49836371  1  0.084078  0  -0.024675  -0.160302  0  3.958871  0
C  C71  1  0.99812903  0.18602985  0.50522046  1  0.044972  0  -0.023818  -0.158535  0  3.958824  0
C  C72  1  0.06567032  0.85151792  0.43610868  1  0.383655  0  0.110075  0.295894  0  4.038155  0
C  C73  1  0.06375552  0.92486324  0.43612167  1  0.09957  0  -0.100149  -0.266226  0  3.973225  0
C  C74  1  0.93617928  0.14615986  0.56603280  1  0.419117  0  0.109696  0.294365  0  4.039205  0
C  C75  1  0.93623414  0.07468350  0.56416328  1  0.055691  0  -0.098768  -0.263169  0  3.972859  0
C  C76  1  0.06090508  0.14967121  0.44138549  1  0.005006  0  -0.074999  -0.057839  0  3.984185  0
C  C77  1  0.06180225  0.07826173  0.43860902  1  -0.001732  0  -0.09362  -0.150417  0  3.983655  0
C  C78  1  0.94135752  0.84759863  0.56115080  1  -0.022455  0  -0.074059  -0.055909  0  3.980924  0
C  C79  1  0.93851811  0.92096505  0.56197897  1  -0.011312  0  -0.093569  -0.149883  0  3.981774  0
C  C80  1  0.00016696  0.96137964  0.49946264  1  -0.049339  0  0.002657  0.10482  0  3.987479  0
C  C81  1  0.99937466  0.03863722  0.50036469  1  -0.038276  0  0.002427  0.104852  0  3.987007  0
C  C82  1  0.31023058  0.18555724  0.49919988  1  0.038467  0  -0.025651  -0.161149  0  3.957268  0
C  C83  1  0.68672834  0.81061424  0.50423468  1  0.039846  0  -0.025171  -0.161768  0  3.957554  0
C  C84  1  0.35097696  0.14661657  0.43688050  1  0.441062  0  0.110404  0.296096  0  4.033288  0
C  C85  1  0.42440436  0.07540538  0.43655464  1  0.005374  0  -0.099377  -0.264878  0  3.968638  0
C  C86  1  0.64727150  0.85084378  0.56528000  1  0.418536  0  0.110571  0.296018  0  4.037396  0
C  C87  1  0.57569407  0.92394944  0.56376931  1  0.046963  0  -0.100128  -0.265446  0  3.972027  0
C  C88  1  0.64969385  0.84874583  0.44060010  1  -0.049821  0  -0.074026  -0.054966  0  3.97754  0
C  C89  1  0.57818018  0.92186965  0.43818788  1  0.014232  0  -0.093231  -0.150137  0  3.978826  0
C  C90  1  0.34861597  0.14878993  0.56146080  1  -0.062282  0  -0.076191  -0.058419  0  3.988169  0
C  C91  1  0.42206182  0.07764952  0.56196758  1  -0.062184  0  -0.094163  -0.151549  0  3.98229  0
C  C92  1  0.46172832  0.03862660  0.49954350  1  0.001382  0  0.003295  0.106287  0  3.982809  0
C  C93  1  0.53903003  0.96137539  0.50011792  1  0.000114  0  0.002641  0.104102  0  3.985826  0
C  C94  1  0.99852504  0.50399359  0.81092672  1  0.038303  0  -0.024926  -0.160599  0  3.956538  0
C  C95  1  0.00503712  0.49892099  0.18593382  1  0.081417  0  -0.025943  -0.162155  0  3.957604  0
C  C96  1  0.93672442  0.56510834  0.85107482  1  0.401961  0  0.110389  0.296227  0  4.035462  0
C  C97  1  0.93671986  0.56368851  0.92413183  1  0.088861  0  -0.099607  -0.265555  0  3.971247  0
C  C98  1  0.06561137  0.43670136  0.14688438  1  0.378197  0  0.110241  0.296984  0  4.034671  0
C  C99  1  0.06375381  0.43647384  0.07560723  1  0.101309  0  -0.099336  -0.264952  0  3.969848  0
C  C100  1  0.94119788  0.56125732  0.14913303  1  -0.003885  0  -0.076172  -0.058267  0  3.987008  0
C  C101  1  0.93844750  0.56188316  0.07789233  1  -0.023574  0  -0.093738  -0.151027  0  3.981703  0
C  C102  1  0.06107128  0.44040970  0.84905565  1  -0.018272  0  -0.074001  -0.055796  0  3.978725  0
C  C103  1  0.06189991  0.43809330  0.92211832  1  0.01069  0  -0.093501  -0.149669  0  3.979183  0
C  C104  1  0.99961695  0.50006654  0.96156483  1  -0.105484  0  0.00275  0.103714  0  3.986014  0
C  C105  1  0.00023671  0.49949394  0.03882569  1  -0.051361  0  0.003175  0.106125  0  3.983447  0
C  C106  1  0.06557911  0.84981172  0.14728145  1  -0.013141  0  -0.065042  -0.119534  0  3.891422  0
C  C107  1  0.06492192  0.92408328  0.07446866  1  0.005227  0  -0.002068  0.081748  0  4.038028  0
C  C108  1  0.12942595  0.96195082  0.03500420  1  0.072847  0  -0.064572  -0.155734  0  3.940408  0
C  C109  1  0.93802532  0.84966601  0.14942996  1  -0.04904  0  -0.070547  -0.119656  0  3.90304  0
C  C110  1  0.93455530  0.92442108  0.07716635  1  0.029695  0  0.001129  0.031063  0  4.00507  0
C  C111  1  0.87205261  0.96431972  0.03579874  1  0.153271  0  0.079433  0.025297  0  3.928702  0
C  C112  1  0.93726760  0.14663585  0.85052970  1  -0.003521  0  -0.06529  -0.11991  0  3.893485  0
C  C113  1  0.93646876  0.07380163  0.92478595  1  0.06551  0  -0.001603  0.082051  0  4.040986  0
C  C114  1  0.87358464  0.03429585  0.96264614  1  -0.006995  0  -0.064393  -0.154889  0  3.942348  0
C  C115  1  0.06280578  0.14879290  0.85040936  1  0.030776  0  -0.070795  -0.118749  0  3.901707  0
C  C116  1  0.06379893  0.07651735  0.92515748  1  0.002088  0  0.000804  0.029878  0  4.004584  0
C  C117  1  0.12778857  0.03512466  0.96506083  1  0.20075  0  0.080063  0.028157  0  3.926568  0
C  C118  1  0.00275769  0.81287255  0.18396824  1  -0.025286  0  -0.01163  -0.025877  0  3.978359  0
C  C119  1  0.99925038  0.96266646  0.03807521  1  0.038046  0  0.012243  0.012688  0  3.899865  0
C  C120  1  0.00034477  0.18332335  0.81359200  1  -0.014938  0  -0.011385  -0.02622  0  3.978188  0
C  C121  1  0.99996797  0.03740655  0.96336483  1  -0.040902  0  0.012385  0.012693  0  3.900531  0
C  C122  1  0.31049701  0.49697135  0.50636249  1  0.016221  0  -0.024785  -0.159285  0  3.954653  0
C  C123  1  0.68615249  0.50586941  0.49749824  1  -0.01885  0  -0.024482  -0.160146  0  3.956292  0
C  C124  1  0.35152640  0.43485735  0.56703664  1  0.458227  0  0.110662  0.295604  0  4.038444  0
C  C125  1  0.42473006  0.43533658  0.56480609  1  0.008183  0  -0.099258  -0.263978  0  3.969808  0
C  C126  1  0.64663800  0.56660947  0.43532547  1  0.513587  0  0.10991  0.295128  0  4.038965  0
C  C127  1  0.57519716  0.56445627  0.43570372  1  -0.00019  0  -0.099363  -0.26372  0  3.96815  0
C  C128  1  0.64946540  0.44170630  0.56072249  1  0.005302  0  -0.075904  -0.058549  0  3.986656  0
C  C129  1  0.57814477  0.43862037  0.56192556  1  -0.00143  0  -0.093992  -0.151024  0  3.984701  0
C  C130  1  0.34805237  0.56024423  0.44214697  1  -0.050493  0  -0.075998  -0.05842  0  3.983816  0
C  C131  1  0.42124994  0.56154107  0.43898283  1  -0.021846  0  -0.094301  -0.150956  0  3.98279  0
C  C132  1  0.46148160  0.49906076  0.50070425  1  0.063712  0  0.002625  0.10432  0  3.983938  0
C  C133  1  0.53875465  0.50038591  0.49939157  1  -0.034249  0  0.002782  0.104791  0  3.984399  0
N  N134  1  0.19546566  0.07069064  0.93201507  1  0.357509  0  0.056243  0.520458  0  4.205046  0
N  N135  1  0.80187401  0.93121128  0.07147889  1  0.383274  0  0.05692  0.523763  0  4.203007  0
O  O136  1  0.79416838  0.44187496  0.70012900  1  -1.168016  0  -0.361943  -0.622322  0  2.317798  0
O  O137  1  0.06387004  0.69955492  0.44237676  1  -1.171515  0  -0.361957  -0.621944  0  2.318066  0
O  O138  1  0.20109409  0.56241165  0.29558417  1  -1.167083  0  -0.361986  -0.622651  0  2.318426  0
O  O139  1  0.94103967  0.29501082  0.56287006  1  -1.182344  0  -0.362153  -0.622942  0  2.318007  0
O  O140  1  0.06046997  0.29158853  0.70393087  1  -1.177092  0  -0.35243  -0.61204  0  2.277807  0
O  O141  1  0.79537671  0.56411071  0.44048618  1  -1.177115  0  -0.360897  -0.622638  0  2.312832  0
O  O142  1  0.94405457  0.70321016  0.29218731  1  -1.1828  0  -0.352916  -0.613029  0  2.279231  0
O  O143  1  0.20008957  0.43984167  0.56467876  1  -1.170322  0  -0.36009  -0.621502  0  2.312708  0
O  O144  1  0.94205172  0.56156281  0.70068781  1  -1.174567  0  -0.361194  -0.620324  0  2.319704  0
O  O145  1  0.19973939  0.29432204  0.44298888  1  -1.173666  0  -0.360725  -0.620463  0  2.319627  0
O  O146  1  0.06292674  0.44257897  0.29478195  1  -1.169549  0  -0.36078  -0.62004  0  2.318069  0
O  O147  1  0.79567315  0.70020795  0.56204461  1  -1.170497  0  -0.361044  -0.620622  0  2.318149  0
O  O148  1  0.20170670  0.29086182  0.56214632  1  -1.175709  0  -0.350944  -0.616416  0  2.259003  0
O  O149  1  0.94511235  0.56157218  0.29151272  1  -1.181921  0  -0.350587  -0.616037  0  2.259805  0
O  O150  1  0.79466274  0.70467678  0.44193505  1  -1.178895  0  -0.349388  -0.613685  0  2.259814  0
O  O151  1  0.05875945  0.44149895  0.70514881  1  -1.18098  0  -0.349754  -0.614302  0  2.259706  0
O  O152  1  0.94133921  0.29200935  0.70447030  1  -1.168143  0  -0.34328  -0.604811  0  2.273119  0
O  O153  1  0.20358949  0.55834796  0.44516148  1  -1.176464  0  -0.350001  -0.612846  0  2.267426  0
O  O154  1  0.06218145  0.70380054  0.29265126  1  -1.175418  0  -0.343906  -0.60523  0  2.273215  0
O  O155  1  0.79292733  0.44451799  0.55890549  1  -1.179625  0  -0.35048  -0.613753  0  2.265965  0
O  O156  1  0.05933649  0.29336239  0.44406271  1  -1.183428  0  -0.349151  -0.611127  0  2.268692  0
O  O157  1  0.79354547  0.55918322  0.70321092  1  -1.179479  0  -0.349134  -0.611617  0  2.269517  0
O  O158  1  0.94407538  0.70273994  0.55964290  1  -1.180877  0  -0.348904  -0.61158  0  2.268433  0
O  O159  1  0.20322790  0.44367348  0.29381924  1  -1.179585  0  -0.349098  -0.611427  0  2.268014  0
O  O160  1  0.94799731  0.44867042  0.44756085  1  -1.244424  0  -0.694723  -1.069022  0  2.369348  0
O  O161  1  0.15575143  0.44699116  0.44924923  1  -1.247332  0  -0.694932  -1.069132  0  2.369772  0
O  O162  1  0.94908296  0.65609192  0.44733792  1  -1.242928  0  -0.694071  -1.069138  0  2.366654  0
O  O163  1  0.94748024  0.44674411  0.65666742  1  -1.235531  0  -0.694084  -1.069472  0  2.36489  0
O  O164  1  0.03835593  0.53706527  0.53904472  1  -1.199159  0  -0.791769  -1.150006  0  2.13091  0
O  O165  1  0.88549865  0.53846164  0.53765364  1  -1.196078  0  -0.791998  -1.150185  0  2.131396  0
O  O166  1  0.03874467  0.53860094  0.38509546  1  -1.195794  0  -0.790981  -1.151518  0  2.125883  0
O  O167  1  0.03754934  0.38454414  0.53913903  1  -1.196494  0  -0.790834  -1.151781  0  2.125791  0
O  O168  1  0.17558617  0.14977784  0.90723831  1  -0.433666  0  -0.137122  -0.335581  0  1.881422  0
O  O169  1  0.26789878  0.01906574  0.93256093  1  -0.443132  0  -0.147872  -0.346437  0  1.851432  0
O  O170  1  0.76730245  0.90676659  0.15055901  1  -0.461851  0  -0.137434  -0.336535  0  1.881487  0
O  O171  1  0.78069092  0.93136774  0.01995277  1  -0.442842  0  -0.147614  -0.347076  0  1.849429  0
F  F172  1  0.32093404  0.63031389  0.17620209  1  -0.627285  0  -0.100874  -0.139969  0  1.343884  0
F  F173  1  0.67654486  0.37180820  0.82184696  1  -0.628102  0  -0.10116  -0.140244  0  1.343137  0
F  F174  1  0.12967659  0.82148906  0.37199835  1  -0.628077  0  -0.101365  -0.140453  0  1.34323  0
F  F175  1  0.87248786  0.17590100  0.63042342  1  -0.631284  0  -0.100885  -0.139744  0  1.343737  0
F  F176  1  0.32014251  0.17698741  0.37320573  1  -0.627238  0  -0.100289  -0.139128  0  1.343126  0
F  F177  1  0.67766312  0.81994690  0.62943514  1  -0.625253  0  -0.100102  -0.138952  0  1.345024  0
F  F178  1  0.87309266  0.62923716  0.82014708  1  -0.630645  0  -0.100238  -0.139213  0  1.343208  0
F  F179  1  0.12977176  0.37302609  0.17723360  1  -0.628492  0  -0.100122  -0.139433  0  1.343439  0
F  F180  1  0.32120004  0.37054671  0.63156159  1  -0.626256  0  -0.099066  -0.137775  0  1.345059  0
F  F181  1  0.67684362  0.63109304  0.37104698  1  -0.62693  0  -0.098635  -0.137435  0  1.345564  0
