# generated using pymatgen
data_CdH6C6(SN5)2
_symmetry_space_group_name_H-M   'P 1'
_cell_length_a   5.53707723
_cell_length_b   9.97337864
_cell_length_c   10.95606603
_cell_angle_alpha   101.89095996
_cell_angle_beta   89.99960631
_cell_angle_gamma   89.99974846
_symmetry_Int_Tables_number   1
_chemical_formula_structural   CdH6C6(SN5)2
_chemical_formula_sum   'Cd2 H12 C12 S4 N20'
_cell_volume   592.04781371
_cell_formula_units_Z   2
loop_
 _symmetry_equiv_pos_site_id
 _symmetry_equiv_pos_as_xyz
  1  'x, y, z'
loop_
 _atom_site_type_symbol
 _atom_site_label
 _atom_site_symmetry_multiplicity
 _atom_site_fract_x
 _atom_site_fract_y
 _atom_site_fract_z
 _atom_site_occupancy
 _atom_site_hle17_bader_spin_density
 _atom_site_hle17_ddec_charge
 _atom_site_hle17_ddec_spin_density
 _atom_site_hle17_ddec_sum_bond_order
 _atom_site_hle17_magmom
 _atom_site_hse06_10hf_bader_spin_density
 _atom_site_hse06_10hf_ddec_charge
 _atom_site_hse06_10hf_ddec_spin_density
 _atom_site_hse06_10hf_ddec_sum_bond_order
 _atom_site_hse06_10hf_magmom
 _atom_site_hse06_bader_spin_density
 _atom_site_hse06_ddec_charge
 _atom_site_hse06_ddec_spin_density
 _atom_site_hse06_ddec_sum_bond_order
 _atom_site_hse06_magmom
 _atom_site_pbe_bader_spin_density
 _atom_site_pbe_cm5_charge
 _atom_site_pbe_ddec_charge
 _atom_site_pbe_ddec_spin_density
 _atom_site_pbe_ddec_sum_bond_order
 _atom_site_pbe_magmom
Cd  Cd0  1  0.49998802  0.50000108  0.49999567  1  0  0.958633  0  2.012729  0  0  0.7883  0  2.478681  0  0  0.831725  0  2.443504  0  0  0.734971  0.758005  0  2.502109  0
Cd  Cd1  1  0.99999772  0.99999290  0.99999504  1  0  0.958653  0  2.012737  0  0  0.788316  0  2.478683  0  0  0.831744  0  2.4435  0  0  0.734972  0.758023  0  2.502111  0
H  H2  1  0.97941563  0.54303745  0.28370013  1  0  0.121677  0  0.96203  0  0  0.120456  0  1.044272  0  0  0.123808  0  1.039956  0  0  0.140486  0.11811  0  1.047079  0
H  H3  1  0.47943810  0.95694689  0.21629399  1  0  0.12173  0  0.961925  0  0  0.120431  0  1.044228  0  0  0.123771  0  1.039927  0  0  0.140521  0.11809  0  1.047035  0
H  H4  1  0.02056041  0.45695546  0.71629308  1  0  0.121668  0  0.962132  0  0  0.120447  0  1.044366  0  0  0.123786  0  1.040069  0  0  0.140501  0.1181  0  1.047175  0
H  H5  1  0.52057046  0.04304804  0.78370600  1  0  0.121691  0  0.962205  0  0  0.120397  0  1.044483  0  0  0.123738  0  1.040184  0  0  0.140491  0.11805  0  1.047289  0
H  H6  1  0.14080037  0.61757426  0.95837648  1  0  0.109324  0  0.929691  0  0  0.118605  0  0.998819  0  0  0.119754  0  0.998559  0  0  0.12082  0.117955  0  0.998599  0
H  H7  1  0.64082624  0.88243748  0.54162978  1  0  0.109217  0  0.929842  0  0  0.118569  0  0.998926  0  0  0.119722  0  0.998669  0  0  0.120811  0.117921  0  0.998694  0
H  H8  1  0.85918832  0.38242377  0.04161863  1  0  0.109246  0  0.929693  0  0  0.118573  0  0.998832  0  0  0.119727  0  0.998576  0  0  0.120822  0.117925  0  0.998611  0
H  H9  1  0.35919857  0.11758203  0.45837675  1  0  0.109248  0  0.929741  0  0  0.118473  0  0.998891  0  0  0.119625  0  0.998626  0  0  0.120786  0.117822  0  0.998677  0
H  H10  1  0.88571586  0.63968525  0.05870769  1  0  0.099946  0  0.938413  0  0  0.105479  0  1.015638  0  0  0.106455  0  1.015342  0  0  0.115723  0.104797  0  1.015775  0
H  H11  1  0.38575020  0.86032198  0.44129752  1  0  0.099987  0  0.938412  0  0  0.105494  0  1.015708  0  0  0.106502  0  1.015386  0  0  0.115712  0.104778  0  1.015874  0
H  H12  1  0.11426379  0.36031382  0.94128579  1  0  0.099976  0  0.9384  0  0  0.10555  0  1.015607  0  0  0.106531  0  1.015314  0  0  0.115734  0.104868  0  1.015749  0
H  H13  1  0.61428725  0.13969648  0.55871428  1  0  0.099918  0  0.938446  0  0  0.105424  0  1.015638  0  0  0.106402  0  1.015338  0  0  0.115695  0.104744  0  1.015776  0
C  C14  1  0.15783256  0.55961608  0.24838201  1  0  0.167492  0  3.613219  0  0  0.086127  0  3.883702  0  0  0.098523  0  3.896244  0  0  0.176023  0.078267  0  3.875017  0
C  C15  1  0.65786236  0.94036539  0.25162267  1  0  0.16741  0  3.613528  0  0  0.08619  0  3.883804  0  0  0.098574  0  3.896394  0  0  0.176005  0.078335  0  3.875109  0
C  C16  1  0.84214348  0.44037375  0.75161244  1  0  0.167488  0  3.613367  0  0  0.086144  0  3.88368  0  0  0.098523  0  3.896275  0  0  0.175986  0.078291  0  3.874981  0
C  C17  1  0.34217329  0.05962640  0.74839041  1  0  0.167486  0  3.613144  0  0  0.086175  0  3.88359  0  0  0.098557  0  3.896181  0  0  0.176013  0.078329  0  3.874882  0
C  C18  1  0.04107211  0.57369778  0.02702329  1  0  -0.036893  0  3.587389  0  0  -0.114132  0  3.847189  0  0  -0.111064  0  3.857126  0  0  -0.044345  -0.115822  0  3.840023  0
C  C19  1  0.54112056  0.92630775  0.47298000  1  0  -0.036763  0  3.587387  0  0  -0.114227  0  3.847281  0  0  -0.111204  0  3.857223  0  0  -0.044365  -0.115895  0  3.840136  0
C  C20  1  0.95890935  0.42630333  0.97297150  1  0  -0.036768  0  3.587487  0  0  -0.11423  0  3.847424  0  0  -0.1112  0  3.857404  0  0  -0.044355  -0.115927  0  3.840274  0
C  C21  1  0.45891870  0.07371278  0.52702854  1  0  -0.036953  0  3.587676  0  0  -0.113971  0  3.847147  0  0  -0.110903  0  3.857078  0  0  -0.044314  -0.115664  0  3.839983  0
C  C22  1  0.00106515  0.33074955  0.43063937  1  0  0.297259  0  4.002506  0  0  0.276941  0  4.303476  0  0  0.299437  0  4.317203  0  0  0.141583  0.26153  0  4.294198  0
C  C23  1  0.50106300  0.16924328  0.06936384  1  0  0.29716  0  4.003091  0  0  0.276822  0  4.304089  0  0  0.299317  0  4.317808  0  0  0.141572  0.261411  0  4.294811  0
C  C24  1  0.99891993  0.66924950  0.56935776  1  0  0.297215  0  4.003382  0  0  0.276876  0  4.304367  0  0  0.299372  0  4.318087  0  0  0.141537  0.26146  0  4.295097  0
C  C25  1  0.49892569  0.83075374  0.93062833  1  0  0.297253  0  4.002889  0  0  0.276921  0  4.303867  0  0  0.299423  0  4.317591  0  0  0.141588  0.261508  0  4.294586  0
S  S26  1  0.75551620  0.29344312  0.34918656  1  0  -0.309238  0  2.216086  0  0  -0.27923  0  2.563168  0  0  -0.29701  0  2.559529  0  0  -0.136915  -0.266934  0  2.565115  0
S  S27  1  0.25552302  0.20654353  0.15082283  1  0  -0.309261  0  2.216255  0  0  -0.279213  0  2.563283  0  0  -0.296992  0  2.559634  0  0  -0.13694  -0.266917  0  2.565233  0
S  S28  1  0.24443998  0.70654977  0.65081121  1  0  -0.309117  0  2.216408  0  0  -0.27909  0  2.563464  0  0  -0.296875  0  2.559827  0  0  -0.13681  -0.266793  0  2.565404  0
S  S29  1  0.74447650  0.79344523  0.84917872  1  0  -0.309272  0  2.216275  0  0  -0.279212  0  2.563283  0  0  -0.297002  0  2.559648  0  0  -0.1369  -0.266911  0  2.565218  0
N  N30  1  0.36565835  0.56920773  0.31006032  1  0  -0.277073  0  3.119053  0  0  -0.219734  0  3.418825  0  0  -0.237659  0  3.435945  0  0  -0.222275  -0.207532  0  3.40671  0
N  N31  1  0.86568185  0.93077908  0.18994013  1  0  -0.277274  0  3.119225  0  0  -0.219965  0  3.419026  0  0  -0.237892  0  3.436131  0  0  -0.222319  -0.207778  0  3.406951  0
N  N32  1  0.63432311  0.43078824  0.68993622  1  0  -0.277188  0  3.118869  0  0  -0.219864  0  3.418687  0  0  -0.237789  0  3.435796  0  0  -0.222329  -0.207675  0  3.40661  0
N  N33  1  0.13433032  0.06921483  0.81005966  1  0  -0.277166  0  3.119074  0  0  -0.219841  0  3.418881  0  0  -0.237767  0  3.435991  0  0  -0.222307  -0.207652  0  3.406795  0
N  N34  1  0.53989337  0.59290732  0.22895209  1  0  -0.068024  0  2.944847  0  0  -0.067291  0  3.259657  0  0  -0.065744  0  3.271073  0  0  -0.07963  -0.067902  0  3.251364  0
N  N35  1  0.03991356  0.90708797  0.27104743  1  0  -0.067882  0  2.944975  0  0  -0.067175  0  3.259845  0  0  -0.065619  0  3.271259  0  0  -0.079575  -0.067787  0  3.251553  0
N  N36  1  0.46009351  0.40709479  0.77104654  1  0  -0.06786  0  2.944775  0  0  -0.067129  0  3.259612  0  0  -0.065584  0  3.271037  0  0  -0.0796  -0.067743  0  3.251326  0
N  N37  1  0.96010041  0.09291004  0.72895224  1  0  -0.06784  0  2.944649  0  0  -0.067101  0  3.259466  0  0  -0.065554  0  3.270888  0  0  -0.079549  -0.067712  0  3.251177  0
N  N38  1  0.44499567  0.59815073  0.12197241  1  0  -0.072599  0  2.867117  0  0  -0.091063  0  3.158463  0  0  -0.089432  0  3.168546  0  0  -0.060253  -0.091509  0  3.151335  0
N  N39  1  0.94501850  0.90185215  0.37803176  1  0  -0.072578  0  2.86712  0  0  -0.091067  0  3.158476  0  0  -0.089434  0  3.168558  0  0  -0.060257  -0.091501  0  3.151336  0
N  N40  1  0.55499122  0.40184832  0.87802380  1  0  -0.07275  0  2.867258  0  0  -0.091262  0  3.15861  0  0  -0.089635  0  3.168694  0  0  -0.060301  -0.091708  0  3.151484  0
N  N41  1  0.05500451  0.09815711  0.62197189  1  0  -0.072613  0  2.867159  0  0  -0.091163  0  3.158596  0  0  -0.089533  0  3.168682  0  0  -0.060296  -0.091615  0  3.151477  0
N  N42  1  0.20435065  0.57736389  0.13216340  1  0  0.03369  0  3.508556  0  0  0.15987  0  3.689447  0  0  0.14828  0  3.711712  0  0  -0.11318  0.165945  0  3.676874  0
N  N43  1  0.70437711  0.92263897  0.36783427  1  0  0.033782  0  3.508961  0  0  0.160044  0  3.689818  0  0  0.148442  0  3.71212  0  0  -0.113169  0.166119  0  3.677237  0
N  N44  1  0.79564165  0.42263207  0.86783587  1  0  0.033784  0  3.50858  0  0  0.160084  0  3.689448  0  0  0.148538  0  3.711641  0  0  -0.113084  0.166161  0  3.676875  0
N  N45  1  0.29564951  0.07737240  0.63215974  1  0  0.03371  0  3.508671  0  0  0.159935  0  3.68944  0  0  0.148361  0  3.711667  0  0  -0.113137  0.16601  0  3.676868  0
N  N46  1  0.17968415  0.35734028  0.49043505  1  0  -0.544901  0  2.914129  0  0  -0.490188  0  3.196446  0  0  -0.511203  0  3.203017  0  0  -0.405503  -0.475906  0  3.191815  0
N  N47  1  0.67969023  0.14266097  0.00958652  1  0  -0.544802  0  2.91449  0  0  -0.49007  0  3.196764  0  0  -0.511106  0  3.203383  0  0  -0.405509  -0.47579  0  3.19213  0
N  N48  1  0.82031176  0.64266382  0.50957583  1  0  -0.544957  0  2.914565  0  0  -0.490248  0  3.19689  0  0  -0.511265  0  3.203457  0  0  -0.405596  -0.475973  0  3.192266  0
N  N49  1  0.32031652  0.85733492  0.99042643  1  0  -0.544868  0  2.914271  0  0  -0.490178  0  3.196619  0  0  -0.511171  0  3.203132  0  0  -0.405539  -0.475905  0  3.191996  0
