# generated using pymatgen
data_CuH13C14N2O5
_symmetry_space_group_name_H-M   'P 1'
_cell_length_a   7.56036687
_cell_length_b   9.12430965
_cell_length_c   10.31238808
_cell_angle_alpha   76.35330666
_cell_angle_beta   77.55713368
_cell_angle_gamma   85.74920722
_symmetry_Int_Tables_number   1
_chemical_formula_structural   CuH13C14N2O5
_chemical_formula_sum   'Cu2 H26 C28 N4 O10'
_cell_volume   674.85689501
_cell_formula_units_Z   2
loop_
 _symmetry_equiv_pos_site_id
 _symmetry_equiv_pos_as_xyz
  1  'x, y, z'
loop_
 _atom_site_type_symbol
 _atom_site_label
 _atom_site_symmetry_multiplicity
 _atom_site_fract_x
 _atom_site_fract_y
 _atom_site_fract_z
 _atom_site_occupancy
 _atom_site_hle17_ddec_charge
 _atom_site_hle17_ddec_spin_density
 _atom_site_hle17_ddec_sum_bond_order
 _atom_site_hle17_magmom
 _atom_site_hse06_10hf_ddec_charge
 _atom_site_hse06_10hf_ddec_spin_density
 _atom_site_hse06_10hf_ddec_sum_bond_order
 _atom_site_hse06_10hf_magmom
 _atom_site_hse06_ddec_charge
 _atom_site_hse06_ddec_spin_density
 _atom_site_hse06_ddec_sum_bond_order
 _atom_site_hse06_magmom
 _atom_site_pbe_cm5_charge
 _atom_site_pbe_ddec_charge
 _atom_site_pbe_ddec_spin_density
 _atom_site_pbe_ddec_sum_bond_order
 _atom_site_pbe_magmom
Cu  Cu0  1  0.25177017  0.24151358  0.73008181  1  0.859569  0.719885  1.791584  0.5  0.835025  0.80227  2.18229  0.614  0.923046  0.879329  2.11414  0.698  0.744904  0.782188  0.747285  2.229641  0.559
Cu  Cu1  1  0.74821305  0.75848335  0.26991675  1  0.859578  -0.719904  1.791613  -0.5  0.834969  -0.802284  2.182437  -0.614  0.923004  -0.87934  2.114195  -0.698  0.744871  0.782114  -0.747295  2.229801  -0.559
H  H2  1  0.75774422  0.16818177  0.46439161  1  0.107061  -0.000526  0.955546  -0.001  0.119242  -0.000174  1.022726  0.0  0.12145  -0.000138  1.022138  0.0  0.098322  0.11783  -0.000178  1.023089  0.0
H  H3  1  0.24227699  0.83184160  0.53560374  1  0.107058  0.000526  0.955421  0.001  0.119196  0.000173  1.02267  0.0  0.121405  0.000138  1.022084  0.0  0.098291  0.117798  0.000178  1.023024  0.0
H  H4  1  0.69113003  0.98222015  0.49377617  1  0.125496  0.000248  0.954128  0.0  0.137503  0.000224  1.016456  0.0  0.140337  0.000107  1.015487  0.0  0.103175  0.135525  0.000324  1.017372  0.001
H  H5  1  0.30889048  0.01781000  0.50620666  1  0.125404  -0.00025  0.953909  0.0  0.137455  -0.000224  1.016216  0.0  0.140289  -0.000107  1.015256  0.0  0.103172  0.13548  -0.000325  1.017136  -0.001
H  H6  1  0.93013576  0.90284400  0.64286526  1  0.075447  -0.000351  0.924848  0.0  0.083932  3.7e-05  0.989165  0.0  0.085674  3.1e-05  0.988685  0.0  0.096947  0.082627  0.000119  0.989764  0.0
H  H7  1  0.06986854  0.09714223  0.35712636  1  0.075509  0.000352  0.924738  0.0  0.083995  -3.7e-05  0.989038  0.0  0.08574  -3.1e-05  0.988549  0.0  0.096906  0.082689  -0.000118  0.989637  0.0
H  H8  1  0.64138573  0.36001003  0.60439730  1  0.090727  0.001115  0.951464  0.002  0.099493  0.001077  1.013344  0.002  0.101395  0.000793  1.012254  0.001  0.121752  0.097507  0.001298  1.015251  0.002
H  H9  1  0.35863488  0.63998852  0.39560242  1  0.090744  -0.001114  0.951587  -0.002  0.099515  -0.001077  1.01341  -0.002  0.101414  -0.000793  1.012324  -0.001  0.121768  0.097531  -0.001298  1.015312  -0.002
H  H10  1  0.79363645  0.60048523  0.58223835  1  0.133207  0.000567  0.960942  0.001  0.141618  0.000543  1.020779  0.001  0.145683  0.000406  1.018899  0.0  0.114294  0.138487  0.000587  1.022461  0.001
H  H11  1  0.20634819  0.39951343  0.41777638  1  0.133139  -0.000569  0.960691  -0.001  0.141571  -0.000543  1.020575  -0.001  0.145638  -0.000406  1.01869  0.0  0.114224  0.138438  -0.000587  1.022267  -0.001
H  H12  1  0.61201782  0.80548296  0.67962556  1  0.097493  8.6e-05  0.958863  0.0  0.112681  -5.5e-05  1.013074  0.0  0.114461  -5.7e-05  1.012076  0.0  0.112756  0.110814  -1.9e-05  1.015072  0.0
H  H13  1  0.38796998  0.19451351  0.32036569  1  0.097449  -8.5e-05  0.959091  0.0  0.112638  5.5e-05  1.013318  0.0  0.114417  5.7e-05  1.012322  0.0  0.112728  0.110784  1.9e-05  1.015285  0.0
H  H14  1  0.28386105  0.77153905  0.77793680  1  0.120426  0.000777  0.934431  0.001  0.132594  0.000772  0.988947  0.001  0.136116  0.000537  0.987427  0.0  0.117325  0.129832  0.000744  0.990628  0.001
H  H15  1  0.71612987  0.22847492  0.22205660  1  0.120459  -0.000778  0.934536  -0.001  0.132603  -0.000772  0.989062  -0.001  0.136127  -0.000537  0.987527  0.0  0.117339  0.129847  -0.000744  0.990742  -0.001
H  H16  1  0.00220728  0.72803065  0.84338184  1  0.117243  0.000619  0.935059  0.001  0.130186  0.000567  0.989629  0.001  0.133374  0.000394  0.988618  0.001  0.116542  0.127334  0.000937  0.991264  0.001
H  H17  1  0.99780212  0.27196082  0.15664648  1  0.117238  -0.000617  0.935175  -0.001  0.130181  -0.000567  0.989723  -0.001  0.133364  -0.000394  0.98872  -0.001  0.116599  0.127297  -0.000937  0.991403  -0.001
H  H18  1  0.69217716  0.64276432  0.95184666  1  0.11062  0.000142  0.968401  0.0  0.121568  -5.2e-05  1.027232  0.0  0.124112  -6.3e-05  1.025001  0.0  0.107403  0.119317  -5e-05  1.029309  0.0
H  H19  1  0.30782107  0.35723137  0.04818536  1  0.11059  -0.000143  0.968605  0.0  0.121493  5.3e-05  1.027502  0.0  0.124036  6.3e-05  1.025277  0.0  0.107406  0.119323  5e-05  1.029472  0.0
H  H20  1  0.61381972  0.37185993  0.96338590  1  0.108472  0.000438  0.955294  0.0  0.118663  0.000442  1.014312  0.0  0.121392  0.000324  1.014039  0.0  0.108751  0.116638  0.000573  1.014669  0.001
H  H21  1  0.38618788  0.62813749  0.03662722  1  0.108493  -0.000437  0.95509  0.0  0.118723  -0.000442  1.014088  0.0  0.121455  -0.000324  1.013807  0.0  0.108788  0.116695  -0.000573  1.014436  -0.001
H  H22  1  0.85729169  0.20366067  0.86707695  1  0.099955  0.001223  0.934709  0.002  0.10864  0.001136  0.994199  0.002  0.111213  0.000832  0.991658  0.001  0.125973  0.106309  0.001345  0.996548  0.002
H  H23  1  0.14267532  0.79632996  0.13290879  1  0.099971  -0.001222  0.935041  -0.002  0.108656  -0.001135  0.994495  -0.002  0.111229  -0.000832  0.991955  -0.001  0.125993  0.106317  -0.001344  0.996862  -0.002
H  H24  1  0.47022285  0.11721140  0.89941132  1  0.394365  -4.1e-05  0.927095  0.0  0.360045  -2.6e-05  0.999018  0.0  0.371565  -6.5e-05  0.982029  0.0  0.269418  0.351862  2e-05  1.01108  0.0
H  H25  1  0.52976759  0.88281414  0.10060009  1  0.394492  4.1e-05  0.926903  0.0  0.360067  2.6e-05  0.998971  0.0  0.371598  6.4e-05  0.981985  0.0  0.269437  0.351874  -2e-05  1.011035  0.0
H  H26  1  0.33931407  0.08606772  0.04458909  1  0.418467  -1.9e-05  0.871701  0.0  0.399289  -3.6e-05  0.916537  0.0  0.409711  -2.5e-05  0.901145  0.0  0.289569  0.391998  -5.2e-05  0.927378  0.0
H  H27  1  0.66068385  0.91394939  0.95541670  1  0.418375  1.9e-05  0.871852  0.0  0.399223  3.7e-05  0.916635  0.0  0.409648  2.5e-05  0.901239  0.0  0.28952  0.391927  5.1e-05  0.927483  0.0
C  C28  1  0.60483579  0.08685559  0.66222725  1  0.697866  -0.001306  3.830974  -0.004  0.652904  0.001926  4.142043  0.0  0.689218  0.001124  4.134978  0.0  0.211326  0.627246  0.00254  4.148585  0.001
C  C29  1  0.39516496  0.91314643  0.33778510  1  0.697945  0.001303  3.831171  0.004  0.652793  -0.001927  4.142516  0.0  0.689115  -0.00113  4.135442  0.0  0.211218  0.627134  -0.002543  4.149074  -0.001
C  C30  1  0.74655052  0.06050608  0.54029480  1  -0.300009  0.009997  3.690883  0.01  -0.343841  0.005521  3.938572  0.006  -0.350543  0.003696  3.946534  0.004  -0.172233  -0.339099  0.00708  3.933067  0.007
C  C31  1  0.25344988  0.93950624  0.45968015  1  -0.300042  -0.009988  3.691366  -0.01  -0.343807  -0.005511  3.939056  -0.006  -0.350518  -0.003689  3.947016  -0.004  -0.172212  -0.3391  -0.007074  3.933581  -0.007
C  C32  1  0.93445035  0.01046076  0.56699940  1  -0.089635  0.013169  3.612101  0.014  -0.098697  0.007056  3.847758  0.008  -0.104505  0.004684  3.86222  0.006  -0.08745  -0.094139  0.008907  3.836752  0.01
C  C33  1  0.06555639  0.98953264  0.43300949  1  -0.089636  -0.013178  3.612243  -0.014  -0.098573  -0.007058  3.847712  -0.008  -0.104383  -0.004686  3.862184  -0.006  -0.087409  -0.094007  -0.008912  3.836703  -0.01
C  C34  1  0.01232778  0.13061483  0.61926360  1  0.641299  -0.005147  3.846494  -0.009  0.601816  -0.000268  4.160324  -0.003  0.637263  -0.000851  4.156063  -0.003  0.193082  0.577597  0.000197  4.162371  -0.003
C  C35  1  0.98768471  0.86936915  0.38072735  1  0.641419  0.00515  3.846189  0.009  0.601965  0.000276  4.159942  0.003  0.637407  0.000854  4.15569  0.003  0.193161  0.577743  -0.000197  4.161983  0.003
C  C36  1  0.56594879  0.45293956  0.64199868  1  0.14318  -0.004978  3.678999  -0.006  0.113581  -0.000499  3.935506  -0.002  0.12291  -0.001352  3.95449  -0.003  0.05411  0.107682  0.000119  3.923723  -0.001
C  C37  1  0.43403405  0.54706106  0.35798481  1  0.143028  0.004952  3.679272  0.006  0.113509  0.000501  3.935694  0.002  0.122828  0.00135  3.954691  0.003  0.054051  0.107612  -0.00012  3.923906  0.001
C  C38  1  0.65081138  0.58676346  0.63067308  1  -0.107256  0.006772  3.688916  0.007  -0.124465  0.003578  3.944222  0.004  -0.131982  0.003222  3.962609  0.004  -0.072646  -0.120398  0.003863  3.932933  0.004
C  C39  1  0.34918759  0.41323348  0.36931190  1  -0.10714  -0.006741  3.688442  -0.007  -0.124434  -0.003582  3.943831  -0.004  -0.131947  -0.003219  3.96222  -0.004  -0.072569  -0.120372  -0.003863  3.932543  -0.004
C  C40  1  0.54885575  0.70137871  0.68231925  1  0.021326  -0.005857  3.687962  -0.005  0.002338  -0.002107  3.934702  -0.002  0.00864  -0.002303  3.949751  -0.002  -0.058148  -0.00195  -0.001947  3.925728  -0.002
C  C41  1  0.45115292  0.29860679  0.31766805  1  0.021309  0.005828  3.688101  0.005  0.002268  0.00211  3.934951  0.002  0.008567  0.002299  3.950002  0.002  -0.058224  -0.002019  0.001947  3.925983  0.002
C  C42  1  0.36541683  0.68156450  0.73921113  1  -0.135955  0.004073  3.688182  0.004  -0.151474  0.00195  3.931877  0.002  -0.157578  0.001799  3.949753  0.002  -0.069727  -0.147305  0.00222  3.919925  0.002
C  C43  1  0.63457919  0.31843562  0.26077572  1  -0.13598  -0.004046  3.688214  -0.004  -0.151431  -0.001954  3.93187  -0.002  -0.157529  -0.001796  3.949745  -0.002  -0.069734  -0.147265  -0.002221  3.919922  -0.002
C  C44  1  0.28836113  0.54480111  0.74551446  1  0.170332  -0.001937  3.76187  -0.002  0.166658  0.000833  4.00511  0.0  0.174214  -0.000164  4.02587  -0.001  0.118951  0.162034  0.00157  3.990744  0.001
C  C45  1  0.71162974  0.45520808  0.25448252  1  0.170533  0.001913  3.761652  0.002  0.166815  -0.00083  4.004928  0.0  0.17437  0.000161  4.025693  0.001  0.119064  0.162193  -0.001571  3.99056  -0.001
C  C46  1  0.09673908  0.50987719  0.80339570  1  0.178266  -0.00335  3.761801  -0.004  0.176881  0.000737  4.001731  0.0  0.185569  -0.000484  4.021941  -0.001  0.124154  0.170722  0.001708  3.988547  0.001
C  C47  1  0.90327155  0.49011783  0.19659594  1  0.177883  0.003373  3.76162  0.004  0.176473  -0.000739  4.001581  0.0  0.185152  0.000482  4.021788  0.001  0.123996  0.170317  -0.001711  3.988388  -0.001
C  C48  1  0.96662109  0.61240308  0.85081932  1  -0.128616  0.006968  3.678226  0.007  -0.147674  0.003084  3.924114  0.003  -0.154553  0.002778  3.943988  0.003  -0.071655  -0.143245  0.003131  3.911291  0.003
C  C49  1  0.03339167  0.38758292  0.14918497  1  -0.128457  -0.006991  3.678303  -0.007  -0.147477  -0.003082  3.924176  -0.003  -0.154354  -0.002776  3.944048  -0.003  -0.071643  -0.143035  -0.00313  3.911395  -0.003
C  C50  1  0.79167421  0.56368072  0.91091604  1  -0.006173  -0.007393  3.717407  -0.007  -0.025406  -0.002343  3.966581  -0.002  -0.021054  -0.002644  3.98527  -0.003  -0.067831  -0.02804  -0.002172  3.953965  -0.002
C  C51  1  0.20831949  0.43630798  0.08910869  1  -0.006162  0.007413  3.717494  0.007  -0.025394  0.002341  3.966742  0.002  -0.021045  0.002641  3.985431  0.003  -0.067804  -0.028077  0.00217  3.954083  0.002
C  C52  1  0.74928538  0.41497459  0.91922529  1  -0.121596  0.008869  3.729317  0.009  -0.134408  0.004127  3.981679  0.005  -0.142578  0.003701  4.004062  0.004  -0.079568  -0.12887  0.004431  3.966265  0.005
C  C53  1  0.25070421  0.58502696  0.08079333  1  -0.121633  -0.008895  3.729178  -0.009  -0.134488  -0.004126  3.981569  -0.005  -0.142657  -0.0037  4.003955  -0.004  -0.079613  -0.128945  -0.004429  3.96617  -0.005
C  C54  1  0.88351676  0.31959020  0.86683682  1  0.148385  -0.006933  3.664774  -0.008  0.118417  -0.001051  3.918681  -0.002  0.128721  -0.002033  3.935884  -0.003  0.058253  0.111952  -0.000325  3.907598  -0.002
C  C55  1  0.11647304  0.68041469  0.13315891  1  0.148323  0.006948  3.665413  0.008  0.118318  0.001051  3.919302  0.002  0.128609  0.00203  3.936502  0.003  0.058148  0.111856  0.000323  3.908235  0.002
N  N56  1  0.39017900  0.43168719  0.69945150  1  -0.334536  0.067264  3.308893  0.082  -0.28851  0.051672  3.599453  0.067  -0.317409  0.044459  3.619978  0.061  -0.341057  -0.270903  0.055874  3.587275  0.07
N  N57  1  0.60980486  0.56830826  0.30053938  1  -0.334428  -0.067259  3.309105  -0.082  -0.288389  -0.051687  3.599627  -0.067  -0.317293  -0.044466  3.620148  -0.061  -0.341013  -0.270777  -0.055888  3.587446  -0.07
N  N58  1  0.05284761  0.36632531  0.81149290  1  -0.322656  0.080358  3.339989  0.098  -0.277689  0.05833  3.630027  0.076  -0.308004  0.049161  3.650308  0.067  -0.340139  -0.259898  0.062852  3.618936  0.079
N  N59  1  0.94714546  0.63367096  0.18849969  1  -0.322568  -0.080367  3.339995  -0.098  -0.277482  -0.058323  3.629919  -0.076  -0.307771  -0.049149  3.650154  -0.067  -0.340047  -0.259685  -0.062844  3.618826  -0.079
O  O60  1  0.45461349  0.14210269  0.62935931  1  -0.615259  0.078101  2.103765  0.101  -0.582211  0.049591  2.397203  0.07  -0.624  0.038972  2.38924  0.058  -0.337237  -0.55357  0.05654  2.403847  0.077
O  O61  1  0.54539977  0.85788000  0.37062197  1  -0.615041  -0.078074  2.103999  -0.101  -0.582076  -0.049573  2.397789  -0.07  -0.623825  -0.038961  2.389699  -0.058  -0.337125  -0.553429  -0.056519  2.404438  -0.077
O  O62  1  0.63773051  0.05841562  0.78080887  1  -0.638153  0.000586  1.967113  0.001  -0.578527  0.000343  2.184783  0.001  -0.605283  -0.000238  2.174279  0.0  -0.312545  -0.55951  0.000933  2.192816  0.001
O  O63  1  0.36225301  0.94160148  0.21921034  1  -0.638321  -0.000585  1.966998  -0.001  -0.578501  -0.000346  2.184709  -0.001  -0.605255  0.000236  2.174209  0.0  -0.312536  -0.559485  -0.000932  2.192738  -0.001
O  O64  1  0.99753133  0.26653693  0.56118333  1  -0.610829  0.00183  1.896521  0.004  -0.579943  0.000533  2.126176  0.002  -0.605962  -0.000477  2.118933  0.0  -0.328958  -0.561101  0.001139  2.130436  0.002
O  O65  1  0.00250751  0.73344604  0.43881435  1  -0.610808  -0.001841  1.896059  -0.004  -0.579988  -0.00054  2.125719  -0.002  -0.606009  0.000474  2.118486  0.0  -0.329  -0.561139  -0.001144  2.129971  -0.002
O  O66  1  0.09675876  0.08035570  0.71893904  1  -0.59407  0.114187  1.973502  0.147  -0.581545  0.068102  2.256071  0.096  -0.625461  0.051834  2.247986  0.078  -0.340841  -0.552054  0.077727  2.261621  0.106
O  O67  1  0.90325020  0.91964007  0.28105660  1  -0.594242  -0.114167  1.973577  -0.147  -0.581689  -0.0681  2.256109  -0.096  -0.62561  -0.051827  2.248003  -0.078  -0.340868  -0.552199  -0.077719  2.261663  -0.106
O  O68  1  0.36874935  0.16194063  0.95877995  1  -0.854426  -0.000666  1.806431  0.0  -0.81869  -0.000585  1.966559  0.0  -0.837169  -0.000838  1.931629  0.0  -0.606942  -0.805448  -0.00029  1.991266  0.0
O  O69  1  0.63124748  0.83806862  0.04122703  1  -0.854514  0.000665  1.806352  0.0  -0.818693  0.00058  1.966608  0.0  -0.837201  0.000836  1.931626  0.0  -0.606909  -0.805406  0.000289  1.991346  0.0
