# generated using pymatgen
data_Cd3H22(C15O8)2
_symmetry_space_group_name_H-M   'P 1'
_cell_length_a   7.23340180
_cell_length_b   13.94008034
_cell_length_c   18.50600515
_cell_angle_alpha   89.99989720
_cell_angle_beta   90.00134612
_cell_angle_gamma   91.04467350
_symmetry_Int_Tables_number   1
_chemical_formula_structural   Cd3H22(C15O8)2
_chemical_formula_sum   'Cd6 H44 C60 O32'
_cell_volume   1865.72810066
_cell_formula_units_Z   2
loop_
 _symmetry_equiv_pos_site_id
 _symmetry_equiv_pos_as_xyz
  1  'x, y, z'
loop_
 _atom_site_type_symbol
 _atom_site_label
 _atom_site_symmetry_multiplicity
 _atom_site_fract_x
 _atom_site_fract_y
 _atom_site_fract_z
 _atom_site_occupancy
 _atom_site_pbe_bader_charge
 _atom_site_pbe_bader_spin_density
 _atom_site_pbe_cm5_charge
 _atom_site_pbe_ddec_charge
 _atom_site_pbe_ddec_spin_density
 _atom_site_pbe_ddec_sum_bond_order
 _atom_site_pbe_magmom
Cd  Cd0  1  0.31964069  0.82843864  0.44855762  1  1.313288  0  0.776393  1.030881  0  2.065158  0
Cd  Cd1  1  0.18033905  0.17156612  0.94855704  1  1.313366  0  0.77637  1.030804  0  2.065206  0
Cd  Cd2  1  0.68032831  0.17156062  0.55144119  1  1.31323  0  0.776352  1.030771  0  2.065131  0
Cd  Cd3  1  0.81966886  0.82843282  0.05144555  1  1.313312  0  0.776349  1.03079  0  2.065335  0
Cd  Cd4  1  0.99996520  0.99999347  0.50000003  1  1.32669  0  0.782131  1.04753  0  2.131525  0
Cd  Cd5  1  0.49999759  0.99999862  0.00000113  1  1.326579  0  0.782153  1.04757  0  2.13129  0
H  H6  1  0.18657019  0.00866014  0.72238183  1  0.120271  0  0.108399  0.119474  0  1.00271  0
H  H7  1  0.31344134  0.99134528  0.22239532  1  0.120037  0  0.108404  0.119489  0  1.002909  0
H  H8  1  0.81344809  0.99133597  0.27761913  1  0.120427  0  0.108419  0.119458  0  1.002757  0
H  H9  1  0.68655130  0.00865899  0.77761807  1  0.120202  0  0.108412  0.119471  0  1.002763  0
H  H10  1  0.26119656  0.81020782  0.89771756  1  0.083671  0  0.106246  0.110136  0  1.034842  0
H  H11  1  0.23882274  0.18981320  0.39772631  1  0.083436  0  0.106188  0.110028  0  1.03474  0
H  H12  1  0.73884342  0.18979125  0.10228286  1  0.083304  0  0.106232  0.110177  0  1.034829  0
H  H13  1  0.76116774  0.81019337  0.60228601  1  0.08373  0  0.106268  0.11013  0  1.034869  0
H  H14  1  0.28243935  0.71109825  0.67753722  1  0.10578  0  0.112197  0.118396  0  0.997747  0
H  H15  1  0.21758705  0.28889748  0.17753878  1  0.10578  0  0.112236  0.118468  0  0.997854  0
H  H16  1  0.71755859  0.28889988  0.32246104  1  0.105814  0  0.112166  0.118344  0  0.997846  0
H  H17  1  0.78244237  0.71110371  0.82246651  1  0.104745  0  0.112255  0.118523  0  0.997965  0
H  H18  1  0.49187031  0.69099286  0.90333439  1  0.097084  0  0.098842  0.106044  0  1.029369  0
H  H19  1  0.00814007  0.30901424  0.40332314  1  0.097472  0  0.098786  0.106  0  1.029348  0
H  H20  1  0.50814641  0.30900262  0.09666388  1  0.097329  0  0.098841  0.105983  0  1.029364  0
H  H21  1  0.99186586  0.69099279  0.59667998  1  0.097358  0  0.098776  0.105951  0  1.029466  0
H  H22  1  0.53410434  0.52468728  0.94603041  1  0.089061  0  0.106642  0.108738  0  1.014638  0
H  H23  1  0.96594476  0.47531553  0.44602881  1  0.088641  0  0.106646  0.108761  0  1.014812  0
H  H24  1  0.46591102  0.47530322  0.05397001  1  0.08877  0  0.106632  0.108724  0  1.01487  0
H  H25  1  0.03406370  0.52469570  0.55397216  1  0.088815  0  0.106663  0.108747  0  1.014856  0
H  H26  1  0.14114086  0.42161074  0.78822623  1  0.086499  0  0.107247  0.111783  0  0.992594  0
H  H27  1  0.35885055  0.57839964  0.28821900  1  0.086291  0  0.107206  0.111707  0  0.992565  0
H  H28  1  0.85884399  0.57838533  0.21177204  1  0.086615  0  0.107254  0.111771  0  0.99275  0
H  H29  1  0.64113856  0.42160702  0.71177116  1  0.086463  0  0.107263  0.111798  0  0.992549  0
H  H30  1  0.11481498  0.58629318  0.73905992  1  0.076828  0  0.095697  0.093529  0  1.063141  0
H  H31  1  0.38516610  0.41371854  0.23904966  1  0.076701  0  0.095733  0.093634  0  1.063207  0
H  H32  1  0.88517513  0.41370690  0.26093996  1  0.076879  0  0.095731  0.093577  0  1.063189  0
H  H33  1  0.61484160  0.58628476  0.76095023  1  0.07674  0  0.095729  0.093624  0  1.063158  0
H  H34  1  0.63587824  0.89211745  0.51996040  1  0.654085  0  0.287007  0.385419  0  0.959781  0
H  H35  1  0.86411186  0.10788439  0.01996084  1  0.654191  0  0.287041  0.38553  0  0.959607  0
H  H36  1  0.36408645  0.10788136  0.48003354  1  0.654018  0  0.286971  0.385418  0  0.959767  0
H  H37  1  0.13589604  0.89211963  0.98004391  1  0.654113  0  0.287011  0.38543  0  0.959737  0
H  H38  1  0.72586798  0.82929974  0.45957707  1  0.626038  0  0.29352  0.398957  0  0.92532  0
H  H39  1  0.77411547  0.17069858  0.95957660  1  0.625947  0  0.293511  0.398981  0  0.925256  0
H  H40  1  0.27410685  0.17071073  0.54041201  1  0.625897  0  0.293477  0.398843  0  0.925427  0
H  H41  1  0.22591277  0.82930342  0.04042599  1  0.625661  0  0.293475  0.398968  0  0.925219  0
H  H42  1  0.98020211  0.75686545  0.43465308  1  0.617945  0  0.276001  0.371865  0  0.986077  0
H  H43  1  0.51979848  0.24312088  0.93466218  1  0.617909  0  0.275997  0.371783  0  0.986221  0
H  H44  1  0.01977921  0.24313302  0.56534627  1  0.617931  0  0.275905  0.371807  0  0.986182  0
H  H45  1  0.48021533  0.75686899  0.06533609  1  0.617885  0  0.275991  0.371867  0  0.986098  0
H  H46  1  0.95566341  0.85687278  0.38440065  1  0.607224  0  0.318237  0.404319  0  0.875099  0
H  H47  1  0.54433710  0.14312728  0.88440237  1  0.607296  0  0.318287  0.404403  0  0.874956  0
H  H48  1  0.04430795  0.14311981  0.61559438  1  0.607383  0  0.318155  0.404278  0  0.875107  0
H  H49  1  0.45568194  0.85687675  0.11559103  1  0.607448  0  0.318118  0.404115  0  0.875135  0
C  C50  1  0.23125861  0.86143287  0.69201396  1  -0.045985  0  -0.018231  -0.040088  0  3.98747  0
C  C51  1  0.26876103  0.13856982  0.19202130  1  -0.045561  0  -0.018154  -0.040106  0  3.987684  0
C  C52  1  0.76873953  0.13856597  0.30798755  1  -0.046177  0  -0.018249  -0.040035  0  3.9874  0
C  C53  1  0.73125334  0.86142726  0.80798994  1  -0.046162  0  -0.018186  -0.040016  0  3.987369  0
C  C54  1  0.21242429  0.93634325  0.74135355  1  -0.011158  0  -0.071056  -0.087721  0  3.914899  0
C  C55  1  0.28757402  0.06365433  0.24136373  1  -0.011427  0  -0.071047  -0.08758  0  3.915355  0
C  C56  1  0.78756719  0.06365674  0.25864742  1  -0.011134  0  -0.071147  -0.087896  0  3.915  0
C  C57  1  0.71242608  0.93634149  0.75864751  1  -0.01086  0  -0.071068  -0.087779  0  3.914878  0
C  C58  1  0.22728832  0.91884177  0.81547981  1  -0.039004  0  -0.022919  -0.04474  0  4.004997  0
C  C59  1  0.27272452  0.08115785  0.31548718  1  -0.038781  0  -0.02289  -0.044808  0  4.005047  0
C  C60  1  0.77273541  0.08116413  0.18451900  1  -0.039401  0  -0.02282  -0.044596  0  4.004789  0
C  C61  1  0.72726638  0.91884001  0.68451973  1  -0.03943  0  -0.022959  -0.044839  0  4.004952  0
C  C62  1  0.25697226  0.82537772  0.84002492  1  -0.029207  0  -0.072698  -0.11793  0  3.88983  0
C  C63  1  0.24304393  0.17463258  0.34002019  1  -0.029387  0  -0.072545  -0.117817  0  3.889282  0
C  C64  1  0.74305794  0.17462125  0.15996956  1  -0.029381  0  -0.072732  -0.117935  0  3.889814  0
C  C65  1  0.75695771  0.82536894  0.65997916  1  -0.029195  0  -0.072586  -0.117809  0  3.88958  0
C  C66  1  0.27496326  0.74928013  0.79109763  1  0.002165  0  -0.001125  0.069747  0  3.989702  0
C  C67  1  0.22504536  0.25073133  0.29108682  1  0.002791  0  -0.001203  0.069867  0  3.990021  0
C  C68  1  0.72505110  0.25071695  0.20889739  1  0.002332  0  -0.001106  0.069713  0  3.989715  0
C  C69  1  0.77496330  0.74927554  0.70891199  1  0.001854  0  -0.001194  0.069845  0  3.989836  0
C  C70  1  0.26494455  0.76852916  0.71679306  1  -0.029707  0  -0.06404  -0.111274  0  3.884848  0
C  C71  1  0.23507927  0.23147691  0.21679043  1  -0.030133  0  -0.064083  -0.111288  0  3.885459  0
C  C72  1  0.73506276  0.23147272  0.28320466  1  -0.029768  0  -0.064068  -0.111282  0  3.88482  0
C  C73  1  0.76493626  0.76852444  0.78321540  1  -0.028783  0  -0.064083  -0.111366  0  3.885333  0
C  C74  1  0.20858628  0.88145326  0.61306221  1  1.568775  0  0.215324  0.594626  0  4.185393  0
C  C75  1  0.29143335  0.11854067  0.11306484  1  1.567798  0  0.215217  0.594211  0  4.186234  0
C  C76  1  0.79138877  0.11854778  0.38693660  1  1.569559  0  0.215206  0.594456  0  4.185925  0
C  C77  1  0.70859355  0.88145127  0.88693991  1  1.569542  0  0.215108  0.594376  0  4.185835  0
C  C78  1  0.21077984  0.00120552  0.86589966  1  1.490114  0  0.20786  0.584002  0  4.164697  0
C  C79  1  0.28920875  0.99880873  0.36590217  1  1.490653  0  0.207862  0.583974  0  4.165019  0
C  C80  1  0.78924488  0.99879380  0.13410023  1  1.490615  0  0.207991  0.584166  0  4.164474  0
C  C81  1  0.71074517  0.00119655  0.63410636  1  1.490447  0  0.207924  0.584188  0  4.164899  0
C  C82  1  0.29979919  0.65060135  0.81801925  1  -0.004092  0  -0.005679  0.065255  0  3.998841  0
C  C83  1  0.20019875  0.34940429  0.31801258  1  -0.004218  0  -0.005698  0.065135  0  3.998891  0
C  C84  1  0.70020462  0.34939278  0.18197685  1  -0.003484  0  -0.005706  0.065217  0  3.99897  0
C  C85  1  0.79981404  0.65059724  0.68198947  1  -0.004062  0  -0.005715  0.065089  0  3.998704  0
C  C86  1  0.41585402  0.63227370  0.87721287  1  -0.050099  0  -0.08943  -0.130364  0  3.964037  0
C  C87  1  0.08416418  0.36773360  0.37720810  1  -0.050301  0  -0.089364  -0.130223  0  3.963928  0
C  C88  1  0.58416054  0.36772409  0.12278377  1  -0.050448  0  -0.089387  -0.130194  0  3.963914  0
C  C89  1  0.91585135  0.63226775  0.62279287  1  -0.050196  0  -0.08934  -0.130136  0  3.963952  0
C  C90  1  0.43950248  0.53888550  0.90171690  1  0.006464  0  -0.0798  -0.084007  0  3.966454  0
C  C91  1  0.06053184  0.46111790  0.40171843  1  0.007136  0  -0.079809  -0.084027  0  3.966672  0
C  C92  1  0.56050485  0.46111131  0.09827812  1  0.006315  0  -0.079816  -0.084088  0  3.966651  0
C  C93  1  0.93948740  0.53888684  0.59828308  1  0.006785  0  -0.079794  -0.083979  0  3.966914  0
C  C94  1  0.33889329  0.46279736  0.87032945  1  -0.066048  0  -0.016364  -0.038342  0  3.980495  0
C  C95  1  0.16112088  0.53720730  0.37032518  1  -0.066074  0  -0.016387  -0.038626  0  3.980896  0
C  C96  1  0.66110445  0.53720006  0.12966558  1  -0.065816  0  -0.016424  -0.038346  0  3.980651  0
C  C97  1  0.83888642  0.46279965  0.62966822  1  -0.066162  0  -0.016406  -0.038453  0  3.980543  0
C  C98  1  0.22066595  0.48079783  0.81199122  1  -0.01428  0  -0.078865  -0.079578  0  3.964183  0
C  C99  1  0.27933527  0.51920615  0.31198723  1  -0.014402  0  -0.078811  -0.079256  0  3.964208  0
C  C100  1  0.77932495  0.51920003  0.18800543  1  -0.014324  0  -0.078889  -0.079576  0  3.964537  0
C  C101  1  0.72066304  0.48079847  0.68800779  1  -0.014064  0  -0.078834  -0.079467  0  3.964089  0
C  C102  1  0.20536367  0.57327953  0.78491454  1  -0.065992  0  -0.089317  -0.126731  0  3.967223  0
C  C103  1  0.29464276  0.42672554  0.28490527  1  -0.065676  0  -0.089352  -0.126911  0  3.967325  0
C  C104  1  0.79463407  0.42671789  0.21508318  1  -0.066291  0  -0.089293  -0.126751  0  3.967364  0
C  C105  1  0.70537121  0.57327519  0.71509299  1  -0.066072  0  -0.089394  -0.126945  0  3.967473  0
C  C106  1  0.35076910  0.36345765  0.89975400  1  1.546228  0  0.21874  0.585209  0  4.177643  0
C  C107  1  0.14923750  0.63654679  0.39974640  1  1.54606  0  0.218805  0.585369  0  4.177334  0
C  C108  1  0.64923491  0.63653719  0.10024427  1  1.545873  0  0.218861  0.58537  0  4.177583  0
C  C109  1  0.85076199  0.36345704  0.60025079  1  1.545794  0  0.218701  0.585312  0  4.177407  0
O  O110  1  0.24457374  0.81591899  0.56793699  1  -1.161622  0  -0.318117  -0.548449  0  2.260732  0
O  O111  1  0.25544312  0.18407217  0.06793342  1  -1.161232  0  -0.318129  -0.548306  0  2.261051  0
O  O112  1  0.75541381  0.18408704  0.43205750  1  -1.161682  0  -0.318114  -0.548314  0  2.260829  0
O  O113  1  0.74458594  0.81591745  0.93206593  1  -1.161656  0  -0.318028  -0.548368  0  2.260832  0
O  O114  1  0.61100521  0.83503818  0.48849107  1  -1.246615  0  -0.591187  -0.75256  0  2.083372  0
O  O115  1  0.88898410  0.16496341  0.98849248  1  -1.246621  0  -0.59118  -0.752615  0  2.083231  0
O  O116  1  0.38896807  0.16496659  0.51149639  1  -1.246422  0  -0.591071  -0.752386  0  2.083429  0
O  O117  1  0.11103807  0.83504187  0.01151606  1  -1.246343  0  -0.591151  -0.752547  0  2.083318  0
O  O118  1  0.96295326  0.83712341  0.43492644  1  -1.226267  0  -0.560577  -0.809397  0  2.096842  0
O  O119  1  0.53704731  0.16287306  0.93492918  1  -1.226384  0  -0.560563  -0.809348  0  2.096852  0
O  O120  1  0.03700283  0.16287449  0.56506913  1  -1.22623  0  -0.560473  -0.809296  0  2.096864  0
O  O121  1  0.46297683  0.83712412  0.06506476  1  -1.226325  0  -0.560433  -0.809128  0  2.097073  0
O  O122  1  0.14983616  0.96535971  0.59733467  1  -1.155109  0  -0.337227  -0.577439  0  2.325597  0
O  O123  1  0.35017430  0.03463045  0.09734529  1  -1.154654  0  -0.337124  -0.57727  0  2.326012  0
O  O124  1  0.85008611  0.03463673  0.40266954  1  -1.155893  0  -0.337032  -0.57727  0  2.325683  0
O  O125  1  0.64986201  0.96535509  0.90266649  1  -1.155877  0  -0.33712  -0.577318  0  2.325728  0
O  O126  1  0.19194569  0.08489217  0.84113790  1  -1.128129  0  -0.310587  -0.520885  0  2.169691  0
O  O127  1  0.30805648  0.91512771  0.34114271  1  -1.128464  0  -0.310645  -0.520879  0  2.169581  0
O  O128  1  0.80808451  0.91510680  0.15886307  1  -1.128582  0  -0.310556  -0.520874  0  2.169551  0
O  O129  1  0.69189840  0.08488113  0.65886636  1  -1.128466  0  -0.310555  -0.520945  0  2.169767  0
O  O130  1  0.21723462  0.98706488  0.93566778  1  -1.171652  0  -0.341326  -0.637295  0  2.360209  0
O  O131  1  0.28271738  0.01293366  0.43566659  1  -1.17194  0  -0.341419  -0.637436  0  2.360646  0
O  O132  1  0.78276136  0.01293627  0.06433480  1  -1.171387  0  -0.341466  -0.637541  0  2.36047  0
O  O133  1  0.71721310  0.98706225  0.56433654  1  -1.171268  0  -0.341465  -0.637426  0  2.360116  0
O  O134  1  0.50137947  0.33815534  0.93014195  1  -1.161937  0  -0.320558  -0.524193  0  2.191532  0
O  O135  1  0.99862601  0.66184517  0.43013461  1  -1.161841  0  -0.320506  -0.524206  0  2.19151  0
O  O136  1  0.49862121  0.66184262  0.06986172  1  -1.161891  0  -0.320487  -0.524216  0  2.191517  0
O  O137  1  0.00138658  0.33815565  0.56987338  1  -1.161875  0  -0.320339  -0.524203  0  2.19154  0
O  O138  1  0.20671139  0.30988670  0.89256610  1  -1.147795  0  -0.330374  -0.551188  0  2.241631  0
O  O139  1  0.29328839  0.69012542  0.39256166  1  -1.147825  0  -0.330401  -0.551239  0  2.241378  0
O  O140  1  0.79329322  0.69010521  0.10742568  1  -1.147309  0  -0.330492  -0.551301  0  2.241716  0
O  O141  1  0.70670638  0.30988668  0.60742850  1  -1.147444  0  -0.330396  -0.551171  0  2.241468  0
