# generated using pymatgen
data_ZnH5C6(NO)3
_symmetry_space_group_name_H-M   'P 1'
_cell_length_a   10.12445193
_cell_length_b   15.75571255
_cell_length_c   15.75564775
_cell_angle_alpha   115.56013727
_cell_angle_beta   102.35635693
_cell_angle_gamma   102.35656424
_symmetry_Int_Tables_number   1
_chemical_formula_structural   ZnH5C6(NO)3
_chemical_formula_sum   'Zn6 H30 C36 N18 O18'
_cell_volume   2076.70207679
_cell_formula_units_Z   6
loop_
 _symmetry_equiv_pos_site_id
 _symmetry_equiv_pos_as_xyz
  1  'x, y, z'
loop_
 _atom_site_type_symbol
 _atom_site_label
 _atom_site_symmetry_multiplicity
 _atom_site_fract_x
 _atom_site_fract_y
 _atom_site_fract_z
 _atom_site_occupancy
 _atom_site_pbe_bader_charge
 _atom_site_pbe_bader_spin_density
 _atom_site_pbe_cm5_charge
 _atom_site_pbe_ddec_charge
 _atom_site_pbe_ddec_spin_density
 _atom_site_pbe_ddec_sum_bond_order
 _atom_site_pbe_magmom
Zn  Zn0  1  0.19134132  0.62042554  0.32289850  1  1.258959  0  0.721194  0.757906  0  2.459252  0
Zn  Zn1  1  0.86859784  0.67725123  0.29766248  1  1.258119  0  0.72132  0.758357  0  2.458518  0
Zn  Zn2  1  0.57098634  0.70237103  0.37966193  1  1.263213  0  0.722029  0.758691  0  2.458822  0
Zn  Zn3  1  0.07098603  0.37966330  0.70237024  1  1.263199  0  0.722065  0.758762  0  2.458876  0
Zn  Zn4  1  0.69134882  0.32289809  0.62042738  1  1.259038  0  0.721208  0.757972  0  2.45911  0
Zn  Zn5  1  0.36860027  0.29766368  0.67725180  1  1.258133  0  0.721293  0.758318  0  2.458534  0
H  H6  1  0.09384693  0.30786938  0.96929586  1  0.514273  0  0.305953  0.283179  0  0.991733  0
H  H7  1  0.12466356  0.03073029  0.33853009  1  0.52596  0  0.304721  0.286053  0  0.98677  0
H  H8  1  0.78613058  0.66149698  0.69222279  1  0.528899  0  0.306026  0.282161  0  0.992393  0
H  H9  1  0.28613084  0.69222614  0.66150118  1  0.528943  0  0.305981  0.282111  0  0.992488  0
H  H10  1  0.59385208  0.96929628  0.30787133  1  0.514331  0  0.30589  0.282982  0  0.991729  0
H  H11  1  0.62465277  0.33853650  0.03073401  1  0.525851  0  0.304727  0.286081  0  0.986599  0
H  H12  1  0.04617144  0.15948146  0.81821252  1  0.060923  0  0.127774  0.126247  0  0.935439  0
H  H13  1  0.22819250  0.18174807  0.34116954  1  0.088678  0  0.127677  0.126647  0  0.933743  0
H  H14  1  0.88681986  0.65898018  0.84069619  1  0.094984  0  0.126948  0.125188  0  0.933976  0
H  H15  1  0.38682395  0.84069616  0.65897983  1  0.095036  0  0.126939  0.125201  0  0.933976  0
H  H16  1  0.54617186  0.81821209  0.15947948  1  0.060922  0  0.127778  0.126264  0  0.935412  0
H  H17  1  0.72818753  0.34117071  0.18175282  1  0.088522  0  0.127672  0.126641  0  0.9337  0
H  H18  1  0.23391057  0.17730573  0.84918636  1  0.113368  0  0.12055  0.11813  0  0.972323  0
H  H19  1  0.38482255  0.15055464  0.32793905  1  0.115276  0  0.120577  0.118911  0  0.972917  0
H  H20  1  0.05673780  0.67205884  0.82279213  1  0.108751  0  0.120045  0.117672  0  0.971687  0
H  H21  1  0.55673863  0.82278948  0.67205959  1  0.108698  0  0.120075  0.117765  0  0.971732  0
H  H22  1  0.73391214  0.84918463  0.17730489  1  0.11333  0  0.120574  0.118189  0  0.972306  0
H  H23  1  0.88481145  0.32793443  0.15055068  1  0.115468  0  0.120567  0.118908  0  0.972922  0
H  H24  1  0.11079223  0.41829109  0.12431764  1  0.175523  0  0.118619  0.11555  0  1.066126  0
H  H25  1  0.98640178  0.87563957  0.29361941  1  0.179868  0  0.118813  0.116005  0  1.067552  0
H  H26  1  0.69248721  0.70586367  0.58182557  1  0.164576  0  0.119171  0.11622  0  1.067891  0
H  H27  1  0.19248405  0.58182343  0.70586046  1  0.164589  0  0.11914  0.116199  0  1.067799  0
H  H28  1  0.61079681  0.12431740  0.41828663  1  0.175612  0  0.118593  0.11547  0  1.066118  0
H  H29  1  0.48639525  0.29361994  0.87563855  1  0.179771  0  0.118788  0.115981  0  1.06764  0
H  H30  1  0.57245427  0.51204609  0.18582899  1  0.139321  0  0.11782  0.113347  0  1.04408  0
H  H31  1  0.38655246  0.81407892  0.32625840  1  0.1388  0  0.116996  0.112757  0  1.045016  0
H  H32  1  0.06040201  0.67382044  0.48794341  1  0.153258  0  0.117607  0.112717  0  1.045474  0
H  H33  1  0.56040366  0.48794151  0.67382063  1  0.153393  0  0.117575  0.112665  0  1.045514  0
H  H34  1  0.07245937  0.18583185  0.51204238  1  0.139095  0  0.117876  0.113437  0  1.044048  0
H  H35  1  0.88655671  0.32626088  0.81408746  1  0.139012  0  0.117016  0.112765  0  1.045011  0
C  C36  1  0.33319903  0.42735293  0.11636904  1  -0.014645  0  -0.043896  -0.147198  0  4.067712  0
C  C37  1  0.21674741  0.88352231  0.31080273  1  0.017345  0  -0.044298  -0.149584  0  4.065849  0
C  C38  1  0.90586334  0.68897118  0.57267835  1  0.001878  0  -0.044316  -0.147653  0  4.067971  0
C  C39  1  0.40586188  0.57267841  0.68897100  1  0.00179  0  -0.044296  -0.147712  0  4.067805  0
C  C40  1  0.83320579  0.11636961  0.42734920  1  -0.014991  0  -0.043819  -0.147145  0  4.067813  0
C  C41  1  0.71674422  0.31080091  0.88352540  1  0.017675  0  -0.044307  -0.149496  0  4.065776  0
C  C42  1  0.31629554  0.34328052  0.01982428  1  1.373335  0  0.236123  0.494953  0  4.172073  0
C  C43  1  0.29644337  0.98002367  0.32326067  1  1.370051  0  0.237869  0.498265  0  4.167096  0
C  C44  1  0.97317605  0.67670615  0.65682226  1  1.383599  0  0.236108  0.494817  0  4.170516  0
C  C45  1  0.47319266  0.65682504  0.67670796  1  1.384219  0  0.23615  0.495027  0  4.170513  0
C  C46  1  0.81629582  0.01982563  0.34327720  1  1.37331  0  0.236095  0.494849  0  4.172191  0
C  C47  1  0.79642657  0.32325941  0.98002781  1  1.369779  0  0.238095  0.498342  0  4.166702  0
C  C48  1  0.15519718  0.21556773  0.85117252  1  0.337805  0  -0.051748  -0.151866  0  3.926377  0
C  C49  1  0.30417369  0.14870502  0.36426561  1  0.308448  0  -0.05166  -0.153223  0  3.926723  0
C  C50  1  0.93978424  0.63583936  0.78458163  1  0.314643  0  -0.049786  -0.14902  0  3.921579  0
C  C51  1  0.43978811  0.78458113  0.63584026  1  0.314641  0  -0.049892  -0.149237  0  3.921725  0
C  C52  1  0.65519862  0.85117297  0.21556706  1  0.337776  0  -0.051741  -0.151971  0  3.926478  0
C  C53  1  0.80416790  0.36426552  0.14870886  1  0.308697  0  -0.051621  -0.153143  0  3.926721  0
C  C54  1  0.22732662  0.45541599  0.15533795  1  0.435692  0  0.020027  -0.007638  0  3.942251  0
C  C55  1  0.07190321  0.84460800  0.29983134  1  0.399447  0  0.019243  -0.007434  0  3.94211  0
C  C56  1  0.77184703  0.69974559  0.54463891  1  0.412684  0  0.020072  -0.007326  0  3.941489  0
C  C57  1  0.27184910  0.54463669  0.69974311  1  0.412737  0  0.020112  -0.007247  0  3.94142  0
C  C58  1  0.72733201  0.15533855  0.45541166  1  0.435598  0  0.020097  -0.007476  0  3.942188  0
C  C59  1  0.57189900  0.29983137  0.84460873  1  0.399436  0  0.019227  -0.007485  0  3.942132  0
C  C60  1  0.16546083  0.26472177  0.78604812  1  1.579165  0  0.232598  0.626677  0  4.100461  0
C  C61  1  0.37963080  0.21388939  0.47852397  1  1.587976  0  0.231291  0.627006  0  4.101466  0
C  C62  1  0.90089522  0.52155537  0.73542290  1  1.587267  0  0.23254  0.629222  0  4.104713  0
C  C63  1  0.40090199  0.73542407  0.52155320  1  1.587386  0  0.23236  0.628966  0  4.105013  0
C  C64  1  0.66545947  0.78604898  0.26472330  1  1.579224  0  0.232686  0.626794  0  4.100323  0
C  C65  1  0.87962510  0.47852071  0.21388949  1  1.58766  0  0.231275  0.62697  0  4.101395  0
C  C66  1  0.46379084  0.50368366  0.18743043  1  0.430536  0  0.020579  0.001818  0  3.937523  0
C  C67  1  0.27631065  0.81253170  0.31628544  1  0.432807  0  0.021452  0.00398  0  3.938582  0
C  C68  1  0.96007855  0.68371271  0.49632472  1  0.403697  0  0.019772  0.001928  0  3.942808  0
C  C69  1  0.46008032  0.49632280  0.68371134  1  0.403421  0  0.019794  0.001984  0  3.942726  0
C  C70  1  0.96379602  0.18743234  0.50367760  1  0.430976  0  0.02044  0.00166  0  3.937574  0
C  C71  1  0.77631261  0.31628574  0.81253757  1  0.4327  0  0.021434  0.004025  0  3.938518  0
N  N72  1  0.29088251  0.54186299  0.24285222  1  -0.840004  0  -0.281657  -0.192654  0  3.62849  0
N  N73  1  0.04797998  0.75719405  0.29895317  1  -0.803506  0  -0.280669  -0.193084  0  3.629041  0
N  N74  1  0.74890874  0.70078907  0.45818138  1  -0.807075  0  -0.280442  -0.191845  0  3.628381  0
N  N75  1  0.24890686  0.45817957  0.70078693  1  -0.807119  0  -0.280494  -0.191883  0  3.628364  0
N  N76  1  0.79088816  0.24285236  0.54186133  1  -0.839946  0  -0.281696  -0.192736  0  3.628533  0
N  N77  1  0.54798185  0.29895475  0.75719406  1  -0.803424  0  -0.280648  -0.193021  0  3.629039  0
N  N78  1  0.17941096  0.28773758  0.95365689  1  -1.215976  0  -0.421093  -0.344187  0  3.545018  0
N  N79  1  0.22579727  0.04627018  0.33395871  1  -1.244929  0  -0.419591  -0.347068  0  3.538549  0
N  N80  1  0.89185648  0.66610921  0.71240084  1  -1.240887  0  -0.421634  -0.344385  0  3.542662  0
N  N81  1  0.39184815  0.71240008  0.66610891  1  -1.240878  0  -0.42157  -0.344368  0  3.542117  0
N  N82  1  0.67941861  0.95365827  0.28773671  1  -1.215934  0  -0.421013  -0.343833  0  3.544945  0
N  N83  1  0.72578866  0.33395862  0.04627421  1  -1.245016  0  -0.41969  -0.347207  0  3.538494  0
N  N84  1  0.43681682  0.57217150  0.26286279  1  -0.802179  0  -0.279873  -0.20942  0  3.617964  0
N  N85  1  0.17392491  0.73718903  0.30940474  1  -0.81207  0  -0.279939  -0.210167  0  3.620479  0
N  N86  1  0.86456765  0.69057857  0.42785190  1  -0.800552  0  -0.2803  -0.21041  0  3.619104  0
N  N87  1  0.36456655  0.42785054  0.69057676  1  -0.800478  0  -0.28031  -0.210465  0  3.619113  0
N  N88  1  0.93682195  0.26286192  0.57216766  1  -0.802084  0  -0.279804  -0.209346  0  3.617984  0
N  N89  1  0.67392967  0.30940771  0.73719260  1  -0.812113  0  -0.279962  -0.21032  0  3.620572  0
O  O90  1  0.22684767  0.23378269  0.72202136  1  -1.195201  0  -0.320403  -0.540101  0  2.332745  0
O  O91  1  0.50502364  0.27781063  0.51148578  1  -1.201809  0  -0.320162  -0.540501  0  2.335788  0
O  O92  1  0.99336418  0.48850675  0.76622201  1  -1.200387  0  -0.321825  -0.542503  0  2.336823  0
O  O93  1  0.49336753  0.76622401  0.48850882  1  -1.200582  0  -0.321648  -0.542252  0  2.337099  0
O  O94  1  0.72684919  0.72202091  0.23378305  1  -1.195174  0  -0.320468  -0.540189  0  2.332583  0
O  O95  1  0.00502020  0.51148276  0.27781026  1  -1.201752  0  -0.320141  -0.540483  0  2.335779  0
O  O96  1  0.42311686  0.32473475  0.99840301  1  -1.179736  0  -0.311853  -0.528005  0  2.16677  0
O  O97  1  0.42464941  0.00137084  0.32612518  1  -1.185092  0  -0.313953  -0.528739  0  2.164791  0
O  O98  1  0.09860940  0.67395693  0.67541420  1  -1.183055  0  -0.311727  -0.52661  0  2.167708  0
O  O99  1  0.59860017  0.67541576  0.67395862  1  -1.183596  0  -0.311706  -0.526603  0  2.168402  0
O  O100  1  0.92312420  0.99840291  0.32472889  1  -1.179838  0  -0.311943  -0.528141  0  2.166687  0
O  O101  1  0.92464099  0.32611916  0.00137831  1  -1.184975  0  -0.314045  -0.528799  0  2.164383  0
O  O102  1  0.10854200  0.33214795  0.80031708  1  -1.176183  0  -0.310767  -0.517511  0  2.338201  0
O  O103  1  0.30848684  0.19981819  0.53176498  1  -1.175495  0  -0.310123  -0.517509  0  2.337487  0
O  O104  1  0.77648474  0.46840202  0.66816188  1  -1.180375  0  -0.3098  -0.518772  0  2.340537  0
O  O105  1  0.27648334  0.66816518  0.46840171  1  -1.1803  0  -0.309807  -0.518746  0  2.340508  0
O  O106  1  0.60854069  0.80032091  0.33214883  1  -1.176239  0  -0.310769  -0.51752  0  2.338201  0
O  O107  1  0.80848473  0.53176482  0.19981980  1  -1.175495  0  -0.310132  -0.517495  0  2.337403  0
