# generated using pymatgen
data_CuH15C14(NO)4
_symmetry_space_group_name_H-M   'P 1'
_cell_length_a   7.35442745
_cell_length_b   8.32249656
_cell_length_c   12.79483525
_cell_angle_alpha   80.44141085
_cell_angle_beta   83.52106226
_cell_angle_gamma   81.37708421
_symmetry_Int_Tables_number   1
_chemical_formula_structural   CuH15C14(NO)4
_chemical_formula_sum   'Cu2 H30 C28 N8 O8'
_cell_volume   760.42157931
_cell_formula_units_Z   2
loop_
 _symmetry_equiv_pos_site_id
 _symmetry_equiv_pos_as_xyz
  1  'x, y, z'
loop_
 _atom_site_type_symbol
 _atom_site_label
 _atom_site_symmetry_multiplicity
 _atom_site_fract_x
 _atom_site_fract_y
 _atom_site_fract_z
 _atom_site_occupancy
 _atom_site_hle17_ddec_charge
 _atom_site_hle17_ddec_spin_density
 _atom_site_hle17_ddec_sum_bond_order
 _atom_site_hle17_magmom
 _atom_site_hse06_10hf_ddec_charge
 _atom_site_hse06_10hf_ddec_spin_density
 _atom_site_hse06_10hf_ddec_sum_bond_order
 _atom_site_hse06_10hf_magmom
 _atom_site_hse06_ddec_charge
 _atom_site_hse06_ddec_spin_density
 _atom_site_hse06_ddec_sum_bond_order
 _atom_site_hse06_magmom
 _atom_site_pbe_cm5_charge
 _atom_site_pbe_ddec_charge
 _atom_site_pbe_ddec_spin_density
 _atom_site_pbe_ddec_sum_bond_order
 _atom_site_pbe_magmom
Cu  Cu0  1  0.37460973  0.05075122  0.57009991  1  0.820417  0.661415  1.914311  0.474  0.808149  0.792394  2.327832  0.625  0.915819  0.884491  2.238719  0.727  0.671955  0.739778  0.691146  2.390869  0.533
Cu  Cu1  1  0.62537626  0.94925345  0.42990222  1  0.820306  -0.661401  1.91441  -0.474  0.808246  -0.792395  2.327652  -0.625  0.915774  -0.884487  2.238689  -0.727  0.671914  0.739705  -0.691155  2.390922  -0.533
H  H2  1  0.94700806  0.00568945  0.62695762  1  0.112618  8.8e-05  0.942451  0.0  0.125224  3.4e-05  0.996834  0.0  0.128246  3e-05  0.994071  0.0  0.125552  0.122949  3.6e-05  0.999025  0.0
H  H3  1  0.05298212  0.99432383  0.37304486  1  0.112638  -8.9e-05  0.942405  0.0  0.125254  -3.4e-05  0.996764  0.0  0.128284  -3e-05  0.993999  0.0  0.125567  0.122979  -3.6e-05  0.998954  0.0
H  H4  1  0.74558839  0.02624008  0.82254190  1  0.123871  -1.1e-05  0.992932  0.0  0.13366  0.0  1.050442  0.0  0.136498  -7e-06  1.051468  0.0  0.104208  0.131632  7e-06  1.049907  0.0
H  H5  1  0.25441891  0.97374985  0.17746755  1  0.123899  1.2e-05  0.992986  0.0  0.133751  -0.0  1.050399  0.0  0.136599  7e-06  1.051417  0.0  0.104216  0.13172  -7e-06  1.049867  0.0
H  H6  1  0.98440613  0.13826393  0.93759951  1  0.107699  -1e-05  0.959685  0.0  0.116173  -1.5e-05  1.028989  0.0  0.119307  -1.2e-05  1.02528  0.0  0.123652  0.113872  -1.6e-05  1.031641  0.0
H  H7  1  0.01561740  0.86170875  0.06240926  1  0.10764  9e-06  0.959733  0.0  0.116117  1.5e-05  1.029026  0.0  0.119251  1.2e-05  1.025317  0.0  0.123624  0.113818  1.6e-05  1.031679  0.0
H  H8  1  0.05516193  0.65333532  0.93777362  1  0.090637  -1.5e-05  0.977296  0.0  0.094615  -1.4e-05  1.049411  0.0  0.097457  -9e-06  1.046726  0.0  0.109796  0.092562  -1.7e-05  1.051307  0.0
H  H9  1  0.94483877  0.34665331  0.06222545  1  0.09054  1.3e-05  0.977412  0.0  0.094544  1.4e-05  1.049496  0.0  0.097386  9e-06  1.046814  0.0  0.109794  0.092493  1.7e-05  1.051395  0.0
H  H10  1  0.25118385  0.76045963  0.74486474  1  0.130596  -9.3e-05  0.991872  0.0  0.135326  -5.1e-05  1.057211  0.0  0.138288  -5.2e-05  1.056924  0.0  0.10496  0.133193  -4.4e-05  1.05759  0.0
H  H11  1  0.74881611  0.23953393  0.25513461  1  0.130599  9.9e-05  0.991816  0.0  0.135283  5e-05  1.057214  0.0  0.138239  5.2e-05  1.056943  0.0  0.104943  0.13315  4.4e-05  1.057589  0.0
H  H12  1  0.41469810  0.46903348  0.67756701  1  0.114953  0.00017  0.96151  0.0  0.127945  0.00018  1.020234  0.0  0.131593  0.000105  1.016938  0.0  0.123096  0.1252  0.000233  1.022835  0.0
H  H13  1  0.58530320  0.53096985  0.32242258  1  0.114936  -0.000173  0.961644  0.0  0.127928  -0.00018  1.020358  0.0  0.131553  -0.000105  1.017092  0.0  0.123103  0.125197  -0.000233  1.022931  0.0
H  H14  1  0.42272453  0.18294090  0.74755237  1  0.096528  -0.000222  0.929303  0.0  0.105448  -0.000155  0.995497  0.0  0.107342  -0.000153  0.992922  0.0  0.145821  0.103866  -0.00014  0.997684  0.0
H  H15  1  0.57728384  0.81705139  0.25244424  1  0.096516  0.000221  0.92924  0.0  0.105407  0.000155  0.995481  0.0  0.107307  0.000153  0.9929  0.0  0.14582  0.103824  0.00014  0.997662  0.0
H  H16  1  0.35092275  0.86225365  0.88140093  1  0.100539  3.1e-05  0.975022  0.0  0.108673  3.3e-05  1.040824  0.0  0.111478  1.6e-05  1.040026  0.0  0.103742  0.106644  4.8e-05  1.041509  0.0
H  H17  1  0.64906965  0.13774484  0.11859758  1  0.100549  -2.9e-05  0.97507  0.0  0.108668  -3.3e-05  1.040877  0.0  0.111472  -1.6e-05  1.040079  0.0  0.103768  0.10664  -4.8e-05  1.041559  0.0
H  H18  1  0.49144076  0.30353443  0.96903600  1  0.103739  9e-06  0.947455  0.0  0.114504  4e-06  1.003399  0.0  0.117728  3e-06  1.002156  0.0  0.108568  0.112158  5e-06  1.004424  0.0
H  H19  1  0.50855535  0.69646654  0.03096668  1  0.103701  -9e-06  0.947424  0.0  0.114472  -4e-06  1.003358  0.0  0.117701  -3e-06  1.002119  0.0  0.108543  0.112125  -5e-06  1.004382  0.0
H  H20  1  0.30904084  0.42572043  0.25269540  1  0.134682  8.2e-05  0.944853  0.0  0.1508  6.5e-05  1.008773  0.0  0.152502  3e-05  1.008912  0.0  0.099715  0.149589  8.5e-05  1.008516  0.0
H  H21  1  0.69097893  0.57427801  0.74730216  1  0.134708  -7.7e-05  0.944856  0.0  0.150824  -6.5e-05  1.008763  0.0  0.152526  -3e-05  1.008904  0.0  0.099722  0.149615  -8.6e-05  1.008507  0.0
H  H22  1  0.08965522  0.35737320  0.29493537  1  0.141395  -0.001079  0.951305  -0.001  0.158607  -0.00071  1.009312  -0.001  0.160378  -0.000473  1.009769  -0.001  0.098165  0.157139  -0.000829  1.009066  -0.001
H  H23  1  0.91035482  0.64264491  0.70505750  1  0.141402  0.001083  0.95116  0.001  0.158579  0.00071  1.009202  0.001  0.160352  0.000473  1.009655  0.001  0.09809  0.157117  0.000829  1.008958  0.001
H  H24  1  0.24385704  0.26624280  0.19531122  1  0.140781  0.001132  0.945633  0.001  0.157472  0.000792  1.006423  0.001  0.158701  0.000529  1.007285  0.001  0.098732  0.156377  0.000924  1.005904  0.001
H  H25  1  0.75615150  0.73376673  0.80468738  1  0.140742  -0.001127  0.945632  -0.001  0.157419  -0.000793  1.00644  -0.001  0.158646  -0.000529  1.007303  -0.001  0.098722  0.156326  -0.000924  1.005918  -0.001
H  H26  1  0.71306013  0.49346994  0.49997138  1  0.149494  -0.00048  0.941024  -0.001  0.165444  -0.00033  1.003572  0.0  0.168159  -0.000206  1.002872  0.0  0.100496  0.163475  -0.000395  1.004037  0.0
H  H27  1  0.28692841  0.50653597  0.50003201  1  0.149479  0.000486  0.941081  0.001  0.16544  0.00033  1.003614  0.0  0.168158  0.000206  1.002913  0.0  0.100493  0.163473  0.000395  1.004082  0.0
H  H28  1  0.92421603  0.35453745  0.49102211  1  0.15309  0.001386  0.941683  0.002  0.170497  0.00098  0.999688  0.001  0.173363  0.00065  0.998649  0.001  0.100341  0.168186  0.001144  1.000599  0.001
H  H29  1  0.07577033  0.64546476  0.50897949  1  0.15308  -0.00138  0.94181  -0.002  0.170544  -0.000979  0.999707  -0.001  0.17341  -0.00065  0.998669  -0.001  0.100362  0.168232  -0.001145  1.000623  -0.001
H  H30  1  0.79830707  0.37636154  0.61715713  1  0.135825  -0.00083  0.943774  -0.001  0.153463  -0.000559  1.00408  -0.001  0.154961  -0.000373  1.004803  0.0  0.09758  0.1523  -0.000646  1.003519  -0.001
H  H31  1  0.20168418  0.62364439  0.38284922  1  0.135894  0.000835  0.943722  0.001  0.153479  0.000559  1.004067  0.001  0.154976  0.000372  1.004789  0.0  0.097552  0.152314  0.000646  1.003501  0.001
C  C32  1  0.98403148  0.04576394  0.69729660  1  0.067109  -0.000407  3.700921  0.0  0.037138  -0.000364  3.96691  0.0  0.047782  -0.000336  3.978504  0.0  0.021482  0.030477  -0.000369  3.959041  0.0
C  C33  1  0.01595963  0.95424317  0.30270338  1  0.067088  0.000409  3.701063  0.0  0.037093  0.000364  3.96711  0.0  0.047733  0.000335  3.978702  0.0  0.021413  0.030435  0.000368  3.959226  0.0
C  C34  1  0.88393290  0.05533118  0.79723992  1  -0.214591  0.000133  3.776012  0.0  -0.221721  3.6e-05  4.023933  0.0  -0.230453  4.3e-05  4.042483  0.0  -0.117756  -0.216095  3.1e-05  4.011372  0.0
C  C35  1  0.11607013  0.94465996  0.20276498  1  -0.21463  -0.000135  3.776087  0.0  -0.221821  -3.5e-05  4.024003  0.0  -0.230565  -4.3e-05  4.042542  0.0  -0.11768  -0.216198  -3.1e-05  4.011443  0.0
C  C36  1  0.00155927  0.10935287  0.85726829  1  0.003063  -0.000354  3.680393  0.0  -0.04693  -0.000281  3.940875  0.0  -0.036542  -0.000265  3.952314  0.0  0.01772  -0.053439  -0.000287  3.932923  0.0
C  C37  1  0.99845682  0.89063331  0.14273477  1  0.003232  0.000356  3.680224  0.0  -0.04685  0.00028  3.940638  0.0  -0.036461  0.000264  3.952077  0.0  0.017691  -0.053369  0.000287  3.932695  0.0
C  C38  1  0.14450028  0.58278534  0.88322747  1  0.037077  8.4e-05  3.756385  0.0  0.008167  5.5e-05  4.026828  0.0  0.014052  3.1e-05  4.041743  0.0  0.011386  0.004579  7.8e-05  4.016454  0.0
C  C39  1  0.85550163  0.41720449  0.11676670  1  0.037329  -4e-05  3.756131  0.0  0.008427  -5.5e-05  4.026516  0.0  0.01431  -3e-05  4.041431  0.0  0.011472  0.004833  -7.8e-05  4.016153  0.0
C  C40  1  0.24347856  0.63644717  0.78545503  1  -0.206961  0.000486  3.783062  0.0  -0.218124  0.000116  4.038609  0.0  -0.22561  3.4e-05  4.058267  0.0  -0.121143  -0.213225  0.000199  4.025287  0.0
C  C41  1  0.75652401  0.36354757  0.21453700  1  -0.207043  -0.000545  3.783107  0.0  -0.218198  -0.000116  4.038732  0.0  -0.225682  -3.6e-05  4.058383  0.0  -0.121184  -0.213305  -0.000199  4.025414  0.0
C  C42  1  0.32826701  0.49341942  0.74921175  1  -0.011108  0.000394  3.671506  0.0  -0.057505  0.000197  3.927829  0.0  -0.049507  9.7e-05  3.94099  0.0  0.011108  -0.062401  0.000278  3.918801  0.0
C  C43  1  0.67172979  0.50656797  0.25078380  1  -0.011182  -0.00034  3.671262  0.0  -0.057573  -0.000197  3.927576  0.0  -0.04956  -9.5e-05  3.940747  0.0  0.011049  -0.062473  -0.000278  3.918529  0.0
C  C44  1  0.32306153  0.19283002  0.81781311  1  0.143164  -7.3e-05  3.638088  0.0  0.085337  -9.2e-05  3.885037  0.0  0.094193  -8.6e-05  3.895569  0.0  0.141239  0.079395  -8.9e-05  3.877992  0.0
C  C45  1  0.67694429  0.80716106  0.18218380  1  0.143182  7.9e-05  3.638126  0.0  0.085274  9.2e-05  3.885067  0.0  0.094112  8.6e-05  3.895624  0.0  0.141203  0.079323  8.9e-05  3.878017  0.0
C  C46  1  0.40775992  0.09464145  0.91552569  1  0.023995  8.1e-05  3.73226  0.0  0.03395  2.3e-05  3.98164  0.0  0.033086  3e-05  4.003939  0.0  -0.009217  0.034508  1.8e-05  3.966604  0.0
C  C47  1  0.59225338  0.90535453  0.08447021  1  0.023967  -9e-05  3.732202  0.0  0.033922  -2.2e-05  3.981548  0.0  0.033066  -3.1e-05  4.003852  0.0  -0.009183  0.034488  -1.8e-05  3.9665  0.0
C  C48  1  0.41414706  0.92351822  0.93398016  1  -0.10248  -3.2e-05  3.741121  0.0  -0.12097  -1.3e-05  3.989699  0.0  -0.123206  -3.1e-05  4.010507  0.0  -0.089496  -0.119414  2e-06  3.975708  0.0
C  C49  1  0.58585420  0.07648515  0.06601568  1  -0.102498  2.7e-05  3.741051  0.0  -0.120962  1.3e-05  3.989609  0.0  -0.123198  3.1e-05  4.010412  0.0  -0.089554  -0.119407  -2e-06  3.975617  0.0
C  C50  1  0.49487462  0.17053389  0.98203909  1  -0.100147  -0.000234  3.751523  0.0  -0.121406  -0.000117  4.001693  0.0  -0.123273  -8e-05  4.021535  0.0  -0.088063  -0.120124  -0.000148  3.988324  0.0
C  C51  1  0.50512645  0.82947073  0.01795897  1  -0.100078  0.000239  3.751472  0.0  -0.121338  0.000117  4.001628  0.0  -0.123211  8e-05  4.02147  0.0  -0.088028  -0.120058  0.000148  3.988257  0.0
C  C52  1  0.32521122  0.19592534  0.35523350  1  0.729111  -0.000835  3.80315  -0.001  0.702885  -0.000415  4.096537  -0.001  0.743467  -0.000447  4.090816  -0.001  0.214941  0.675311  -0.00036  4.099849  -0.001
C  C53  1  0.67478344  0.80408546  0.64476663  1  0.729482  0.000839  3.803028  0.001  0.703259  0.000415  4.096377  0.001  0.743841  0.000446  4.09065  0.001  0.215053  0.675654  0.000361  4.099758  0.001
C  C54  1  0.23416191  0.31810717  0.26928089  1  -0.442834  0.000664  3.643041  0.001  -0.517914  0.000462  3.870771  0.0  -0.527056  0.000319  3.875317  0.0  -0.241236  -0.510225  0.000475  3.866875  0.0
C  C55  1  0.76583881  0.68189989  0.73071380  1  -0.442887  -0.000688  3.642851  -0.001  -0.517937  -0.000466  3.8706  -0.001  -0.52708  -0.000319  3.875147  0.0  -0.241148  -0.510238  -0.000477  3.866726  0.0
C  C56  1  0.67661630  0.23795240  0.52321609  1  0.730678  -7.7e-05  3.805338  0.0  0.700013  -0.000329  4.106037  -0.001  0.740664  -0.000329  4.100124  -0.001  0.213104  0.672395  -0.000276  4.109395  -0.001
C  C57  1  0.32337378  0.76205229  0.47678890  1  0.730851  9.2e-05  3.804933  0.0  0.700248  0.000328  4.105552  0.001  0.740901  0.000331  4.099633  0.001  0.21317  0.672634  0.000278  4.10891  0.001
C  C58  1  0.78627061  0.37384493  0.53278262  1  -0.448896  -0.000513  3.622833  -0.001  -0.524507  -0.000173  3.853329  0.0  -0.534445  -0.0001  3.856584  0.0  -0.241938  -0.51629  -0.000259  3.850381  0.0
C  C59  1  0.21371929  0.62616098  0.46722147  1  -0.448996  0.000469  3.623067  0.001  -0.524609  0.00017  3.853488  0.0  -0.534546  9.8e-05  3.856734  0.0  -0.24191  -0.516394  0.000254  3.850544  0.0
N  N60  1  0.15145318  0.09146305  0.69552474  1  -0.263676  -0.00122  3.071294  0.0  -0.244702  -0.000772  3.369539  0.0  -0.261592  -0.000764  3.382561  0.0  -0.253081  -0.234185  -0.000732  3.36237  0.0
N  N61  1  0.84854105  0.90854159  0.30447375  1  -0.263648  0.001222  3.071392  0.0  -0.244801  0.000772  3.369544  0.0  -0.261667  0.000764  3.382559  0.0  -0.253114  -0.23426  0.000732  3.36237  0.0
N  N62  1  0.16089543  0.12839030  0.79404599  1  0.021888  -7.8e-05  3.550111  0.0  0.109088  -0.000105  3.771236  0.0  0.098054  -7.5e-05  3.798156  0.0  -0.140526  0.116358  -0.000121  3.753163  0.0
N  N63  1  0.83911347  0.87159833  0.20595412  1  0.021751  7.5e-05  3.550083  0.0  0.109286  0.000106  3.770795  0.0  0.098257  7.5e-05  3.797711  0.0  -0.140405  0.116557  0.000121  3.752711  0.0
N  N64  1  0.27938090  0.36664014  0.82412665  1  0.004464  4.7e-05  3.615087  0.0  0.089045  3e-06  3.841192  0.0  0.076609  -1e-06  3.868452  0.0  -0.150376  0.097259  1.1e-05  3.822636  0.0
N  N65  1  0.72062230  0.63335952  0.17586557  1  0.004571  -6.6e-05  3.614664  0.0  0.089126  -3e-06  3.840784  0.0  0.076698  2e-06  3.868041  0.0  -0.150363  0.097339  -1.1e-05  3.822223  0.0
N  N66  1  0.16598543  0.41835736  0.90644672  1  -0.274583  0.00013  2.92662  0.0  -0.261746  4.6e-05  3.199928  0.0  -0.269294  1.9e-05  3.2159  0.0  -0.239419  -0.256542  7.3e-05  3.189069  0.0
N  N67  1  0.83401383  0.58164109  0.09354823  1  -0.274634  -0.000152  2.926385  0.0  -0.261801  -4.6e-05  3.199701  0.0  -0.269348  -2.1e-05  3.215672  0.0  -0.239431  -0.256601  -7.4e-05  3.188848  0.0
O  O68  1  0.25467688  0.19901678  0.45074864  1  -0.572456  0.082532  2.04683  0.107  -0.54911  0.056259  2.318011  0.081  -0.594667  0.044281  2.311533  0.068  -0.310828  -0.519854  0.059047  2.323357  0.081
O  O69  1  0.74534057  0.80100630  0.54925493  1  -0.572644  -0.082547  2.046854  -0.107  -0.549353  -0.056264  2.31802  -0.081  -0.594885  -0.044287  2.311549  -0.068  -0.310994  -0.52006  -0.059045  2.323402  -0.081
O  O70  1  0.74473562  0.13814847  0.45927787  1  -0.58049  -0.075072  2.067551  -0.098  -0.554401  -0.051462  2.341478  -0.074  -0.600692  -0.040497  2.336196  -0.062  -0.305222  -0.523902  -0.054138  2.345572  -0.075
O  O71  1  0.25524310  0.86188693  0.54071897  1  -0.580503  0.075086  2.067206  0.098  -0.554462  0.05147  2.341213  0.074  -0.600787  0.040502  2.335937  0.062  -0.305235  -0.523979  0.054147  2.345281  0.075
O  O72  1  0.46775861  0.10042083  0.32601770  1  -0.596667  -0.074314  2.066495  -0.097  -0.575123  -0.050939  2.34739  -0.073  -0.620924  -0.040162  2.342259  -0.061  -0.319339  -0.545036  -0.053862  2.351506  -0.074
O  O73  1  0.53222002  0.89956907  0.67398106  1  -0.596809  0.074308  2.066451  0.097  -0.575244  0.050936  2.347366  0.073  -0.621071  0.040158  2.342228  0.061  -0.319285  -0.545167  0.053857  2.351488  0.074
O  O74  1  0.52197339  0.23335254  0.58003000  1  -0.602469  0.077602  2.064893  0.102  -0.577455  0.054423  2.34182  0.078  -0.622398  0.043224  2.334557  0.066  -0.319691  -0.548387  0.056477  2.347647  0.078
O  O75  1  0.47801734  0.76662887  0.41998848  1  -0.60259  -0.07759  2.064726  -0.102  -0.577648  -0.054415  2.341647  -0.078  -0.622558  -0.043222  2.334374  -0.066  -0.3198  -0.548566  -0.056469  2.347493  -0.078
