# generated using pymatgen
data_AgH8C4S2NO4
_symmetry_space_group_name_H-M   'P 1'
_cell_length_a   6.51393844
_cell_length_b   9.45674460
_cell_length_c   13.86006364
_cell_angle_alpha   103.22890142
_cell_angle_beta   89.99979370
_cell_angle_gamma   90.00000176
_symmetry_Int_Tables_number   1
_chemical_formula_structural   AgH8C4S2NO4
_chemical_formula_sum   'Ag4 H32 C16 S8 N4 O16'
_cell_volume   831.13246827
_cell_formula_units_Z   4
loop_
 _symmetry_equiv_pos_site_id
 _symmetry_equiv_pos_as_xyz
  1  'x, y, z'
loop_
 _atom_site_type_symbol
 _atom_site_label
 _atom_site_symmetry_multiplicity
 _atom_site_fract_x
 _atom_site_fract_y
 _atom_site_fract_z
 _atom_site_occupancy
 _atom_site_hle17_bader_spin_density
 _atom_site_hle17_ddec_charge
 _atom_site_hle17_ddec_spin_density
 _atom_site_hle17_ddec_sum_bond_order
 _atom_site_hle17_magmom
 _atom_site_hse06_10hf_bader_spin_density
 _atom_site_hse06_10hf_ddec_charge
 _atom_site_hse06_10hf_ddec_spin_density
 _atom_site_hse06_10hf_ddec_sum_bond_order
 _atom_site_hse06_10hf_magmom
 _atom_site_hse06_bader_spin_density
 _atom_site_hse06_ddec_charge
 _atom_site_hse06_ddec_spin_density
 _atom_site_hse06_ddec_sum_bond_order
 _atom_site_hse06_magmom
 _atom_site_pbe_bader_spin_density
 _atom_site_pbe_cm5_charge
 _atom_site_pbe_ddec_charge
 _atom_site_pbe_ddec_spin_density
 _atom_site_pbe_ddec_sum_bond_order
 _atom_site_pbe_magmom
Ag  Ag0  1  0.78935555  0.36672735  0.66522323  1  0  0.371826  0  1.594489  0  0  0.252168  0  2.048807  0  0  0.275628  0  2.00706  0  0  0.358588  0.235308  0  2.078453  0
Ag  Ag1  1  0.28935327  0.13327527  0.83477663  1  0  0.371812  0  1.594518  0  0  0.252142  0  2.04886  0  0  0.275604  0  2.007067  0  0  0.358579  0.235285  0  2.078505  0
Ag  Ag2  1  0.21064237  0.63327019  0.33478193  1  0  0.371785  0  1.594529  0  0  0.252126  0  2.048871  0  0  0.275585  0  2.007098  0  0  0.358587  0.235257  0  2.078519  0
Ag  Ag3  1  0.71064465  0.86672783  0.16522150  1  0  0.371747  0  1.594554  0  0  0.252075  0  2.048913  0  0  0.275534  0  2.007164  0  0  0.358561  0.235205  0  2.078562  0
H  H4  1  0.38315680  0.48662354  0.81030191  1  0  0.108532  0  0.956771  0  0  0.116731  0  1.021116  0  0  0.118093  0  1.020817  0  0  0.106935  0.11576  0  1.021448  0
H  H5  1  0.88315434  0.01337469  0.68969707  1  0  0.108501  0  0.956799  0  0  0.116712  0  1.021159  0  0  0.118073  0  1.020879  0  0  0.106931  0.115741  0  1.021491  0
H  H6  1  0.61685647  0.51337191  0.18969785  1  0  0.108499  0  0.956811  0  0  0.116721  0  1.021166  0  0  0.118076  0  1.020855  0  0  0.106927  0.115747  0  1.0215  0
H  H7  1  0.11685279  0.98662513  0.31030196  1  0  0.108526  0  0.956788  0  0  0.116719  0  1.021141  0  0  0.118077  0  1.020867  0  0  0.106911  0.115745  0  1.021475  0
H  H8  1  0.40570618  0.17743660  0.60206838  1  0  0.096087  0  0.963657  0  0  0.105169  0  1.038702  0  0  0.106701  0  1.037699  0  0  0.091292  0.10418  0  1.038776  0
H  H9  1  0.90570363  0.32255510  0.89792950  1  0  0.096115  0  0.963635  0  0  0.105196  0  1.03868  0  0  0.10673  0  1.03765  0  0  0.091304  0.104205  0  1.038754  0
H  H10  1  0.59429635  0.82256648  0.39793119  1  0  0.096294  0  0.963608  0  0  0.10534  0  1.038661  0  0  0.106871  0  1.037658  0  0  0.091362  0.104351  0  1.038738  0
H  H11  1  0.09429889  0.67743930  0.10206793  1  0  0.096113  0  0.963692  0  0  0.105225  0  1.03869  0  0  0.106755  0  1.037664  0  0  0.091332  0.104238  0  1.038768  0
H  H12  1  0.16047227  0.16814145  0.54543639  1  0  0.118609  0  0.94639  0  0  0.129697  0  1.011673  0  0  0.130883  0  1.011631  0  0  0.105111  0.128676  0  1.011929  0
H  H13  1  0.66047083  0.33185908  0.95456263  1  0  0.118581  0  0.946393  0  0  0.129668  0  1.011699  0  0  0.130852  0  1.011669  0  0  0.105102  0.128645  0  1.011955  0
H  H14  1  0.83952565  0.83186050  0.45456588  1  0  0.118662  0  0.946388  0  0  0.129737  0  1.011675  0  0  0.130921  0  1.011635  0  0  0.105116  0.128717  0  1.011937  0
H  H15  1  0.33952095  0.66814300  0.04543173  1  0  0.118638  0  0.946316  0  0  0.129697  0  1.011622  0  0  0.130881  0  1.011547  0  0  0.105115  0.128677  0  1.011886  0
H  H16  1  0.19324666  0.42327424  0.52601167  1  0  0.113405  0  0.929226  0  0  0.129778  0  0.988149  0  0  0.131533  0  0.987096  0  0  0.102339  0.128659  0  0.988481  0
H  H17  1  0.69323743  0.07672302  0.97398676  1  0  0.113371  0  0.929147  0  0  0.129764  0  0.988074  0  0  0.131524  0  0.987011  0  0  0.102297  0.128646  0  0.988407  0
H  H18  1  0.80674973  0.57673206  0.47399059  1  0  0.113439  0  0.929238  0  0  0.129758  0  0.988212  0  0  0.131505  0  0.987159  0  0  0.10234  0.128639  0  0.98855  0
H  H19  1  0.30674821  0.92327574  0.02601066  1  0  0.113347  0  0.929268  0  0  0.129691  0  0.988219  0  0  0.131436  0  0.98716  0  0  0.102328  0.128571  0  0.988556  0
H  H20  1  0.43338111  0.33740099  0.48514126  1  0  0.105233  0  0.960371  0  0  0.119123  0  1.025382  0  0  0.119697  0  1.026884  0  0  0.100326  0.118554  0  1.024581  0
H  H21  1  0.93337228  0.16259597  0.01485848  1  0  0.105197  0  0.960365  0  0  0.119078  0  1.025412  0  0  0.119655  0  1.026894  0  0  0.100326  0.11851  0  1.024611  0
H  H22  1  0.56661527  0.66260209  0.51485831  1  0  0.105174  0  0.960481  0  0  0.119084  0  1.025448  0  0  0.11966  0  1.026947  0  0  0.100303  0.118515  0  1.024655  0
H  H23  1  0.06661336  0.83740383  0.98514199  1  0  0.105205  0  0.960403  0  0  0.119091  0  1.025414  0  0  0.119667  0  1.026915  0  0  0.100313  0.118522  0  1.024622  0
H  H24  1  0.04205586  0.60556420  0.82955473  1  0  0.069115  0  0.927285  0  0  0.083922  0  0.990451  0  0  0.083713  0  0.990897  0  0  0.09816  0.083851  0  0.990697  0
H  H25  1  0.54205042  0.89443300  0.67044636  1  0  0.069111  0  0.927222  0  0  0.083932  0  0.990378  0  0  0.083722  0  0.99083  0  0  0.098148  0.083859  0  0.990624  0
H  H26  1  0.95796202  0.39443546  0.17045366  1  0  0.069157  0  0.927225  0  0  0.084001  0  0.990348  0  0  0.083801  0  0.990765  0  0  0.098147  0.083923  0  0.990604  0
H  H27  1  0.45795671  0.10556257  0.32954621  1  0  0.069131  0  0.927229  0  0  0.083972  0  0.990357  0  0  0.083765  0  0.990801  0  0  0.098156  0.083895  0  0.990608  0
H  H28  1  0.23695345  0.71548083  0.79152078  1  0  0.070031  0  0.957807  0  0  0.08176  0  1.027291  0  0  0.082641  0  1.026675  0  0  0.096893  0.081053  0  1.02818  0
H  H29  1  0.73695541  0.78451520  0.70847979  1  0  0.069983  0  0.957759  0  0  0.081704  0  1.027272  0  0  0.082586  0  1.026656  0  0  0.096871  0.080998  0  1.028157  0
H  H30  1  0.76305368  0.28451347  0.20848313  1  0  0.070062  0  0.95769  0  0  0.081799  0  1.027163  0  0  0.082677  0  1.026543  0  0  0.096918  0.081088  0  1.028051  0
H  H31  1  0.26304712  0.21548353  0.29151979  1  0  0.070038  0  0.957717  0  0  0.081769  0  1.027205  0  0  0.082649  0  1.026584  0  0  0.096898  0.081057  0  1.028094  0
H  H32  1  0.08693573  0.66609502  0.63715121  1  0  0.358944  0  0.926747  0  0  0.331594  0  1.0077  0  0  0.342375  0  0.995  0  0  0.285608  0.323921  0  1.016723  0
H  H33  1  0.58693959  0.83389888  0.86285070  1  0  0.359032  0  0.926663  0  0  0.331653  0  1.007684  0  0  0.342443  0  0.99496  0  0  0.285596  0.323978  0  1.01671  0
H  H34  1  0.91306987  0.33390568  0.36286023  1  0  0.358966  0  0.926818  0  0  0.331569  0  1.007878  0  0  0.342364  0  0.99514  0  0  0.285553  0.323894  0  1.016904  0
H  H35  1  0.41305987  0.16610211  0.13714348  1  0  0.358985  0  0.926684  0  0  0.331602  0  1.007713  0  0  0.342396  0  0.994891  0  0  0.28556  0.323927  0  1.016739  0
C  C36  1  0.28858753  0.48712560  0.74479303  1  0  -0.084441  0  3.52396  0  0  -0.083037  0  3.773047  0  0  -0.082603  0  3.787331  0  0  -0.067323  -0.083526  0  3.763493  0
C  C37  1  0.78859072  0.01287484  0.75520720  1  0  -0.08445  0  3.52396  0  0  -0.083098  0  3.773081  0  0  -0.082664  0  3.787377  0  0  -0.067319  -0.083586  0  3.763524  0
C  C38  1  0.71141192  0.51287631  0.25521140  1  0  -0.084374  0  3.523976  0  0  -0.083066  0  3.773129  0  0  -0.08263  0  3.787401  0  0  -0.067328  -0.083556  0  3.763576  0
C  C39  1  0.21140874  0.98712286  0.24478861  1  0  -0.084524  0  3.524158  0  0  -0.083075  0  3.773112  0  0  -0.082644  0  3.787413  0  0  -0.067326  -0.083565  0  3.763559  0
C  C40  1  0.27074792  0.24141028  0.59124421  1  0  -0.140703  0  3.658736  0  0  -0.18091  0  3.922373  0  0  -0.180665  0  3.934397  0  0  -0.154841  -0.180714  0  3.913467  0
C  C41  1  0.77074684  0.25858800  0.90875570  1  0  -0.140661  0  3.658547  0  0  -0.180887  0  3.922247  0  0  -0.180637  0  3.934225  0  0  -0.154828  -0.180676  0  3.913323  0
C  C42  1  0.72924846  0.75859386  0.40875698  1  0  -0.14094  0  3.658926  0  0  -0.181138  0  3.922577  0  0  -0.180899  0  3.934622  0  0  -0.154922  -0.180915  0  3.913595  0
C  C43  1  0.22924954  0.74141295  0.09124136  1  0  -0.140744  0  3.658737  0  0  -0.180974  0  3.922406  0  0  -0.180716  0  3.934374  0  0  -0.154897  -0.180758  0  3.913438  0
C  C44  1  0.32834917  0.36934503  0.54837297  1  0  -0.145842  0  3.638153  0  0  -0.187017  0  3.901365  0  0  -0.187104  0  3.913326  0  0  -0.152969  -0.186738  0  3.892163  0
C  C45  1  0.82834011  0.13065323  0.95162612  1  0  -0.145733  0  3.637918  0  0  -0.186937  0  3.90121  0  0  -0.187019  0  3.91312  0  0  -0.152912  -0.186664  0  3.892011  0
C  C46  1  0.67165028  0.63066131  0.45162713  1  0  -0.145819  0  3.63829  0  0  -0.186924  0  3.901394  0  0  -0.186992  0  3.913323  0  0  -0.152912  -0.186653  0  3.892219  0
C  C47  1  0.17164860  0.86934442  0.04837257  1  0  -0.145755  0  3.638252  0  0  -0.18688  0  3.901403  0  0  -0.186949  0  3.91332  0  0  -0.152921  -0.186606  0  3.89223  0
C  C48  1  0.14184058  0.61721860  0.76772961  1  0  0.102391  0  3.679576  0  0  0.038949  0  3.95688  0  0  0.045497  0  3.964544  0  0  -0.090367  0.034056  0  3.95266  0
C  C49  1  0.64184542  0.88277859  0.73226914  1  0  0.102545  0  3.679403  0  0  0.039121  0  3.956708  0  0  0.045665  0  3.964378  0  0  -0.090319  0.034229  0  3.952483  0
C  C50  1  0.85815888  0.38278111  0.23227590  1  0  0.10219  0  3.679398  0  0  0.038777  0  3.956683  0  0  0.04533  0  3.964332  0  0  -0.090443  0.033884  0  3.952466  0
C  C51  1  0.35815557  0.11721804  0.26772505  1  0  0.102396  0  3.679351  0  0  0.038965  0  3.956593  0  0  0.045514  0  3.964257  0  0  -0.090381  0.034073  0  3.952375  0
S  S52  1  0.15066650  0.31288063  0.71081285  1  0  0.042597  0  2.710503  0  0  0.079051  0  3.145806  0  0  0.073055  0  3.13347  0  0  6.7e-05  0.082988  0  3.155187  0
S  S53  1  0.65065713  0.18711668  0.78918349  1  0  0.042594  0  2.710293  0  0  0.079096  0  3.145607  0  0  0.073098  0  3.133268  0  0  5.2e-05  0.08303  0  3.15498  0
S  S54  1  0.84934370  0.68711918  0.28918690  1  0  0.042582  0  2.71052  0  0  0.0791  0  3.145815  0  0  0.073098  0  3.133493  0  0  7.4e-05  0.083031  0  3.155191  0
S  S55  1  0.34933926  0.81288106  0.21080943  1  0  0.042618  0  2.710495  0  0  0.079077  0  3.145765  0  0  0.073071  0  3.13343  0  0  0.000101  0.083011  0  3.155142  0
S  S56  1  0.46589385  0.49715758  0.64451130  1  0  0.078085  0  2.571364  0  0  0.106894  0  2.976396  0  0  0.101455  0  2.968771  0  0  0.019031  0.110863  0  2.982113  0
S  S57  1  0.96589475  0.00284060  0.85548825  1  0  0.078046  0  2.571337  0  0  0.106895  0  2.976386  0  0  0.101454  0  2.968757  0  0  0.019026  0.110865  0  2.982106  0
S  S58  1  0.53410100  0.50284329  0.35549007  1  0  0.078115  0  2.571329  0  0  0.106919  0  2.976409  0  0  0.101482  0  2.968763  0  0  0.01902  0.110882  0  2.982129  0
S  S59  1  0.03410010  0.99715705  0.14451043  1  0  0.07818  0  2.571377  0  0  0.10697  0  2.97639  0  0  0.101532  0  2.968748  0  0  0.019049  0.110931  0  2.982112  0
N  N60  1  0.79974944  0.14800602  0.45986339  1  0  0.691702  0  4.127517  0  0  0.73613  0  4.399914  0  0  0.751999  0  4.423869  0  0  0.094337  0.716919  0  4.395721  0
N  N61  1  0.29974936  0.35200188  0.04013765  1  0  0.691611  0  4.127503  0  0  0.735961  0  4.399978  0  0  0.764753  0  4.405482  0  0  0.094309  0.716757  0  4.395775  0
N  N62  1  0.20025769  0.85198962  0.54012558  1  0  0.691711  0  4.127312  0  0  0.736047  0  4.399854  0  0  0.75188  0  4.423863  0  0  0.09436  0.716841  0  4.395657  0
N  N63  1  0.70025317  0.64800750  0.95987594  1  0  0.691705  0  4.127385  0  0  0.73612  0  4.399746  0  0  0.751936  0  4.423797  0  0  0.094384  0.716914  0  4.395548  0
O  O64  1  0.01088324  0.62728826  0.68782633  1  0  -0.553923  0  2.13525  0  0  -0.500473  0  2.385154  0  0  -0.517711  0  2.372132  0  0  -0.415959  -0.487968  0  2.394389  0
O  O65  1  0.51089055  0.87271006  0.81217427  1  0  -0.554097  0  2.135311  0  0  -0.500646  0  2.385234  0  0  -0.517889  0  2.372201  0  0  -0.415961  -0.488139  0  2.394473  0
O  O66  1  0.98911161  0.37270814  0.31218153  1  0  -0.55392  0  2.135447  0  0  -0.500471  0  2.385362  0  0  -0.517717  0  2.372315  0  0  -0.415862  -0.48795  0  2.394563  0
O  O67  1  0.48910430  0.12729313  0.18781882  1  0  -0.554021  0  2.135159  0  0  -0.500589  0  2.385097  0  0  -0.51783  0  2.372  0  0  -0.415918  -0.488073  0  2.39431  0
O  O68  1  0.82932903  0.28607031  0.47187471  1  0  -0.501338  0  1.829413  0  0  -0.47643  0  2.056003  0  0  -0.491442  0  2.053198  0  0  -0.204585  -0.463278  0  2.061155  0
O  O69  1  0.32932906  0.21393648  0.02812610  1  0  -0.501289  0  1.829457  0  0  -0.476385  0  2.056087  0  0  -0.495633  0  2.048298  0  0  -0.204555  -0.463236  0  2.061238  0
O  O70  1  0.17067350  0.71393055  0.52812739  1  0  -0.501363  0  1.829374  0  0  -0.476492  0  2.056012  0  0  -0.491499  0  2.053235  0  0  -0.204627  -0.463342  0  2.061166  0
O  O71  1  0.67067654  0.78606663  0.97187132  1  0  -0.50133  0  1.82937  0  0  -0.476447  0  2.056001  0  0  -0.491441  0  2.053221  0  0  -0.204588  -0.463296  0  2.061154  0
O  O72  1  0.76109512  0.09819590  0.53518356  1  0  -0.454029  0  1.752594  0  0  -0.441517  0  1.96647  0  0  -0.45287  0  1.965296  0  0  -0.192989  -0.43039  0  1.970294  0
O  O73  1  0.26107800  0.40180674  0.96481636  1  0  -0.454023  0  1.752383  0  0  -0.441477  0  1.966311  0  0  -0.457172  0  1.959826  0  0  -0.192971  -0.430341  0  1.970118  0
O  O74  1  0.23892122  0.90179951  0.46481908  1  0  -0.4538  0  1.753019  0  0  -0.441331  0  1.967012  0  0  -0.452638  0  1.965779  0  0  -0.192865  -0.430195  0  1.970817  0
O  O75  1  0.73892145  0.59820178  0.03518338  1  0  -0.45383  0  1.753031  0  0  -0.441394  0  1.966973  0  0  -0.452693  0  1.965741  0  0  -0.192896  -0.430249  0  1.970759  0
O  O76  1  0.80990798  0.06739702  0.37440196  1  0  -0.44628  0  1.780653  0  0  -0.441534  0  2.002306  0  0  -0.450845  0  2.000436  0  0  -0.179643  -0.43213  0  2.007124  0
O  O77  1  0.30992567  0.43260980  0.12559816  1  0  -0.446215  0  1.780729  0  0  -0.441464  0  2.002428  0  0  -0.455158  0  1.995129  0  0  -0.179661  -0.432075  0  2.007262  0
O  O78  1  0.19008533  0.93260379  0.62560301  1  0  -0.446431  0  1.779954  0  0  -0.441595  0  2.001599  0  0  -0.450885  0  1.999751  0  0  -0.179755  -0.432195  0  2.006427  0
O  O79  1  0.69006918  0.56739004  0.87440016  1  0  -0.446446  0  1.779887  0  0  -0.441649  0  2.001532  0  0  -0.450947  0  1.999694  0  0  -0.179799  -0.432259  0  2.00637  0
