# generated using pymatgen
data_CdH5(C2N3)3
_symmetry_space_group_name_H-M   'P 1'
_cell_length_a   8.10585683
_cell_length_b   8.73792670
_cell_length_c   15.50810250
_cell_angle_alpha   89.99991351
_cell_angle_beta   89.99999101
_cell_angle_gamma   117.62685287
_symmetry_Int_Tables_number   1
_chemical_formula_structural   CdH5(C2N3)3
_chemical_formula_sum   'Cd4 H20 C24 N36'
_cell_volume   973.17964948
_cell_formula_units_Z   4
loop_
 _symmetry_equiv_pos_site_id
 _symmetry_equiv_pos_as_xyz
  1  'x, y, z'
loop_
 _atom_site_type_symbol
 _atom_site_label
 _atom_site_symmetry_multiplicity
 _atom_site_fract_x
 _atom_site_fract_y
 _atom_site_fract_z
 _atom_site_occupancy
 _atom_site_hle17_bader_spin_density
 _atom_site_hle17_ddec_charge
 _atom_site_hle17_ddec_spin_density
 _atom_site_hle17_ddec_sum_bond_order
 _atom_site_hle17_magmom
 _atom_site_hse06_10hf_bader_spin_density
 _atom_site_hse06_10hf_ddec_charge
 _atom_site_hse06_10hf_ddec_spin_density
 _atom_site_hse06_10hf_ddec_sum_bond_order
 _atom_site_hse06_10hf_magmom
 _atom_site_hse06_bader_spin_density
 _atom_site_hse06_ddec_charge
 _atom_site_hse06_ddec_spin_density
 _atom_site_hse06_ddec_sum_bond_order
 _atom_site_hse06_magmom
 _atom_site_pbe_bader_spin_density
 _atom_site_pbe_cm5_charge
 _atom_site_pbe_ddec_charge
 _atom_site_pbe_ddec_spin_density
 _atom_site_pbe_ddec_sum_bond_order
 _atom_site_pbe_magmom
Cd  Cd0  1  0.98757180  0.22230673  0.05556243  1  0  1.01054  0  1.944035  0  0  0.825319  0  2.420231  0  0  0.870437  0  2.38185  0  0  0.806856  0.793762  0  2.446132  0
Cd  Cd1  1  0.01242801  0.77769242  0.55556216  1  0  1.010543  0  1.944045  0  0  0.825316  0  2.420248  0  0  0.870433  0  2.381868  0  0  0.80684  0.793761  0  2.446148  0
Cd  Cd2  1  0.76518478  0.77761542  0.05552481  1  0  1.010605  0  1.944195  0  0  0.82534  0  2.42016  0  0  0.870444  0  2.381837  0  0  0.806833  0.793804  0  2.44602  0
Cd  Cd3  1  0.23481691  0.22238501  0.55552498  1  0  1.010595  0  1.944235  0  0  0.825335  0  2.4202  0  0  0.87044  0  2.381877  0  0  0.806835  0.7938  0  2.446059  0
H  H4  1  0.29142149  0.89393736  0.35816786  1  0  0.292727  0  0.908516  0  0  0.279402  0  0.982401  0  0  0.284309  0  0.977753  0  0  0.302698  0.275824  0  0.98533  0
H  H5  1  0.70857775  0.10606329  0.85816681  1  0  0.292738  0  0.908524  0  0  0.2794  0  0.982416  0  0  0.284314  0  0.977759  0  0  0.302704  0.275823  0  0.985345  0
H  H6  1  0.39749264  0.10614178  0.35810564  1  0  0.291839  0  0.909555  0  0  0.279236  0  0.982566  0  0  0.284132  0  0.977927  0  0  0.302657  0.27568  0  0.985472  0
H  H7  1  0.60250906  0.89385887  0.85810587  1  0  0.29181  0  0.909584  0  0  0.279198  0  0.982608  0  0  0.284095  0  0.97797  0  0  0.302635  0.275643  0  0.985512  0
H  H8  1  0.68134048  0.81228138  0.24530623  1  0  0.086399  0  0.973481  0  0  0.086378  0  1.052203  0  0  0.089242  0  1.049241  0  0  0.112732  0.084232  0  1.054453  0
H  H9  1  0.31865588  0.18771838  0.74530708  1  0  0.086414  0  0.973418  0  0  0.086398  0  1.052133  0  0  0.089262  0  1.049171  0  0  0.112743  0.084252  0  1.054381  0
H  H10  1  0.86906123  0.18757435  0.24542643  1  0  0.085785  0  0.974097  0  0  0.085721  0  1.052777  0  0  0.088625  0  1.049763  0  0  0.112378  0.083562  0  1.055014  0
H  H11  1  0.13093883  0.81242541  0.74542611  1  0  0.085798  0  0.974089  0  0  0.085737  0  1.05276  0  0  0.088642  0  1.049743  0  0  0.112367  0.083577  0  1.054996  0
H  H12  1  0.49353854  0.65640941  0.37252755  1  0  0.117512  0  0.942108  0  0  0.124479  0  1.003308  0  0  0.127337  0  1.003205  0  0  0.112718  0.122391  0  1.003642  0
H  H13  1  0.50645756  0.34358989  0.87252760  1  0  0.117498  0  0.942101  0  0  0.124462  0  1.003314  0  0  0.127319  0  1.003212  0  0  0.112716  0.122381  0  1.003641  0
H  H14  1  0.83742074  0.34354537  0.37267920  1  0  0.117859  0  0.942405  0  0  0.12457  0  1.003659  0  0  0.127522  0  1.003416  0  0  0.112877  0.122436  0  1.004048  0
H  H15  1  0.16258028  0.65645393  0.87267901  1  0  0.117823  0  0.942409  0  0  0.124559  0  1.003638  0  0  0.127511  0  1.003396  0  0  0.112867  0.122425  0  1.004028  0
H  H16  1  0.27902165  0.33676838  0.36056491  1  0  0.100096  0  0.982407  0  0  0.104969  0  1.055242  0  0  0.107737  0  1.05316  0  0  0.10583  0.102925  0  1.056803  0
H  H17  1  0.72097940  0.66323097  0.86056467  1  0  0.10009  0  0.98239  0  0  0.104964  0  1.055219  0  0  0.10773  0  1.053142  0  0  0.105832  0.10292  0  1.05678  0
H  H18  1  0.94252275  0.66323296  0.36069629  1  0  0.098664  0  0.983946  0  0  0.104796  0  1.055722  0  0  0.107428  0  1.053774  0  0  0.105724  0.102789  0  1.057272  0
H  H19  1  0.05747889  0.33676510  0.86069574  1  0  0.098679  0  0.98394  0  0  0.10479  0  1.055726  0  0  0.107438  0  1.053771  0  0  0.105727  0.102772  0  1.057279  0
H  H20  1  0.48984109  0.35813889  0.10253397  1  0  0.092804  0  0.933819  0  0  0.097926  0  1.002367  0  0  0.100281  0  1.000498  0  0  0.119734  0.096088  0  1.003928  0
H  H21  1  0.51015986  0.64186008  0.60253377  1  0  0.092816  0  0.93386  0  0  0.097944  0  1.0024  0  0  0.100299  0  1.000531  0  0  0.119737  0.096106  0  1.003966  0
H  H22  1  0.13161567  0.64162429  0.10257771  1  0  0.093237  0  0.934052  0  0  0.098096  0  1.002774  0  0  0.100529  0  1.000825  0  0  0.119903  0.096254  0  1.004326  0
H  H23  1  0.86838469  0.35837598  0.60257772  1  0  0.09324  0  0.934031  0  0  0.098096  0  1.002761  0  0  0.10053  0  1.000812  0  0  0.119907  0.096255  0  1.004314  0
C  C24  1  0.24225824  0.14130167  0.21447685  1  0  0.245288  0  3.726872  0  0  0.197856  0  3.998031  0  0  0.219777  0  4.013966  0  0  0.231666  0.188346  0  3.988269  0
C  C25  1  0.75774312  0.85869820  0.71447708  1  0  0.24534  0  3.726796  0  0  0.197876  0  3.998006  0  0  0.219796  0  4.01394  0  0  0.231681  0.188335  0  3.988285  0
C  C26  1  0.10090797  0.85850021  0.21449460  1  0  0.247016  0  3.724562  0  0  0.198715  0  3.997135  0  0  0.220619  0  4.013067  0  0  0.231994  0.189255  0  3.987292  0
C  C27  1  0.89909275  0.14149837  0.71449415  1  0  0.246894  0  3.724706  0  0  0.198677  0  3.997182  0  0  0.220581  0  4.013112  0  0  0.231988  0.189219  0  3.987334  0
C  C28  1  0.59384561  0.67270706  0.24329187  1  0  0.134157  0  3.67563  0  0  0.102511  0  3.927805  0  0  0.110546  0  3.945099  0  0  0.04775  0.097384  0  3.916074  0
C  C29  1  0.40615076  0.32729271  0.74329258  1  0  0.134163  0  3.675568  0  0  0.102519  0  3.927742  0  0  0.110553  0  3.945039  0  0  0.04775  0.097393  0  3.916011  0
C  C30  1  0.92122522  0.32719381  0.24340033  1  0  0.13456  0  3.675169  0  0  0.103147  0  3.926963  0  0  0.111141  0  3.944343  0  0  0.048161  0.098052  0  3.915183  0
C  C31  1  0.07877173  0.67280467  0.74340014  1  0  0.134558  0  3.675151  0  0  0.10313  0  3.926937  0  0  0.111124  0  3.944319  0  0  0.04822  0.098037  0  3.915156  0
C  C32  1  0.48670154  0.58449157  0.31417550  1  0  -0.096232  0  3.693256  0  0  -0.107651  0  3.94531  0  0  -0.115513  0  3.967192  0  0  -0.078301  -0.10284  0  3.930901  0
C  C33  1  0.51329650  0.41550665  0.81417549  1  0  -0.096208  0  3.693186  0  0  -0.107625  0  3.945231  0  0  -0.115486  0  3.967114  0  0  -0.078302  -0.102821  0  3.930819  0
C  C34  1  0.90240541  0.41547222  0.31429678  1  0  -0.097056  0  3.693134  0  0  -0.108064  0  3.945141  0  0  -0.115968  0  3.966993  0  0  -0.078322  -0.103223  0  3.930738  0
C  C35  1  0.09759510  0.58452600  0.81429602  1  0  -0.097008  0  3.693125  0  0  -0.108041  0  3.945125  0  0  -0.115946  0  3.966984  0  0  -0.078317  -0.1032  0  3.930719  0
C  C36  1  0.37129806  0.40710184  0.30761127  1  0  -0.029292  0  3.683711  0  0  -0.060561  0  3.933345  0  0  -0.055661  0  3.950821  0  0  -0.064797  -0.063473  0  3.921682  0
C  C37  1  0.62870123  0.59289641  0.80761110  1  0  -0.029255  0  3.683782  0  0  -0.060517  0  3.933436  0  0  -0.055616  0  3.950906  0  0  -0.064773  -0.06343  0  3.921774  0
C  C38  1  0.96416536  0.59282574  0.30768403  1  0  -0.027312  0  3.682894  0  0  -0.059705  0  3.932302  0  0  -0.054715  0  3.94991  0  0  -0.064798  -0.062656  0  3.920583  0
C  C39  1  0.03583452  0.40717122  0.80768342  1  0  -0.027349  0  3.682889  0  0  -0.059718  0  3.932311  0  0  -0.05475  0  3.949904  0  0  -0.064815  -0.062657  0  3.920597  0
C  C40  1  0.37045317  0.32342089  0.23045422  1  0  -0.047109  0  3.790381  0  0  -0.021536  0  4.027018  0  0  -0.029919  0  4.049674  0  0  -0.003667  -0.016485  0  4.011426  0
C  C41  1  0.62954751  0.67657763  0.73045462  1  0  -0.047216  0  3.790436  0  0  -0.02166  0  4.027127  0  0  -0.03004  0  4.049778  0  0  -0.00372  -0.0166  0  4.011541  0
C  C42  1  0.04702381  0.67642604  0.23050889  1  0  -0.046185  0  3.789755  0  0  -0.020725  0  4.027244  0  0  -0.029047  0  4.049816  0  0  -0.002819  -0.015683  0  4.011628  0
C  C43  1  0.95297810  0.32357248  0.73050763  1  0  -0.046144  0  3.789801  0  0  -0.020709  0  4.027275  0  0  -0.02903  0  4.049849  0  0  -0.002828  -0.015667  0  4.011657  0
C  C44  1  0.48634611  0.42085242  0.16285660  1  0  0.109629  0  3.662386  0  0  0.068036  0  3.915078  0  0  0.07619  0  3.93263  0  0  0.052425  0.062793  0  3.903373  0
C  C45  1  0.51365412  0.57914763  0.66285646  1  0  0.109657  0  3.662321  0  0  0.068075  0  3.915018  0  0  0.076229  0  3.932569  0  0  0.052443  0.062829  0  3.903317  0
C  C46  1  0.06537805  0.57896199  0.16289847  1  0  0.108248  0  3.664727  0  0  0.067076  0  3.917327  0  0  0.075145  0  3.934872  0  0  0.051782  0.061794  0  3.905729  0
C  C47  1  0.93462154  0.42103677  0.66289906  1  0  0.108269  0  3.664715  0  0  0.067081  0  3.917312  0  0  0.075149  0  3.934857  0  0  0.05179  0.061798  0  3.905719  0
N  N48  1  0.79125959  0.30365174  0.97131467  1  0  -0.499635  0  2.580168  0  0  -0.47578  0  2.847266  0  0  -0.491695  0  2.854986  0  0  -0.256022  -0.464773  0  2.842021  0
N  N49  1  0.20874252  0.69634980  0.47131590  1  0  -0.499586  0  2.580103  0  0  -0.475733  0  2.847204  0  0  -0.491647  0  2.854921  0  0  -0.255989  -0.464724  0  2.841958  0
N  N50  1  0.48766389  0.69630717  0.97121779  1  0  -0.499501  0  2.579621  0  0  -0.476061  0  2.846622  0  0  -0.491989  0  2.854357  0  0  -0.256119  -0.465047  0  2.841366  0
N  N51  1  0.51233758  0.30369307  0.47121740  1  0  -0.499488  0  2.579678  0  0  -0.476051  0  2.84668  0  0  -0.491977  0  2.854416  0  0  -0.256107  -0.465035  0  2.841419  0
N  N52  1  0.81641639  0.44792858  0.97843089  1  0  0.406326  0  4.257586  0  0  0.438296  0  4.536585  0  0  0.454869  0  4.567309  0  0  0.083162  0.427237  0  4.515638  0
N  N53  1  0.18358506  0.55207164  0.47843095  1  0  0.406288  0  4.257579  0  0  0.438258  0  4.536579  0  0  0.45483  0  4.567305  0  0  0.083133  0.4272  0  4.51563  0
N  N54  1  0.36849954  0.55207185  0.97841281  1  0  0.405683  0  4.257155  0  0  0.438212  0  4.535665  0  0  0.45478  0  4.56638  0  0  0.082883  0.427159  0  4.514729  0
N  N55  1  0.63150004  0.44792707  0.47841228  1  0  0.405685  0  4.257108  0  0  0.438228  0  4.535603  0  0  0.454796  0  4.566319  0  0  0.082923  0.427177  0  4.514666  0
N  N56  1  0.84634143  0.59378490  0.98198445  1  0  -0.50661  0  2.646176  0  0  -0.48068  0  2.931797  0  0  -0.499747  0  2.940142  0  0  -0.267163  -0.467382  0  2.925896  0
N  N57  1  0.15366002  0.40621530  0.48198464  1  0  -0.506631  0  2.646229  0  0  -0.480703  0  2.931857  0  0  -0.499768  0  2.940201  0  0  -0.267174  -0.467407  0  2.925961  0
N  N58  1  0.25253650  0.40626940  0.98205291  1  0  -0.50586  0  2.645897  0  0  -0.480678  0  2.931983  0  0  -0.4997  0  2.940229  0  0  -0.266893  -0.467382  0  2.926095  0
N  N59  1  0.74746494  0.59373080  0.48205353  1  0  -0.505872  0  2.645805  0  0  -0.480718  0  2.931905  0  0  -0.499743  0  2.940155  0  0  -0.266944  -0.467421  0  2.926018  0
N  N60  1  0.93793697  0.00001578  0.95620012  1  0  -0.631821  0  2.750726  0  0  -0.585322  0  3.057478  0  0  -0.612546  0  3.065307  0  0  -0.344536  -0.566577  0  3.051781  0
N  N61  1  0.06206517  0.99998580  0.45620045  1  0  -0.631861  0  2.750589  0  0  -0.585343  0  3.057334  0  0  -0.612568  0  3.065157  0  0  -0.344531  -0.566592  0  3.051634  0
N  N62  1  0.06123664  0.00008057  0.91210578  1  0  0.405817  0  4.222671  0  0  0.43681  0  4.507856  0  0  0.453163  0  4.536548  0  0  0.081812  0.425844  0  4.488304  0
N  N63  1  0.93876125  0.99991988  0.41210540  1  0  0.40585  0  4.22257  0  0  0.43682  0  4.507791  0  0  0.453175  0  4.536478  0  0  0.081812  0.425855  0  4.488241  0
N  N64  1  0.17673053  0.00015385  0.86747749  1  0  -0.361527  0  2.397096  0  0  -0.360924  0  2.62497  0  0  -0.366216  0  2.633156  0  0  -0.179539  -0.35716  0  2.619687  0
N  N65  1  0.82326868  0.99984676  0.36747906  1  0  -0.361506  0  2.397144  0  0  -0.360891  0  2.62502  0  0  -0.36619  0  2.633217  0  0  -0.17952  -0.357126  0  2.619738  0
N  N66  1  0.71173976  0.99995588  0.11414246  1  0  -0.62701  0  2.76675  0  0  -0.576533  0  3.061835  0  0  -0.60474  0  3.070467  0  0  -0.341602  -0.557025  0  3.055566  0
N  N67  1  0.28825993  0.00004306  0.61414282  1  0  -0.627073  0  2.766671  0  0  -0.576588  0  3.061765  0  0  -0.604799  0  3.070396  0  0  -0.341587  -0.557079  0  3.055495  0
N  N68  1  0.56501443  0.99998439  0.09959717  1  0  0.401602  0  4.231128  0  0  0.437511  0  4.511292  0  0  0.454017  0  4.54026  0  0  0.078375  0.426388  0  4.491609  0
N  N69  1  0.43498905  0.00001719  0.59959752  1  0  0.401804  0  4.231089  0  0  0.437701  0  4.511254  0  0  0.454207  0  4.540218  0  0  0.078439  0.426576  0  4.491575  0
N  N70  1  0.42357949  0.00000858  0.08713572  1  0  -0.358437  0  2.416476  0  0  -0.375956  0  2.6552  0  0  -0.380988  0  2.664752  0  0  -0.193637  -0.372222  0  2.648618  0
N  N71  1  0.57642096  0.99999433  0.58713715  1  0  -0.358587  0  2.416562  0  0  -0.376102  0  2.655294  0  0  -0.381132  0  2.664841  0  0  -0.193703  -0.37237  0  2.648715  0
N  N72  1  0.59398786  0.59228384  0.16912099  1  0  -0.334945  0  3.273781  0  0  -0.257508  0  3.540596  0  0  -0.277578  0  3.560609  0  0  -0.331677  -0.243954  0  3.526733  0
N  N73  1  0.40601295  0.40771490  0.66912100  1  0  -0.334978  0  3.273733  0  0  -0.257565  0  3.54058  0  0  -0.277635  0  3.560592  0  0  -0.331705  -0.244011  0  3.526718  0
N  N74  1  0.00165635  0.40754035  0.16918622  1  0  -0.33477  0  3.274504  0  0  -0.257483  0  3.541205  0  0  -0.277558  0  3.561279  0  0  -0.331764  -0.243917  0  3.527315  0
N  N75  1  0.99834446  0.59245839  0.66918538  1  0  -0.33482  0  3.274543  0  0  -0.257488  0  3.5412  0  0  -0.277562  0  3.561272  0  0  -0.331812  -0.243923  0  3.527311  0
N  N76  1  0.11829731  0.08720544  0.15062058  1  0  -0.273272  0  3.160567  0  0  -0.227952  0  3.452538  0  0  -0.2418  0  3.466752  0  0  -0.225465  -0.218291  0  3.440925  0
N  N77  1  0.88170418  0.91279466  0.65062011  1  0  -0.273353  0  3.160544  0  0  -0.228024  0  3.452555  0  0  -0.241871  0  3.466767  0  0  -0.225519  -0.218356  0  3.440956  0
N  N78  1  0.03097367  0.91253549  0.15063506  1  0  -0.275521  0  3.160468  0  0  -0.229718  0  3.45256  0  0  -0.243571  0  3.466785  0  0  -0.225914  -0.220062  0  3.440924  0
N  N79  1  0.96902905  0.08746461  0.65063529  1  0  -0.275358  0  3.160393  0  0  -0.229572  0  3.452429  0  0  -0.243425  0  3.466656  0  0  -0.225847  -0.219916  0  3.440789  0
N  N80  1  0.35857185  0.99999087  0.31887481  1  0  -0.466111  0  2.838436  0  0  -0.482231  0  3.064109  0  0  -0.485558  0  3.071681  0  0  -0.475308  -0.473671  0  3.062586  0
N  N81  1  0.64142929  0.00000862  0.81887449  1  0  -0.466085  0  2.838466  0  0  -0.482181  0  3.064143  0  0  -0.485516  0  3.071705  0  0  -0.475277  -0.473622  0  3.062617  0
N  N82  1  0.23145167  0.99991732  0.25760942  1  0  0.021812  0  3.535632  0  0  0.120663  0  3.73863  0  0  0.086242  0  3.787328  0  0  -0.122608  0.127816  0  3.724145  0
N  N83  1  0.76854895  0.00008110  0.75760910  1  0  0.021832  0  3.535686  0  0  0.120667  0  3.738667  0  0  0.086246  0  3.787368  0  0  -0.122617  0.127829  0  3.724188  0
