# generated using pymatgen
data_CdH20C28N4(Cl3O2)2
_symmetry_space_group_name_H-M   'P 1'
_cell_length_a   9.32730613
_cell_length_b   13.98124021
_cell_length_c   13.98117881
_cell_angle_alpha   77.10190580
_cell_angle_beta   70.55183406
_cell_angle_gamma   70.55149420
_symmetry_Int_Tables_number   1
_chemical_formula_structural   CdH20C28N4(Cl3O2)2
_chemical_formula_sum   'Cd2 H40 C56 N8 Cl12 O8'
_cell_volume   1608.12675067
_cell_formula_units_Z   2
loop_
 _symmetry_equiv_pos_site_id
 _symmetry_equiv_pos_as_xyz
  1  'x, y, z'
loop_
 _atom_site_type_symbol
 _atom_site_label
 _atom_site_symmetry_multiplicity
 _atom_site_fract_x
 _atom_site_fract_y
 _atom_site_fract_z
 _atom_site_occupancy
 _atom_site_hle17_bader_spin_density
 _atom_site_hle17_ddec_charge
 _atom_site_hle17_ddec_spin_density
 _atom_site_hle17_ddec_sum_bond_order
 _atom_site_hle17_magmom
 _atom_site_hse06_10hf_bader_charge
 _atom_site_hse06_10hf_bader_spin_density
 _atom_site_hse06_10hf_ddec_charge
 _atom_site_hse06_10hf_ddec_spin_density
 _atom_site_hse06_10hf_ddec_sum_bond_order
 _atom_site_hse06_10hf_magmom
 _atom_site_hse06_bader_spin_density
 _atom_site_hse06_ddec_charge
 _atom_site_hse06_ddec_spin_density
 _atom_site_hse06_ddec_sum_bond_order
 _atom_site_hse06_magmom
 _atom_site_pbe_bader_spin_density
 _atom_site_pbe_cm5_charge
 _atom_site_pbe_ddec_charge
 _atom_site_pbe_ddec_spin_density
 _atom_site_pbe_ddec_sum_bond_order
 _atom_site_pbe_magmom
Cd  Cd0  1  0.49999782  0.22807547  0.77192692  1  0  1.041953  0  1.812147  0  1.295341  0  0.83193  0  2.27167  0  0  0.884499  0  2.227783  0  0  0.789098  0.795056  0  2.301356  0
Cd  Cd1  1  0.50000477  0.72776834  0.27222615  1  0  1.043214  0  1.807426  0  1.296112  0  0.833006  0  2.266081  0  0  0.885896  0  2.222112  0  0  0.787418  0.795858  0  2.29582  0
H  H2  1  0.27918420  0.45068271  0.83958086  1  0  0.063417  0  0.993214  0  0.088854  0  0.065832  0  1.072641  0  0  0.0683  0  1.070062  0  0  0.098385  0.06403  0  1.074447  0
H  H3  1  0.72082168  0.16042500  0.54931715  1  0  0.063407  0  0.993311  0  0.088548  0  0.065816  0  1.072733  0  0  0.068283  0  1.070155  0  0  0.098372  0.064013  0  1.074551  0
H  H4  1  0.43025918  0.95059731  0.33985350  1  0  0.062235  0  0.99202  0  0.107577  0  0.065082  0  1.071159  0  0  0.067558  0  1.068617  0  0  0.097694  0.063264  0  1.072967  0
H  H5  1  0.56972323  0.66015767  0.04939746  1  0  0.062263  0  0.991809  0  0.107723  0  0.065083  0  1.071006  0  0  0.067556  0  1.068463  0  0  0.097716  0.063279  0  1.072794  0
H  H6  1  0.28989528  0.62784361  0.82619060  1  0  0.100333  0  0.963567  0  0.090557  0  0.109804  0  1.026257  0  0  0.112419  0  1.026304  0  0  0.100551  0.107937  0  1.026375  0
H  H7  1  0.71010124  0.17381313  0.37215815  1  0  0.100303  0  0.963711  0  0.090606  0  0.109813  0  1.026365  0  0  0.11243  0  1.026408  0  0  0.100534  0.107945  0  1.026492  0
H  H8  1  0.25632682  0.12788908  0.32620739  1  0  0.099943  0  0.963789  0  0.084691  0  0.109243  0  1.026835  0  0  0.111809  0  1.026912  0  0  0.100011  0.107408  0  1.026939  0
H  H9  1  0.74366695  0.67378877  0.87211218  1  0  0.099933  0  0.963668  0  0.084645  0  0.109218  0  1.026746  0  0  0.111774  0  1.026847  0  0  0.100004  0.107385  0  1.026851  0
H  H10  1  0.74650827  0.54687207  0.60275598  1  0  0.117097  0  0.933543  0  0.105432  0  0.131414  0  0.984344  0  0  0.134568  0  0.983261  0  0  0.109006  0.129117  0  0.985334  0
H  H11  1  0.25348878  0.39724659  0.45312818  1  0  0.117113  0  0.933449  0  0.105429  0  0.131427  0  0.984276  0  0  0.134587  0  0.983189  0  0  0.108993  0.129118  0  0.98527  0
H  H12  1  0.10420015  0.04700928  0.10236501  1  0  0.117231  0  0.934707  0  0.077629  0  0.13188  0  0.98513  0  0  0.13513  0  0.983959  0  0  0.109158  0.129513  0  0.986198  0
H  H13  1  0.89580141  0.89762962  0.95299376  1  0  0.117352  0  0.934672  0  0.077587  0  0.131925  0  0.985165  0  0  0.13517  0  0.984005  0  0  0.109172  0.129557  0  0.986231  0
H  H14  1  0.72279937  0.36742105  0.63427484  1  0  0.080438  0  0.959832  0  0.111358  0  0.083836  0  1.034148  0  0  0.086582  0  1.031404  0  0  0.107211  0.081808  0  1.036174  0
H  H15  1  0.27720172  0.36573028  0.63258055  1  0  0.080478  0  0.959751  0  0.111328  0  0.083856  0  1.03409  0  0  0.086602  0  1.031347  0  0  0.107184  0.081823  0  1.036118  0
H  H16  1  0.27562125  0.86742961  0.13405478  1  0  0.079953  0  0.959339  0  0.136333  0  0.083223  0  1.033685  0  0  0.085941  0  1.030968  0  0  0.107031  0.081198  0  1.035704  0
H  H17  1  0.72437637  0.86594511  0.13257278  1  0  0.079924  0  0.959353  0  0.136415  0  0.083213  0  1.033687  0  0  0.085933  0  1.030968  0  0  0.10706  0.081186  0  1.035706  0
H  H18  1  0.63417669  0.72361533  0.64268470  1  0  0.109529  0  0.953492  0  0.128633  0  0.119118  0  1.017305  0  0  0.122631  0  1.014874  0  0  0.104286  0.116543  0  1.019112  0
H  H19  1  0.36582063  0.35731436  0.27639231  1  0  0.109516  0  0.953472  0  0.128598  0  0.119082  0  1.017315  0  0  0.122597  0  1.014878  0  0  0.104293  0.116504  0  1.01912  0
H  H20  1  0.99982440  0.22371108  0.14270174  1  0  0.110588  0  0.954706  0  0.08769  0  0.120182  0  1.01827  0  0  0.123762  0  1.015758  0  0  0.104906  0.117607  0  1.020079  0
H  H21  1  0.00017734  0.85729040  0.77629456  1  0  0.110661  0  0.954808  0  0.087768  0  0.120319  0  1.018278  0  0  0.123901  0  1.015762  0  0  0.104959  0.117746  0  1.020088  0
H  H22  1  0.38200072  0.73672384  0.85361809  1  0  0.082767  0  0.980782  0  0.087503  0  0.089093  0  1.053491  0  0  0.091828  0  1.052298  0  0  0.09257  0.087143  0  1.054376  0
H  H23  1  0.61800689  0.14638231  0.26328045  1  0  0.082844  0  0.98076  0  0.08729  0  0.089155  0  1.05347  0  0  0.091889  0  1.05228  0  0  0.092584  0.087205  0  1.054359  0
H  H24  1  0.02809043  0.23642580  0.35384178  1  0  0.083714  0  0.98252  0  0.051694  0  0.089898  0  1.055306  0  0  0.092629  0  1.054127  0  0  0.093073  0.08794  0  1.056215  0
H  H25  1  0.97192449  0.64615053  0.76357229  1  0  0.083628  0  0.982327  0  0.051917  0  0.089808  0  1.055164  0  0  0.092536  0  1.053986  0  0  0.093006  0.087857  0  1.056058  0
H  H26  1  0.70332803  0.85154671  0.65930238  1  0  0.100023  0  0.977338  0  0.123483  0  0.106051  0  1.046827  0  0  0.109049  0  1.046185  0  0  0.097523  0.103906  0  1.047434  0
H  H27  1  0.29667313  0.34069668  0.14845846  1  0  0.100072  0  0.977272  0  0.123433  0  0.106085  0  1.046788  0  0  0.109077  0  1.046163  0  0  0.097507  0.103933  0  1.047378  0
H  H28  1  0.78621914  0.35116519  0.15944182  1  0  0.099749  0  0.976542  0  0.097876  0  0.106193  0  1.04565  0  0  0.109196  0  1.045062  0  0  0.096937  0.104034  0  1.046264  0
H  H29  1  0.21378656  0.84055863  0.64882914  1  0  0.099812  0  0.976662  0  0.097966  0  0.10619  0  1.045819  0  0  0.109192  0  1.045232  0  0  0.096952  0.104031  0  1.046438  0
H  H30  1  0.71438128  0.02342214  0.66675769  1  0  0.065782  0  0.974086  0  0.115149  0  0.072228  0  1.046367  0  0  0.07396  0  1.044784  0  0  0.10527  0.070898  0  1.04759  0
H  H31  1  0.28561531  0.33324371  0.97658501  1  0  0.06576  0  0.974052  0  0.11487  0  0.072171  0  1.046408  0  0  0.0739  0  1.044816  0  0  0.105253  0.070836  0  1.047626  0
H  H32  1  0.59567456  0.52295243  0.16708145  1  0  0.065743  0  0.973644  0  0.106081  0  0.072286  0  1.045927  0  0  0.074071  0  1.044363  0  0  0.104447  0.0709  0  1.047182  0
H  H33  1  0.40433390  0.83292253  0.47703819  1  0  0.065743  0  0.973685  0  0.106075  0  0.072308  0  1.045957  0  0  0.074078  0  1.04441  0  0  0.104448  0.070922  0  1.047212  0
H  H34  1  0.30671069  0.07374180  0.91027437  1  0  0.088783  0  0.964154  0  0.133234  0  0.094031  0  1.033175  0  0  0.0975  0  1.02979  0  0  0.112458  0.091472  0  1.035611  0
H  H35  1  0.69328089  0.08972548  0.92626249  1  0  0.088875  0  0.964243  0  0.133268  0  0.094121  0  1.03323  0  0  0.097592  0  1.029844  0  0  0.112502  0.091565  0  1.035669  0
H  H36  1  0.70928679  0.57331521  0.41082708  1  0  0.089255  0  0.963331  0  0.126285  0  0.094068  0  1.033057  0  0  0.097435  0  1.029761  0  0  0.1128  0.091486  0  1.035564  0
H  H37  1  0.29071697  0.58917703  0.42667670  1  0  0.089232  0  0.963439  0  0.126231  0  0.094065  0  1.033152  0  0  0.097423  0  1.029866  0  0  0.112793  0.091494  0  1.03564  0
H  H38  1  0.28332329  0.89877018  0.91754084  1  0  0.101595  0  0.949376  0  0.066933  0  0.113831  0  1.006573  0  0  0.116745  0  1.005869  0  0  0.101301  0.111735  0  1.007234  0
H  H39  1  0.71667609  0.08245640  0.10123206  1  0  0.101563  0  0.949425  0  0.066894  0  0.113836  0  1.00658  0  0  0.116751  0  1.005875  0  0  0.101301  0.111741  0  1.007254  0
H  H40  1  0.90060121  0.39846456  0.41799731  1  0  0.10274  0  0.95137  0  0.055246  0  0.114996  0  1.008451  0  0  0.11789  0  1.00778  0  0  0.101494  0.112848  0  1.009178  0
H  H41  1  0.09941478  0.58200580  0.60152723  1  0  0.102681  0  0.951442  0  0.055384  0  0.114979  0  1.008461  0  0  0.117856  0  1.007803  0  0  0.10151  0.112846  0  1.009173  0
C  C42  1  0.38354010  0.47394981  0.79105967  1  0  0.123321  0  3.737453  0  0.497076  0  0.093115  0  3.990717  0  0  0.099681  0  4.009771  0  0  0.0355  0.088944  0  3.977649  0
C  C43  1  0.61646049  0.20894011  0.52605370  1  0  0.123366  0  3.737496  0  0.497219  0  0.093159  0  3.990801  0  0  0.099727  0  4.009843  0  0  0.035502  0.088979  0  3.97776  0
C  C44  1  0.35142982  0.97394366  0.29109269  1  0  0.123032  0  3.737537  0  0.533839  0  0.092606  0  3.99033  0  0  0.099146  0  4.009439  0  0  0.035338  0.088432  0  3.977273  0
C  C45  1  0.64856677  0.70892202  0.02604820  1  0  0.122816  0  3.738134  0  0.533833  0  0.092422  0  3.990951  0  0  0.098975  0  4.01004  0  0  0.035235  0.088245  0  3.977866  0
C  C46  1  0.38993014  0.57314577  0.78238522  1  0  -0.167235  0  3.727856  0  0.006833  0  -0.184115  0  3.971325  0  0  -0.192375  0  3.994148  0  0  -0.091101  -0.178759  0  3.955945  0
C  C47  1  0.61006106  0.21760822  0.42685848  1  0  -0.167237  0  3.728164  0  0.006893  0  -0.184216  0  3.971612  0  0  -0.192444  0  3.994467  0  0  -0.091135  -0.178867  0  3.956251  0
C  C48  1  0.25492551  0.07320393  0.28223181  1  0  -0.164957  0  3.725184  0  -0.020679  0  -0.181198  0  3.968564  0  0  -0.18943  0  3.991461  0  0  -0.08998  -0.175879  0  3.953194  0
C  C49  1  0.74506314  0.71777034  0.92679722  1  0  -0.164902  0  3.725308  0  -0.020324  0  -0.181144  0  3.968713  0  0  -0.189376  0  3.991605  0  0  -0.089967  -0.175828  0  3.953355  0
C  C50  1  0.52454824  0.60146816  0.71669908  1  0  0.140023  0  3.792058  0  -0.005301  0  0.155515  0  4.022173  0  0  0.160616  0  4.045065  0  0  0.006978  0.152283  0  4.006502  0
C  C51  1  0.47543765  0.28329211  0.39854163  1  0  0.139953  0  3.792354  0  -0.004163  0  0.155603  0  4.022287  0  0  0.160599  0  4.045331  0  0  0.007086  0.152369  0  4.006604  0
C  C52  1  0.15775757  0.10149911  0.21648385  1  0  0.141381  0  3.789903  0  -0.01026  0  0.155475  0  4.021833  0  0  0.160606  0  4.044707  0  0  0.008431  0.152219  0  4.006188  0
C  C53  1  0.84224882  0.78350822  0.89850151  1  0  0.141395  0  3.789623  0  -0.011087  0  0.155511  0  4.021518  0  0  0.160644  0  4.044392  0  0  0.008491  0.15224  0  4.005899  0
C  C54  1  0.64292804  0.52739080  0.65801766  1  0  -0.158394  0  3.688661  0  -0.046814  0  -0.176111  0  3.933891  0  0  -0.184106  0  3.954716  0  0  -0.082289  -0.170926  0  3.919848  0
C  C55  1  0.35706606  0.34197237  0.47261611  1  0  -0.158295  0  3.688712  0  -0.047954  0  -0.176071  0  3.933909  0  0  -0.184039  0  3.954772  0  0  -0.082264  -0.170884  0  3.919854  0
C  C56  1  0.17199059  0.02748384  0.15772685  1  0  -0.159691  0  3.689873  0  -0.034519  0  -0.177419  0  3.935205  0  0  -0.185501  0  3.955984  0  0  -0.083088  -0.172209  0  3.921231  0
C  C57  1  0.82801169  0.84226959  0.97251841  1  0  -0.15985  0  3.689912  0  -0.034489  0  -0.177507  0  3.935239  0  0  -0.185591  0  3.956018  0  0  -0.083112  -0.172285  0  3.921258  0
C  C58  1  0.62936850  0.42862721  0.67374634  1  0  0.124092  0  3.721646  0  0.50308  0  0.091492  0  3.977934  0  0  0.098781  0  3.99637  0  0  0.037842  0.086861  0  3.965236  0
C  C59  1  0.37063115  0.32625344  0.57137467  1  0  0.123979  0  3.721593  0  0.503016  0  0.091399  0  3.977878  0  0  0.098686  0  3.99631  0  0  0.037828  0.086759  0  3.965185  0
C  C60  1  0.26826018  0.92868441  0.17362257  1  0  0.127653  0  3.720277  0  0.483258  0  0.095531  0  3.976281  0  0  0.10287  0  3.99471  0  0  0.041071  0.090856  0  3.963579  0
C  C61  1  0.73173570  0.82637923  0.07131367  1  0  0.127705  0  3.72014  0  0.48297  0  0.095574  0  3.976148  0  0  0.102915  0  3.994575  0  0  0.041044  0.090902  0  3.963438  0
C  C62  1  0.54643280  0.70119731  0.71105002  1  0  -0.088431  0  3.6798  0  0.002073  0  -0.108087  0  3.925857  0  0  -0.110255  0  3.94505  0  0  -0.075273  -0.106366  0  3.912531  0
C  C63  1  0.45355569  0.28894299  0.29880893  1  0  -0.088362  0  3.679882  0  0.002337  0  -0.108043  0  3.925908  0  0  -0.110177  0  3.945122  0  0  -0.075402  -0.106327  0  3.912586  0
C  C64  1  0.04166700  0.20120292  0.21104770  1  0  -0.090624  0  3.681791  0  -0.109009  0  -0.109956  0  3.928209  0  0  -0.112173  0  3.947345  0  0  -0.077618  -0.108262  0  3.914931  0
C  C65  1  0.95835384  0.78893940  0.79879673  1  0  -0.090867  0  3.682262  0  -0.108854  0  -0.110244  0  3.92871  0  0  -0.112461  0  3.947841  0  0  -0.07774  -0.10854  0  3.915439  0
C  C66  1  0.46842611  0.76186011  0.78618918  1  0  -0.104001  0  3.720372  0  -0.168814  0  -0.121557  0  3.968777  0  0  -0.125324  0  3.989374  0  0  -0.083429  -0.118836  0  3.954452  0
C  C67  1  0.53157286  0.21380715  0.23814501  1  0  -0.10413  0  3.72064  0  -0.168776  0  -0.121681  0  3.969054  0  0  -0.12545  0  3.989641  0  0  -0.083426  -0.118981  0  3.95474  0
C  C68  1  0.98391334  0.26159612  0.28642857  1  0  -0.106445  0  3.722335  0  0.044297  0  -0.123782  0  3.970731  0  0  -0.127614  0  3.991303  0  0  -0.084509  -0.121053  0  3.956463  0
C  C69  1  0.01609877  0.71356974  0.73840415  1  0  -0.10618  0  3.722201  0  0.044426  0  -0.123538  0  3.970679  0  0  -0.127361  0  3.991243  0  0  -0.084415  -0.120812  0  3.956417  0
C  C70  1  0.48856914  0.86041102  0.78690649  1  0  0.133081  0  3.812671  0  0.005502  0  0.148839  0  4.040976  0  0  0.154309  0  4.064071  0  0  0.003276  0.145369  0  4.025187  0
C  C71  1  0.51143186  0.21308628  0.13959514  1  0  0.133086  0  3.812656  0  0.005498  0  0.148857  0  4.040922  0  0  0.15433  0  4.064014  0  0  0.003299  0.14541  0  4.025095  0
C  C72  1  0.86435303  0.36009180  0.28724707  1  0  0.133334  0  3.811089  0  0.021741  0  0.148741  0  4.03991  0  0  0.154367  0  4.062787  0  0  0.002944  0.145215  0  4.024189  0
C  C73  1  0.13565367  0.71275519  0.63989928  1  0  0.133344  0  3.810877  0  0.022042  0  0.148738  0  4.039726  0  0  0.154358  0  4.06261  0  0  0.003059  0.145203  0  4.024029  0
C  C74  1  0.61242742  0.89718022  0.71662138  1  0  -0.164765  0  3.712506  0  -0.110742  0  -0.181123  0  3.958189  0  0  -0.189935  0  3.980959  0  0  -0.090342  -0.175411  0  3.942943  0
C  C75  1  0.38756321  0.28337591  0.10282522  1  0  -0.164764  0  3.712402  0  -0.110369  0  -0.181152  0  3.958156  0  0  -0.189962  0  3.980921  0  0  -0.090312  -0.175435  0  3.942886  0
C  C76  1  0.77407129  0.39678373  0.21689116  1  0  -0.163594  0  3.710683  0  -0.085  0  -0.180038  0  3.956346  0  0  -0.188873  0  3.97901  0  0  -0.088453  -0.174344  0  3.941153  0
C  C77  1  0.22592935  0.78311696  0.60320783  1  0  -0.163535  0  3.710792  0  -0.084194  0  -0.179906  0  3.956436  0  0  -0.188738  0  3.979101  0  0  -0.088439  -0.174223  0  3.941273  0
C  C78  1  0.61907900  0.99374257  0.72023380  1  0  0.134003  0  3.726701  0  0.520512  0  0.101763  0  3.981231  0  0  0.109102  0  4.000698  0  0  0.039276  0.097063  0  3.967926  0
C  C79  1  0.38091791  0.27976051  0.00626608  1  0  0.134074  0  3.726926  0  0.520439  0  0.101849  0  3.981444  0  0  0.109204  0  4.000889  0  0  0.039307  0.097145  0  3.968142  0
C  C80  1  0.66728936  0.49325646  0.22055241  1  0  0.133752  0  3.727786  0  0.521705  0  0.101285  0  3.982471  0  0  0.10857  0  4.001898  0  0  0.040163  0.096602  0  3.969232  0
C  C81  1  0.33270810  0.77945360  0.50673528  1  0  0.133454  0  3.728069  0  0.520753  0  0.100966  0  3.982742  0  0  0.108261  0  4.002178  0  0  0.040001  0.096289  0  3.969495  0
C  C82  1  0.39359708  0.02068770  0.85757869  1  0  0.130317  0  3.709575  0  0.458188  0  0.100085  0  3.958901  0  0  0.107714  0  3.976344  0  0  0.042541  0.09525  0  3.946909  0
C  C83  1  0.60639697  0.14241256  0.97931826  1  0  0.130003  0  3.709483  0  0.457692  0  0.099778  0  3.958824  0  0  0.107403  0  3.976268  0  0  0.042357  0.094942  0  3.946859  0
C  C84  1  0.72831081  0.52025636  0.35803326  1  0  0.130365  0  3.710262  0  0.516842  0  0.100315  0  3.959878  0  0  0.10807  0  3.977356  0  0  0.042327  0.095436  0  3.947906  0
C  C85  1  0.27169557  0.64197353  0.47973668  1  0  0.130211  0  3.710105  0  0.516853  0  0.100124  0  3.959761  0  0  0.107889  0  3.977237  0  0  0.042187  0.095243  0  3.947772  0
C  C86  1  0.38029792  0.92401649  0.86021844  1  0  -0.156752  0  3.691283  0  0.031974  0  -0.172603  0  3.932572  0  0  -0.181046  0  3.953904  0  0  -0.083967  -0.167129  0  3.918161  0
C  C87  1  0.61969262  0.13977781  0.07598873  1  0  -0.156729  0  3.691535  0  0.032335  0  -0.172606  0  3.932812  0  0  -0.181052  0  3.954147  0  0  -0.08401  -0.167148  0  3.918419  0
C  C88  1  0.83566009  0.42364645  0.36065769  1  0  -0.157973  0  3.693845  0  -0.0129  0  -0.173767  0  3.935178  0  0  -0.182254  0  3.956454  0  0  -0.08436  -0.168235  0  3.920831  0
C  C89  1  0.16435261  0.63934739  0.57634270  1  0  -0.157949  0  3.694028  0  -0.013587  0  -0.173756  0  3.935373  0  0  -0.182228  0  3.956664  0  0  -0.084439  -0.168232  0  3.921015  0
C  C90  1  0.89445737  0.11202065  0.71777715  1  0  0.599086  0  4.000962  0  1.760601  0  0.546334  0  4.31123  0  0  0.578896  0  4.306082  0  0  0.185966  0.52433  0  4.313842  0
C  C91  1  0.10554303  0.28222477  0.88797734  1  0  0.599074  0  4.000784  0  1.760613  0  0.546367  0  4.311021  0  0  0.578928  0  4.305875  0  0  0.185943  0.524355  0  4.313639  0
C  C92  1  0.27575619  0.61169830  0.21806078  1  0  0.59972  0  4.000944  0  1.761805  0  0.547202  0  4.310943  0  0  0.579782  0  4.30579  0  0  0.187458  0.525139  0  4.31358  0
C  C93  1  0.72425374  0.78194280  0.38830434  1  0  0.599744  0  4.000584  0  1.76171  0  0.547247  0  4.310523  0  0  0.579827  0  4.305362  0  0  0.187388  0.525184  0  4.313164  0
C  C94  1  0.04692980  0.10809427  0.62159292  1  0  0.164282  0  3.499061  0  0.340012  0  0.171701  0  3.784672  0  0  0.177639  0  3.790126  0  0  0.081374  0.166915  0  3.781693  0
C  C95  1  0.95306930  0.37840824  0.89190797  1  0  0.164272  0  3.498987  0  0.340049  0  0.171627  0  3.784694  0  0  0.177567  0  3.790146  0  0  0.081338  0.166851  0  3.78171  0
C  C96  1  0.22322954  0.60791666  0.12184623  1  0  0.16197  0  3.50124  0  0.338281  0  0.168497  0  3.788401  0  0  0.174409  0  3.793851  0  0  0.079658  0.163907  0  3.785083  0
C  C97  1  0.77677370  0.87815772  0.39207843  1  0  0.162191  0  3.50102  0  0.338047  0  0.168709  0  3.788184  0  0  0.174623  0  3.793629  0  0  0.079724  0.164125  0  3.784847  0
N  N98  1  0.50293277  0.40152201  0.74032450  1  0  -0.323663  0  3.237647  0  -1.275498  0  -0.246148  0  3.497357  0  0  -0.265231  0  3.516638  0  0  -0.329702  -0.233139  0  3.483903  0
N  N99  1  0.49706891  0.25967696  0.59848097  1  0  -0.323653  0  3.237752  0  -1.27542  0  -0.246106  0  3.497423  0  0  -0.265187  0  3.516701  0  0  -0.32968  -0.233105  0  3.48399  0
N  N100  1  0.35488892  0.90150376  0.24042057  1  0  -0.327005  0  3.238623  0  -1.28203  0  -0.249876  0  3.498409  0  0  -0.269027  0  3.517706  0  0  -0.332318  -0.236796  0  3.484923  0
N  N101  1  0.64509877  0.75958547  0.09849323  1  0  -0.326803  0  3.238721  0  -1.28189  0  -0.249698  0  3.498536  0  0  -0.268848  0  3.517829  0  0  -0.33224  -0.23662  0  3.485048  0
N  N102  1  0.51051720  0.05568855  0.78796047  1  0  -0.333944  0  3.251172  0  -1.264622  0  -0.25601  0  3.517748  0  0  -0.27564  0  3.535799  0  0  -0.333126  -0.242674  0  3.505124  0
N  N103  1  0.48946468  0.21203564  0.94431935  1  0  -0.333751  0  3.250728  0  -1.26444  0  -0.255814  0  3.517246  0  0  -0.275443  0  3.535301  0  0  -0.332992  -0.242485  0  3.504642  0
N  N104  1  0.64610283  0.55521387  0.28833262  1  0  -0.334079  0  3.251677  0  -1.296161  0  -0.256198  0  3.518347  0  0  -0.275868  0  3.536384  0  0  -0.333099  -0.242811  0  3.505688  0
N  N105  1  0.35390164  0.71167402  0.44477488  1  0  -0.333718  0  3.251296  0  -1.295999  0  -0.255852  0  3.517999  0  0  -0.275508  0  3.535996  0  0  -0.332864  -0.242459  0  3.505324  0
Cl  Cl106  1  0.02605083  0.03833964  0.53513285  1  0  -0.105277  0  1.306158  0  -0.196213  0  -0.092031  0  1.546034  0  0  -0.094229  0  1.538538  0  0  -0.004678  -0.090412  0  1.551446  0
Cl  Cl107  1  0.97394851  0.46487358  0.96165719  1  0  -0.105246  0  1.306134  0  -0.196278  0  -0.091967  0  1.546001  0  0  -0.094165  0  1.538505  0  0  -0.004632  -0.090354  0  1.551404  0
Cl  Cl108  1  0.40012354  0.53830963  0.03532393  1  0  -0.104311  0  1.306834  0  -0.198839  0  -0.090822  0  1.547044  0  0  -0.092995  0  1.539543  0  0  -0.004295  -0.089274  0  1.5524  0
Cl  Cl109  1  0.59987364  0.96467532  0.46168833  1  0  -0.104334  0  1.306763  0  -0.198813  0  -0.090852  0  1.546971  0  0  -0.093026  0  1.539469  0  0  -0.004285  -0.089296  0  1.552314  0
Cl  Cl110  1  0.05677690  0.23252843  0.55782384  1  0  -0.102004  0  1.314002  0  -0.195732  0  -0.094414  0  1.547651  0  0  -0.094966  0  1.537845  0  0  -0.014548  -0.094044  0  1.554668  0
Cl  Cl111  1  0.94322067  0.44217718  0.76747111  1  0  -0.10202  0  1.313972  0  -0.195846  0  -0.094416  0  1.54764  0  0  -0.094965  0  1.53783  0  0  -0.014548  -0.09405  0  1.554651  0
Cl  Cl112  1  0.15277071  0.73246396  0.05830035  1  0  -0.101648  0  1.312301  0  -0.193127  0  -0.09396  0  1.54598  0  0  -0.094516  0  1.536209  0  0  -0.014466  -0.093647  0  1.552912  0
Cl  Cl113  1  0.84721942  0.94170657  0.26753065  1  0  -0.101711  0  1.312275  0  -0.193021  0  -0.094028  0  1.545963  0  0  -0.094585  0  1.536189  0  0  -0.014487  -0.093709  0  1.552887  0
Cl  Cl114  1  0.22614467  0.04398563  0.65452347  1  0  -0.076144  0  1.336968  0  -0.169342  0  -0.068969  0  1.568092  0  0  -0.070598  0  1.560998  0  0  -0.010367  -0.067808  0  1.573241  0
Cl  Cl115  1  0.77385434  0.34548051  0.95601454  1  0  -0.076153  0  1.336934  0  -0.169315  0  -0.068968  0  1.568085  0  0  -0.070596  0  1.560989  0  0  -0.010374  -0.067812  0  1.573241  0
Cl  Cl116  1  0.07513606  0.54385866  0.15458451  1  0  -0.075373  0  1.337834  0  -0.167441  0  -0.067937  0  1.569391  0  0  -0.069577  0  1.562288  0  0  -0.009859  -0.066826  0  1.574474  0
Cl  Cl117  1  0.92486978  0.84541849  0.45613342  1  0  -0.075374  0  1.337755  0  -0.167409  0  -0.06795  0  1.56933  0  0  -0.069586  0  1.562211  0  0  -0.009819  -0.066836  0  1.574407  0
O  O118  1  0.77696231  0.18626548  0.70446446  1  0  -0.626155  0  2.078245  0  -1.212515  0  -0.567639  0  2.341674  0  0  -0.595526  0  2.332123  0  0  -0.333894  -0.547932  0  2.347319  0
O  O119  1  0.22303744  0.29553712  0.81373384  1  0  -0.626103  0  2.078273  0  -1.212547  0  -0.567622  0  2.341692  0  0  -0.595509  0  2.332143  0  0  -0.333896  -0.547913  0  2.347337  0
O  O120  1  0.33277643  0.68579813  0.20465474  1  0  -0.626179  0  2.079471  0  -1.206688  0  -0.567365  0  2.342481  0  0  -0.595334  0  2.332915  0  0  -0.334557  -0.547597  0  2.348155  0
O  O121  1  0.66722740  0.79534706  0.31419275  1  0  -0.626334  0  2.078849  0  -1.206276  0  -0.567533  0  2.341896  0  0  -0.595508  0  2.332326  0  0  -0.334575  -0.547757  0  2.347566  0
O  O122  1  0.90707598  0.04110910  0.78868440  1  0  -0.572246  0  1.945446  0  -1.179016  0  -0.541212  0  2.168981  0  0  -0.563345  0  2.161972  0  0  -0.322615  -0.525475  0  2.173062  0
O  O123  1  0.09292942  0.21131417  0.95889309  1  0  -0.572262  0  1.94524  0  -1.17899  0  -0.541225  0  2.168762  0  0  -0.563364  0  2.161755  0  0  -0.322593  -0.52548  0  2.172841  0
O  O124  1  0.26279593  0.54089796  0.28903913  1  0  -0.572094  0  1.94645  0  -1.184287  0  -0.54095  0  2.169799  0  0  -0.563063  0  2.162733  0  0  -0.322586  -0.525235  0  2.173968  0
O  O125  1  0.73720900  0.71096849  0.45910130  1  0  -0.572076  0  1.946605  0  -1.184418  0  -0.54094  0  2.169942  0  0  -0.56305  0  2.162875  0  0  -0.322536  -0.525228  0  2.174113  0
