# generated using pymatgen
data_ErH8C6O7
_symmetry_space_group_name_H-M   'P 1'
_cell_length_a   7.60028236
_cell_length_b   10.64246918
_cell_length_c   12.63730071
_cell_angle_alpha   95.36706160
_cell_angle_beta   107.48937813
_cell_angle_gamma   110.92591694
_symmetry_Int_Tables_number   1
_chemical_formula_structural   ErH8C6O7
_chemical_formula_sum   'Er4 H32 C24 O28'
_cell_volume   887.17139992
_cell_formula_units_Z   4
loop_
 _symmetry_equiv_pos_site_id
 _symmetry_equiv_pos_as_xyz
  1  'x, y, z'
loop_
 _atom_site_type_symbol
 _atom_site_label
 _atom_site_symmetry_multiplicity
 _atom_site_fract_x
 _atom_site_fract_y
 _atom_site_fract_z
 _atom_site_occupancy
 _atom_site_hle17_bader_spin_density
 _atom_site_hle17_ddec_charge
 _atom_site_hle17_ddec_spin_density
 _atom_site_hle17_ddec_sum_bond_order
 _atom_site_hle17_magmom
 _atom_site_hse06_10hf_bader_spin_density
 _atom_site_hse06_10hf_ddec_charge
 _atom_site_hse06_10hf_ddec_spin_density
 _atom_site_hse06_10hf_ddec_sum_bond_order
 _atom_site_hse06_10hf_magmom
 _atom_site_hse06_bader_spin_density
 _atom_site_hse06_ddec_charge
 _atom_site_hse06_ddec_spin_density
 _atom_site_hse06_ddec_sum_bond_order
 _atom_site_hse06_magmom
 _atom_site_pbe_bader_spin_density
 _atom_site_pbe_cm5_charge
 _atom_site_pbe_ddec_charge
 _atom_site_pbe_ddec_spin_density
 _atom_site_pbe_ddec_sum_bond_order
 _atom_site_pbe_magmom
Er  Er0  1  0.75680785  0.31052789  0.77038559  1  0  2.278795  0  1.587955  0  0  2.128022  0  2.057166  0  0  2.267888  0  1.852546  0  0  1.517191  2.090229  0  2.086774  0
Er  Er1  1  0.17589545  0.18942167  0.72965712  1  0  2.277591  0  1.591134  0  0  2.125921  0  2.062424  0  0  2.266772  0  1.856009  0  0  1.517194  2.088014  0  2.09219  0
Er  Er2  1  0.24319182  0.68947337  0.22961455  1  0  2.278815  0  1.587918  0  0  2.128028  0  2.057156  0  0  2.267911  0  1.8525  0  0  1.5172  2.090247  0  2.086742  0
Er  Er3  1  0.82410459  0.81057752  0.27034422  1  0  2.277578  0  1.591179  0  0  2.125899  0  2.062482  0  0  2.266765  0  1.856046  0  0  1.51719  2.08799  0  2.092252  0
H  H4  1  0.14883604  0.13556298  0.04042990  1  0  0.122423  0  0.919669  0  0  0.136913  0  0.976937  0  0  0.139717  0  0.974942  0  0  0.110501  0.135021  0  0.978035  0
H  H5  1  0.47295748  0.36445475  0.45963149  1  0  0.122191  0  0.920339  0  0  0.136746  0  0.977137  0  0  0.139601  0  0.975124  0  0  0.110615  0.134838  0  0.978246  0
H  H6  1  0.85116800  0.86443724  0.95957088  1  0  0.122438  0  0.919653  0  0  0.136903  0  0.976915  0  0  0.139705  0  0.97492  0  0  0.110483  0.135012  0  0.978013  0
H  H7  1  0.52704112  0.63554547  0.54036663  1  0  0.122203  0  0.920314  0  0  0.136746  0  0.977145  0  0  0.139596  0  0.975136  0  0  0.110622  0.134838  0  0.978254  0
H  H8  1  0.12549159  0.25734296  0.13696086  1  0  0.118397  0  0.911767  0  0  0.133632  0  0.964906  0  0  0.136433  0  0.962826  0  0  0.110257  0.131725  0  0.966086  0
H  H9  1  0.23131508  0.24271864  0.36308536  1  0  0.118188  0  0.912149  0  0  0.133457  0  0.964857  0  0  0.136325  0  0.962729  0  0  0.110126  0.131489  0  0.966082  0
H  H10  1  0.87450879  0.74265623  0.86303945  1  0  0.118402  0  0.911781  0  0  0.133619  0  0.964899  0  0  0.13642  0  0.962816  0  0  0.110263  0.131713  0  0.966079  0
H  H11  1  0.76868337  0.75728055  0.63691440  1  0  0.11813  0  0.912243  0  0  0.133435  0  0.964922  0  0  0.136318  0  0.962774  0  0  0.110111  0.131467  0  0.966148  0
H  H12  1  0.48988182  0.29822187  0.15045403  1  0  0.105155  0  0.911754  0  0  0.12456  0  0.962772  0  0  0.126682  0  0.961812  0  0  0.106471  0.123116  0  0.963253  0
H  H13  1  0.54122388  0.20183766  0.34958468  1  0  0.104413  0  0.912931  0  0  0.124225  0  0.96356  0  0  0.126316  0  0.962623  0  0  0.106518  0.122777  0  0.964076  0
H  H14  1  0.51011969  0.70178248  0.84954669  1  0  0.105136  0  0.911673  0  0  0.124548  0  0.962728  0  0  0.126669  0  0.961771  0  0  0.106475  0.123104  0  0.96321  0
H  H15  1  0.45877185  0.79816153  0.65041375  1  0  0.104432  0  0.9129  0  0  0.124236  0  0.963527  0  0  0.126323  0  0.96259  0  0  0.106519  0.122789  0  0.964044  0
H  H16  1  0.43312717  0.33600789  0.01519220  1  0  0.113895  0  0.940227  0  0  0.127044  0  1.002012  0  0  0.129462  0  1.001756  0  0  0.110831  0.125149  0  1.002555  0
H  H17  1  0.58190954  0.16399864  0.48482811  1  0  0.113972  0  0.940415  0  0  0.127207  0  1.002391  0  0  0.129624  0  1.002127  0  0  0.11095  0.125282  0  1.002992  0
H  H18  1  0.56687486  0.66399544  0.98480808  1  0  0.113842  0  0.940266  0  0  0.127009  0  1.002065  0  0  0.129427  0  1.001811  0  0  0.110822  0.125114  0  1.002608  0
H  H19  1  0.41808855  0.83600262  0.51517046  1  0  0.11395  0  0.940445  0  0  0.127169  0  1.002415  0  0  0.129585  0  1.002148  0  0  0.110922  0.125245  0  1.003016  0
H  H20  1  0.01930614  0.36267181  0.46861054  1  0  0.125139  0  0.921042  0  0  0.140517  0  0.974778  0  0  0.143548  0  0.972901  0  0  0.112364  0.138599  0  0.975585  0
H  H21  1  0.68800802  0.13732078  0.03126655  1  0  0.124711  0  0.921638  0  0  0.140199  0  0.975458  0  0  0.143283  0  0.97349  0  0  0.112066  0.138164  0  0.976449  0
H  H22  1  0.98069317  0.63732635  0.53138774  1  0  0.125151  0  0.921029  0  0  0.140554  0  0.97477  0  0  0.143572  0  0.972883  0  0  0.112383  0.138638  0  0.975576  0
H  H23  1  0.31199226  0.86267634  0.96873312  1  0  0.124749  0  0.921568  0  0  0.140255  0  0.97541  0  0  0.143347  0  0.97343  0  0  0.112097  0.138218  0  0.976401  0
H  H24  1  0.19699333  0.49907940  0.58199105  1  0  0.11258  0  0.903029  0  0  0.130487  0  0.955069  0  0  0.132435  0  0.954517  0  0  0.111965  0.129092  0  0.955443  0
H  H25  1  0.61581542  0.00081588  0.91792959  1  0  0.111802  0  0.903114  0  0  0.130037  0  0.955212  0  0  0.131996  0  0.954622  0  0  0.11179  0.128675  0  0.955544  0
H  H26  1  0.80300677  0.50091876  0.41800802  1  0  0.112557  0  0.903046  0  0  0.130496  0  0.955088  0  0  0.132433  0  0.954523  0  0  0.111956  0.129099  0  0.955464  0
H  H27  1  0.38418450  0.99918331  0.08206888  1  0  0.11185  0  0.903079  0  0  0.130103  0  0.955195  0  0  0.132064  0  0.954607  0  0  0.111808  0.12874  0  0.955528  0
H  H28  1  0.18889445  0.49515274  0.85273838  1  0  0.431693  0  0.865416  0  0  0.402479  0  0.926366  0  0  0.41369  0  0.910182  0  0  0.298097  0.394755  0  0.937618  0
H  H29  1  0.34096059  0.00481286  0.64716600  1  0  0.430858  0  0.866838  0  0  0.401902  0  0.927256  0  0  0.413103  0  0.9111  0  0  0.297559  0.394176  0  0.938504  0
H  H30  1  0.81110461  0.50484748  0.14726157  1  0  0.431683  0  0.865433  0  0  0.402465  0  0.926387  0  0  0.413676  0  0.910203  0  0  0.298086  0.394741  0  0.93764  0
H  H31  1  0.65903786  0.99518633  0.35283376  1  0  0.43083  0  0.866884  0  0  0.401872  0  0.927308  0  0  0.413073  0  0.911151  0  0  0.29754  0.394145  0  0.938557  0
H  H32  1  0.08435510  0.57720588  0.91216217  1  0  0.450058  0  0.843266  0  0  0.419132  0  0.906045  0  0  0.430946  0  0.888884  0  0  0.301102  0.411037  0  0.917914  0
H  H33  1  0.09496638  0.92278006  0.58780075  1  0  0.450625  0  0.842473  0  0  0.419695  0  0.905279  0  0  0.431534  0  0.888085  0  0  0.301332  0.411635  0  0.917065  0
H  H34  1  0.91564763  0.42279538  0.08783827  1  0  0.450053  0  0.843278  0  0  0.419105  0  0.906082  0  0  0.430935  0  0.888903  0  0  0.301099  0.411011  0  0.917949  0
H  H35  1  0.90503348  0.07722017  0.41219999  1  0  0.450641  0  0.842462  0  0  0.419707  0  0.905275  0  0  0.431545  0  0.888081  0  0  0.301332  0.411646  0  0.917063  0
C  C36  1  0.02793505  0.26811741  0.96271210  1  0  0.75262  0  3.759537  0  0  0.709045  0  4.053236  0  0  0.743521  0  4.05127  0  0  0.227313  0.685495  0  4.059823  0
C  C37  1  0.29705779  0.23196782  0.53736164  1  0  0.750982  0  3.757834  0  0  0.706268  0  4.052942  0  0  0.740692  0  4.051236  0  0  0.226085  0.682675  0  4.059441  0
C  C38  1  0.97206278  0.73188075  0.03728747  1  0  0.752646  0  3.759554  0  0  0.709024  0  4.053267  0  0  0.743488  0  4.05132  0  0  0.227316  0.685476  0  4.059857  0
C  C39  1  0.70294094  0.76803241  0.46263936  1  0  0.750909  0  3.75785  0  0  0.706225  0  4.052919  0  0  0.740644  0  4.051225  0  0  0.226082  0.682632  0  4.059422  0
C  C40  1  0.16969151  0.24342992  0.06320146  1  0  -0.234748  0  3.637682  0  0  -0.276942  0  3.890686  0  0  -0.280594  0  3.894394  0  0  -0.156782  -0.273795  0  3.88639  0
C  C41  1  0.36312458  0.25660449  0.43686254  1  0  -0.235154  0  3.638521  0  0  -0.276146  0  3.890029  0  0  -0.27994  0  3.893913  0  0  -0.156633  -0.272868  0  3.88563  0
C  C42  1  0.83031140  0.75657030  0.93679957  1  0  -0.234813  0  3.637783  0  0  -0.276856  0  3.890656  0  0  -0.280493  0  3.894353  0  0  -0.156733  -0.273709  0  3.88636  0
C  C43  1  0.63687448  0.74339573  0.56313741  1  0  -0.235073  0  3.638512  0  0  -0.276122  0  3.890047  0  0  -0.279923  0  3.893918  0  0  -0.156643  -0.272841  0  3.885648  0
C  C44  1  0.39266354  0.33707666  0.09170407  1  0  -0.239919  0  3.635806  0  0  -0.28057  0  3.888304  0  0  -0.285167  0  3.893505  0  0  -0.154761  -0.276815  0  3.882876  0
C  C45  1  0.46387587  0.16294506  0.40833161  1  0  -0.237941  0  3.635173  0  0  -0.279668  0  3.888324  0  0  -0.284158  0  3.893465  0  0  -0.154776  -0.275991  0  3.882955  0
C  C46  1  0.60733787  0.66292563  0.90829602  1  0  -0.23981  0  3.635674  0  0  -0.280546  0  3.88831  0  0  -0.285146  0  3.893511  0  0  -0.154791  -0.276793  0  3.882882  0
C  C47  1  0.53612222  0.83705619  0.59166696  1  0  -0.237935  0  3.635076  0  0  -0.279613  0  3.888208  0  0  -0.28409  0  3.893332  0  0  -0.154728  -0.275937  0  3.882839  0
C  C48  1  0.45143213  0.48690899  0.14623676  1  0  0.763275  0  3.780312  0  0  0.719164  0  4.079273  0  0  0.754356  0  4.072887  0  0  0.238928  0.695805  0  4.085623  0
C  C49  1  0.31825440  0.01310049  0.35372960  1  0  0.762029  0  3.782991  0  0  0.718008  0  4.082143  0  0  0.753142  0  4.075866  0  0  0.239034  0.694704  0  4.088395  0
C  C50  1  0.54857172  0.51309227  0.85376343  1  0  0.763378  0  3.780058  0  0  0.719169  0  4.079222  0  0  0.754356  0  4.072846  0  0  0.238917  0.695812  0  4.085571  0
C  C51  1  0.68174658  0.98689973  0.64627090  1  0  0.76198  0  3.783067  0  0  0.717952  0  4.082209  0  0  0.753084  0  4.075931  0  0  0.239015  0.694648  0  4.088459  0
C  C52  1  0.92340971  0.39339338  0.60635938  1  0  0.736841  0  3.810119  0  0  0.692626  0  4.107821  0  0  0.726305  0  4.10746  0  0  0.210062  0.66949  0  4.113739  0
C  C53  1  0.42355480  0.10648034  0.89359766  1  0  0.735256  0  3.815396  0  0  0.692466  0  4.111093  0  0  0.726123  0  4.110777  0  0  0.209544  0.669353  0  4.116964  0
C  C54  1  0.07658987  0.60660581  0.39364014  1  0  0.736883  0  3.810056  0  0  0.692646  0  4.107823  0  0  0.726303  0  4.107459  0  0  0.210058  0.669511  0  4.113743  0
C  C55  1  0.57644890  0.89351989  0.10640416  1  0  0.735397  0  3.815185  0  0  0.692559  0  4.111006  0  0  0.726201  0  4.110706  0  0  0.209604  0.669445  0  4.116876  0
C  C56  1  0.03482380  0.44984341  0.52977841  1  0  -0.236625  0  3.679771  0  0  -0.275985  0  3.930973  0  0  -0.280306  0  3.936457  0  0  -0.158907  -0.272498  0  3.925633  0
C  C57  1  0.55517161  0.05009254  0.97017205  1  0  -0.23485  0  3.679576  0  0  -0.275244  0  3.931637  0  0  -0.27953  0  3.937016  0  0  -0.158395  -0.27168  0  3.92626  0
C  C58  1  0.96517516  0.55015475  0.47022091  1  0  -0.236674  0  3.67975  0  0  -0.276156  0  3.931062  0  0  -0.280379  0  3.93647  0  0  -0.158964  -0.272667  0  3.925721  0
C  C59  1  0.44482946  0.94990459  0.02982841  1  0  -0.235017  0  3.679498  0  0  -0.275546  0  3.931737  0  0  -0.279843  0  3.93713  0  0  -0.158466  -0.271977  0  3.926361  0
O  O60  1  0.02397654  0.23421999  0.86135283  1  0  -0.828877  0  2.152066  0  0  -0.769968  0  2.411144  0  0  -0.818195  0  2.401478  0  0  -0.425343  -0.750544  0  2.416118  0
O  O61  1  0.42832553  0.26596089  0.63872283  1  0  -0.827835  0  2.151258  0  0  -0.768925  0  2.411217  0  0  -0.81712  0  2.401606  0  0  -0.424735  -0.749471  0  2.416087  0
O  O62  1  0.97602304  0.76577921  0.13864668  1  0  -0.828904  0  2.152041  0  0  -0.769986  0  2.41113  0  0  -0.818212  0  2.40147  0  0  -0.425343  -0.750563  0  2.416103  0
O  O63  1  0.57167414  0.73404037  0.36127732  1  0  -0.827814  0  2.151225  0  0  -0.768907  0  2.411163  0  0  -0.817102  0  2.401545  0  0  -0.424741  -0.74946  0  2.416045  0
O  O64  1  0.90526861  0.31925885  0.97429357  1  0  -0.689097  0  2.050109  0  0  -0.634622  0  2.286663  0  0  -0.668755  0  2.276228  0  0  -0.341397  -0.616813  0  2.292619  0
O  O65  1  0.11166272  0.18072764  0.52576617  1  0  -0.688029  0  2.047637  0  0  -0.633244  0  2.284918  0  0  -0.667471  0  2.274546  0  0  -0.341167  -0.615368  0  2.290641  0
O  O66  1  0.09473002  0.68073931  0.02570679  1  0  -0.689115  0  2.050144  0  0  -0.634634  0  2.286707  0  0  -0.668757  0  2.276273  0  0  -0.341401  -0.616824  0  2.292663  0
O  O67  1  0.88833652  0.81927156  0.47423439  1  0  -0.687998  0  2.047665  0  0  -0.633227  0  2.28494  0  0  -0.667456  0  2.274571  0  0  -0.341155  -0.615353  0  2.290666  0
O  O68  1  0.31452658  0.51862075  0.16127643  1  0  -0.70327  0  2.060024  0  0  -0.647172  0  2.3145  0  0  -0.68555  0  2.299967  0  0  -0.394162  -0.62938  0  2.320889  0
O  O69  1  0.13454852  0.98148174  0.33842650  1  0  -0.702322  0  2.063167  0  0  -0.646626  0  2.318137  0  0  -0.685153  0  2.303615  0  0  -0.393947  -0.628663  0  2.324335  0
O  O70  1  0.68546916  0.48137844  0.83872200  1  0  -0.703277  0  2.060041  0  0  -0.647145  0  2.314581  0  0  -0.685518  0  2.300055  0  0  -0.394133  -0.629353  0  2.320971  0
O  O71  1  0.86544959  0.01851745  0.66157431  1  0  -0.702275  0  2.063172  0  0  -0.646597  0  2.318163  0  0  -0.685118  0  2.303637  0  0  -0.393932  -0.628632  0  2.324359  0
O  O72  1  0.63588179  0.57117208  0.17308354  1  0  -0.747201  0  2.037352  0  0  -0.693292  0  2.287221  0  0  -0.731224  0  2.274205  0  0  -0.366242  -0.674607  0  2.2934  0
O  O73  1  0.39167916  0.92880890  0.32702566  1  0  -0.74721  0  2.036912  0  0  -0.693409  0  2.286683  0  0  -0.731181  0  2.273772  0  0  -0.366652  -0.674774  0  2.292831  0
O  O74  1  0.36412027  0.42882918  0.82691898  1  0  -0.747291  0  2.0372  0  0  -0.693332  0  2.287117  0  0  -0.731263  0  2.274106  0  0  -0.366244  -0.674649  0  2.293296  0
O  O75  1  0.60832069  0.07119133  0.67297508  1  0  -0.747231  0  2.036945  0  0  -0.693413  0  2.286708  0  0  -0.731187  0  2.273803  0  0  -0.366663  -0.674779  0  2.292854  0
O  O76  1  0.96477010  0.30401358  0.66048393  1  0  -0.853811  0  2.1801  0  0  -0.799784  0  2.452361  0  0  -0.847923  0  2.441959  0  0  -0.455609  -0.780626  0  2.457859  0
O  O77  1  0.50012343  0.19587918  0.83945386  1  0  -0.85355  0  2.182299  0  0  -0.799981  0  2.454167  0  0  -0.848209  0  2.443855  0  0  -0.455796  -0.780756  0  2.459536  0
O  O78  1  0.03522975  0.69598665  0.33951682  1  0  -0.853814  0  2.180095  0  0  -0.799755  0  2.452341  0  0  -0.847899  0  2.441946  0  0  -0.455582  -0.780597  0  2.457836  0
O  O79  1  0.49987633  0.80411898  0.16054625  1  0  -0.853632  0  2.182209  0  0  -0.800032  0  2.454097  0  0  -0.848252  0  2.443782  0  0  -0.455831  -0.780804  0  2.459466  0
O  O80  1  0.78985421  0.43076956  0.61928467  1  0  -0.657471  0  1.954231  0  0  -0.613234  0  2.19105  0  0  -0.64622  0  2.181857  0  0  -0.356174  -0.596513  0  2.195949  0
O  O81  1  0.23972839  0.06904372  0.88072261  1  0  -0.656845  0  1.955514  0  0  -0.613046  0  2.191697  0  0  -0.646131  0  2.182483  0  0  -0.355561  -0.596228  0  2.196535  0
O  O82  1  0.21014598  0.56923067  0.38071503  1  0  -0.657485  0  1.954231  0  0  -0.61323  0  2.191061  0  0  -0.646221  0  2.181873  0  0  -0.356185  -0.596511  0  2.19596  0
O  O83  1  0.76027339  0.93095651  0.11927868  1  0  -0.656853  0  1.955458  0  0  -0.613035  0  2.191697  0  0  -0.646122  0  2.182484  0  0  -0.355578  -0.596223  0  2.196531  0
O  O84  1  0.06509430  0.51082535  0.84445606  1  0  -0.919486  0  1.887131  0  0  -0.871079  0  2.074704  0  0  -0.900435  0  2.03601  0  0  -0.645667  -0.857064  0  2.096611  0
O  O85  1  0.20980600  0.98912856  0.65550319  1  0  -0.919205  0  1.888095  0  0  -0.870695  0  2.075707  0  0  -0.900146  0  2.036871  0  0  -0.645182  -0.856723  0  2.097569  0
O  O86  1  0.93490598  0.48917694  0.15554428  1  0  -0.919473  0  1.88714  0  0  -0.871048  0  2.074775  0  0  -0.900418  0  2.036033  0  0  -0.645646  -0.857035  0  2.096681  0
O  O87  1  0.79019499  0.01087166  0.34449730  1  0  -0.919194  0  1.88813  0  0  -0.870671  0  2.075725  0  0  -0.900125  0  2.036889  0  0  -0.645151  -0.856697  0  2.097589  0
