# generated using pymatgen
data_ZnH18C23N6(ClO2)2
_symmetry_space_group_name_H-M   'P 1'
_cell_length_a   9.92069363
_cell_length_b   10.90140834
_cell_length_c   15.25116218
_cell_angle_alpha   69.82053861
_cell_angle_beta   81.26583746
_cell_angle_gamma   72.71572280
_symmetry_Int_Tables_number   1
_chemical_formula_structural   ZnH18C23N6(ClO2)2
_chemical_formula_sum   'Zn2 H36 C46 N12 Cl4 O8'
_cell_volume   1476.00544497
_cell_formula_units_Z   2
loop_
 _symmetry_equiv_pos_site_id
 _symmetry_equiv_pos_as_xyz
  1  'x, y, z'
loop_
 _atom_site_type_symbol
 _atom_site_label
 _atom_site_symmetry_multiplicity
 _atom_site_fract_x
 _atom_site_fract_y
 _atom_site_fract_z
 _atom_site_occupancy
 _atom_site_hle17_bader_spin_density
 _atom_site_hle17_ddec_charge
 _atom_site_hle17_ddec_spin_density
 _atom_site_hle17_ddec_sum_bond_order
 _atom_site_hle17_magmom
 _atom_site_hse06_10hf_bader_spin_density
 _atom_site_hse06_10hf_ddec_charge
 _atom_site_hse06_10hf_ddec_spin_density
 _atom_site_hse06_10hf_ddec_sum_bond_order
 _atom_site_hse06_10hf_magmom
 _atom_site_hse06_bader_spin_density
 _atom_site_hse06_ddec_charge
 _atom_site_hse06_ddec_spin_density
 _atom_site_hse06_ddec_sum_bond_order
 _atom_site_hse06_magmom
 _atom_site_pbe_bader_spin_density
 _atom_site_pbe_cm5_charge
 _atom_site_pbe_ddec_charge
 _atom_site_pbe_ddec_spin_density
 _atom_site_pbe_ddec_sum_bond_order
 _atom_site_pbe_magmom
Zn  Zn0  1  0.63106609  0.31326897  0.39244650  1  0  0.996326  0  1.893508  0  0  0.809796  0  2.369629  0  0  0.855136  0  2.316064  0  0  0.693153  0.778059  0  2.405833  0
Zn  Zn1  1  0.36893755  0.68673070  0.60755437  1  0  0.996367  0  1.893492  0  0  0.809842  0  2.369615  0  0  0.855181  0  2.316047  0  0  0.69317  0.778108  0  2.405818  0
H  H2  1  0.68316387  0.50760966  0.49346908  1  0  0.110597  0  0.93446  0  0  0.121998  0  0.992168  0  0  0.12467  0  0.98903  0  0  0.140495  0.119927  0  0.994587  0
H  H3  1  0.31684073  0.49239404  0.50652808  1  0  0.110817  0  0.934232  0  0  0.122025  0  0.992141  0  0  0.124692  0  0.989015  0  0  0.140541  0.119954  0  0.994558  0
H  H4  1  0.74754944  0.52279738  0.21048524  1  0  0.117631  0  0.961531  0  0  0.124809  0  1.025189  0  0  0.12777  0  1.022852  0  0  0.119859  0.122563  0  1.026994  0
H  H5  1  0.25245556  0.47720125  0.78951250  1  0  0.117712  0  0.961505  0  0  0.124854  0  1.025178  0  0  0.127816  0  1.022839  0  0  0.119863  0.122611  0  1.026984  0
H  H6  1  0.81887727  0.74235159  0.22921031  1  0  0.118728  0  0.931484  0  0  0.135027  0  0.979386  0  0  0.137312  0  0.979117  0  0  0.128885  0.133392  0  0.979694  0
H  H7  1  0.18112594  0.25765004  0.77078356  1  0  0.118669  0  0.931684  0  0  0.134972  0  0.979567  0  0  0.137258  0  0.979296  0  0  0.128851  0.133338  0  0.979873  0
H  H8  1  0.69733087  0.74129994  0.47758708  1  0  0.099298  0  0.917087  0  0  0.113028  0  0.979236  0  0  0.114688  0  0.977775  0  0  0.115503  0.112211  0  0.979563  0
H  H9  1  0.30266786  0.25870674  0.52240660  1  0  0.099333  0  0.91714  0  0  0.113094  0  0.979241  0  0  0.114755  0  0.97778  0  0  0.115571  0.112274  0  0.979573  0
H  H10  1  0.75021462  0.84551480  0.36847520  1  0  0.07467  0  0.930362  0  0  0.087806  0  0.995051  0  0  0.08836  0  0.995267  0  0  0.10732  0.087314  0  0.994982  0
H  H11  1  0.24978902  0.15448887  0.63151943  1  0  0.074717  0  0.930398  0  0  0.087828  0  0.99511  0  0  0.088386  0  0.995325  0  0  0.10731  0.087335  0  0.995045  0
H  H12  1  0.00427342  0.70493749  0.39126692  1  0  0.086089  0  0.938851  0  0  0.100973  0  1.004889  0  0  0.102518  0  1.003956  0  0  0.092753  0.10034  0  1.004496  0
H  H13  1  0.99572738  0.29506518  0.60873085  1  0  0.086006  0  0.938851  0  0  0.100874  0  1.004915  0  0  0.102425  0  1.003976  0  0  0.092709  0.100241  0  1.004521  0
H  H14  1  0.95016426  0.59700184  0.49843652  1  0  0.076338  0  0.953737  0  0  0.095324  0  1.015065  0  0  0.095707  0  1.015975  0  0  0.092638  0.094861  0  1.014652  0
H  H15  1  0.04983308  0.40299876  0.50156010  1  0  0.076322  0  0.953722  0  0  0.095311  0  1.015048  0  0  0.095693  0  1.015956  0  0  0.092613  0.094846  0  1.014636  0
H  H16  1  0.87346052  0.78310840  0.56694870  1  0  0.072974  0  0.92815  0  0  0.085863  0  0.994642  0  0  0.086482  0  0.994584  0  0  0.108001  0.085344  0  0.994677  0
H  H17  1  0.12653736  0.21689019  0.43304969  1  0  0.072967  0  0.928108  0  0  0.085831  0  0.994625  0  0  0.086446  0  0.994569  0  0  0.108  0.08531  0  0.99466  0
H  H18  1  0.05390658  0.76092561  0.52316640  1  0  0.099364  0  0.95011  0  0  0.110427  0  1.016422  0  0  0.111783  0  1.016006  0  0  0.112064  0.109025  0  1.01692  0
H  H19  1  0.94609224  0.23907303  0.47683517  1  0  0.099363  0  0.950113  0  0  0.110443  0  1.016396  0  0  0.111798  0  1.015979  0  0  0.112059  0.109039  0  1.016895  0
H  H20  1  0.71659085  0.00988806  0.51889786  1  0  0.085855  0  0.983342  0  0  0.088306  0  1.062043  0  0  0.091347  0  1.058054  0  0  0.122966  0.08595  0  1.064979  0
H  H21  1  0.28340745  0.99011258  0.48110130  1  0  0.085854  0  0.983354  0  0  0.088317  0  1.062043  0  0  0.091359  0  1.058052  0  0  0.12296  0.08596  0  1.064979  0
H  H22  1  0.91660217  0.20423737  0.26621085  1  0  0.11473  0  0.931673  0  0  0.129791  0  0.979832  0  0  0.131933  0  0.979309  0  0  0.126638  0.128273  0  0.980207  0
H  H23  1  0.08340234  0.79575925  0.73378939  1  0  0.114775  0  0.931676  0  0  0.129829  0  0.979842  0  0  0.131969  0  0.97932  0  0  0.126653  0.128314  0  0.980217  0
H  H24  1  0.07771534  0.93496910  0.33860619  1  0  0.128644  0  0.955384  0  0  0.138228  0  1.013231  0  0  0.141145  0  1.012185  0  0  0.125255  0.136192  0  1.013915  0
H  H25  1  0.92228708  0.06502754  0.66139687  1  0  0.128649  0  0.955345  0  0  0.138232  0  1.013195  0  0  0.141148  0  1.012148  0  0  0.12525  0.136196  0  1.013878  0
H  H26  1  0.00798790  0.51944161  0.15855478  1  0  0.114191  0  0.98004  0  0  0.114789  0  1.057784  0  0  0.118901  0  1.054826  0  0  0.103186  0.112031  0  1.059986  0
H  H27  1  0.99201330  0.48055199  0.84145046  1  0  0.11422  0  0.980027  0  0  0.114837  0  1.057721  0  0  0.118948  0  1.054765  0  0  0.103202  0.112081  0  1.059927  0
H  H28  1  0.33528772  0.39713443  0.96206093  1  0  0.113066  0  0.94282  0  0  0.119341  0  1.011612  0  0  0.123105  0  1.008906  0  0  0.108314  0.116387  0  1.013691  0
H  H29  1  0.66471195  0.60286829  0.03794217  1  0  0.11305  0  0.942753  0  0  0.119321  0  1.011548  0  0  0.123086  0  1.008839  0  0  0.108286  0.116365  0  1.013626  0
H  H30  1  0.51745326  0.35454004  0.07495664  1  0  0.108565  0  0.936763  0  0  0.119071  0  0.993031  0  0  0.122346  0  0.991361  0  0  0.108419  0.11671  0  0.994192  0
H  H31  1  0.48254735  0.64546672  0.92504340  1  0  0.108609  0  0.936742  0  0  0.119108  0  0.993017  0  0  0.122397  0  0.991328  0  0  0.108436  0.116748  0  0.994177  0
H  H32  1  0.49987314  0.92417242  0.86210200  1  0  0.12262  0  0.956936  0  0  0.125276  0  1.028604  0  0  0.129365  0  1.025571  0  0  0.107177  0.122061  0  1.031368  0
H  H33  1  0.50012629  0.07582417  0.13789806  1  0  0.122615  0  0.956997  0  0  0.125256  0  1.028683  0  0  0.129344  0  1.025654  0  0  0.107169  0.122039  0  1.031444  0
H  H34  1  0.57243957  0.28179361  0.88555072  1  0  0.110721  0  0.932789  0  0  0.121725  0  0.991343  0  0  0.124832  0  0.989929  0  0  0.109919  0.119314  0  0.992698  0
H  H35  1  0.42755573  0.71820298  0.11445233  1  0  0.110736  0  0.932823  0  0  0.121737  0  0.991384  0  0  0.124844  0  0.989973  0  0  0.109919  0.119327  0  0.992738  0
H  H36  1  0.63098428  0.35966451  0.71286300  1  0  0.09899  0  0.963978  0  0  0.103966  0  1.033864  0  0  0.107056  0  1.032391  0  0  0.098929  0.10199  0  1.034361  0
H  H37  1  0.36900960  0.64033716  0.28713893  1  0  0.098979  0  0.964007  0  0  0.103954  0  1.033905  0  0  0.107054  0  1.032401  0  0  0.098922  0.101978  0  1.034403  0
C  C38  1  0.70923884  0.54025790  0.41897192  1  0  0.183451  0  3.633942  0  0  0.118604  0  3.89912  0  0  0.133802  0  3.910086  0  0  0.145924  0.108412  0  3.89179  0
C  C39  1  0.29076677  0.45974581  0.58102516  1  0  0.18315  0  3.633723  0  0  0.118476  0  3.898905  0  0  0.133672  0  3.909874  0  0  0.145841  0.108283  0  3.891572  0
C  C40  1  0.74659119  0.55231815  0.27157689  1  0  -0.000599  0  3.746166  0  0  -0.033616  0  4.012439  0  0  -0.032778  0  4.034371  0  0  -0.003028  -0.033916  0  3.997088  0
C  C41  1  0.25341096  0.44768349  0.72841904  1  0  -0.000676  0  3.746213  0  0  -0.033656  0  4.012522  0  0  -0.032817  0  4.034451  0  0  -0.003041  -0.033958  0  3.997175  0
C  C42  1  0.78061900  0.66072977  0.28009914  1  0  -0.067043  0  3.688502  0  0  -0.1118  0  3.952688  0  0  -0.111564  0  3.974294  0  0  0.000242  -0.111962  0  3.937977  0
C  C43  1  0.21938447  0.33927086  0.71989627  1  0  -0.066964  0  3.688625  0  0  -0.111726  0  3.9528  0  0  -0.111489  0  3.974404  0  0  0.000311  -0.111889  0  3.938088  0
C  C44  1  0.77617401  0.74264364  0.41857403  1  0  -0.00933  0  3.631714  0  0  -0.072487  0  3.897515  0  0  -0.068158  0  3.907908  0  0  -0.055484  -0.075256  0  3.889628  0
C  C45  1  0.22382729  0.25736104  0.58142122  1  0  -0.009505  0  3.631901  0  0  -0.072664  0  3.897678  0  0  -0.06834  0  3.908083  0  0  -0.055557  -0.075427  0  3.889771  0
C  C46  1  0.92609487  0.70167205  0.45083790  1  0  -0.149508  0  3.681612  0  0  -0.197568  0  3.950735  0  0  -0.199407  0  3.963293  0  0  -0.164227  -0.196124  0  3.941357  0
C  C47  1  0.07390493  0.29833061  0.54915930  1  0  -0.149388  0  3.681604  0  0  -0.197441  0  3.950689  0  0  -0.199285  0  3.963258  0  0  -0.164169  -0.195995  0  3.941313  0
C  C48  1  0.94426735  0.79109416  0.50363547  1  0  -0.003283  0  3.616289  0  0  -0.065325  0  3.873602  0  0  -0.061718  0  3.885304  0  0  -0.054948  -0.067349  0  3.865575  0
C  C49  1  0.05572991  0.20890649  0.49636509  1  0  -0.003281  0  3.616346  0  0  -0.065292  0  3.873593  0  0  -0.061686  0  3.885317  0  0  -0.054928  -0.067323  0  3.865572  0
C  C50  1  0.79181954  0.02832819  0.45943206  1  0  0.163747  0  3.665615  0  0  0.100462  0  3.933283  0  0  0.113975  0  3.946177  0  0  0.140952  0.091939  0  3.924165  0
C  C51  1  0.20818181  0.97167247  0.54056747  1  0  0.163777  0  3.665614  0  0  0.10047  0  3.933282  0  0  0.113988  0  3.94617  0  0  0.140972  0.091947  0  3.92416  0
C  C52  1  0.89947450  0.12411035  0.32930978  1  0  0.002449  0  3.746778  0  0  -0.030666  0  4.007648  0  0  -0.029177  0  4.028383  0  0  0.002049  -0.031542  0  3.993439  0
C  C53  1  0.10052870  0.87588729  0.67069099  1  0  0.002335  0  3.746771  0  0  -0.03078  0  4.007641  0  0  -0.029293  0  4.028376  0  0  0.001993  -0.031662  0  3.993439  0
C  C54  1  0.97928668  0.99236965  0.36335699  1  0  -0.067568  0  3.656015  0  0  -0.107694  0  3.911562  0  0  -0.107119  0  3.931597  0  0  0.000794  -0.108127  0  3.898188  0
C  C55  1  0.02071524  0.00762897  0.63664233  1  0  -0.067516  0  3.655982  0  0  -0.107642  0  3.911527  0  0  -0.107063  0  3.931562  0  0  0.000825  -0.108074  0  3.898155  0
C  C56  1  0.36686684  0.40896896  0.18003883  1  0  -0.098094  0  3.70077  0  0  -0.086087  0  3.938314  0  0  -0.094115  0  3.96174  0  0  -0.01409  -0.082253  0  3.923764  0
C  C57  1  0.63313388  0.59103375  0.81996287  1  0  -0.098217  0  3.700822  0  0  -0.086132  0  3.938251  0  0  -0.094153  0  3.961681  0  0  -0.014121  -0.082294  0  3.923704  0
C  C58  1  0.22139547  0.45706999  0.20238524  1  0  0.133692  0  3.760121  0  0  0.140728  0  4.021013  0  0  0.144701  0  4.042731  0  0  0.019193  0.138567  0  4.006595  0
C  C59  1  0.77860507  0.54292969  0.79761788  1  0  0.133796  0  3.760109  0  0  0.140843  0  4.020934  0  0  0.144814  0  4.042653  0  0  0.019249  0.138681  0  4.00652  0
C  C60  1  0.11956428  0.48148469  0.14087658  1  0  -0.19613  0  3.721165  0  0  -0.224112  0  3.964322  0  0  -0.228271  0  3.984782  0  0  -0.094523  -0.222828  0  3.95179  0
C  C61  1  0.88043591  0.51850890  0.85912809  1  0  -0.196138  0  3.721221  0  0  -0.224115  0  3.964377  0  0  -0.228282  0  3.98484  0  0  -0.09452  -0.22284  0  3.951853  0
C  C62  1  0.16068823  0.45818298  0.05443786  1  0  0.176918  0  3.812516  0  0  0.184741  0  4.058814  0  0  0.185384  0  4.08308  0  0  0.088332  0.184471  0  4.042081  0
C  C63  1  0.83931111  0.54181365  0.94556614  1  0  0.176821  0  3.812614  0  0  0.184584  0  4.058997  0  0  0.185229  0  4.083263  0  0  0.088303  0.184322  0  4.042262  0
C  C64  1  0.30458021  0.41203522  0.03010191  1  0  -0.111193  0  3.697016  0  0  -0.1396  0  3.954661  0  0  -0.142557  0  3.974558  0  0  -0.077475  -0.136009  0  3.93937  0
C  C65  1  0.69541904  0.58796546  0.96990043  1  0  -0.111073  0  3.696912  0  0  -0.139456  0  3.954565  0  0  -0.142417  0  3.974469  0  0  -0.077429  -0.135865  0  3.939269  0
C  C66  1  0.40487593  0.38867471  0.09247371  1  0  -0.057125  0  3.736526  0  0  -0.07857  0  3.987905  0  0  -0.079604  0  4.010054  0  0  -0.07951  -0.077624  0  3.972534  0
C  C67  1  0.59512434  0.61132598  0.90752854  1  0  -0.057202  0  3.736542  0  0  -0.078664  0  3.987896  0  0  -0.079718  0  4.010045  0  0  -0.079527  -0.077722  0  3.972527  0
C  C68  1  0.48542611  0.37837482  0.24179259  1  0  0.630592  0  3.949588  0  0  0.582057  0  4.247502  0  0  0.615654  0  4.241142  0  0  0.189739  0.559731  0  4.250083  0
C  C69  1  0.51457198  0.62162280  0.75820930  1  0  0.630691  0  3.949589  0  0  0.582116  0  4.24751  0  0  0.615715  0  4.241148  0  0  0.189788  0.55979  0  4.250096  0
C  C70  1  0.59248323  0.19001599  0.68956964  1  0  -0.094209  0  3.707023  0  0  -0.081875  0  3.946783  0  0  -0.087977  0  3.967213  0  0  -0.014973  -0.078299  0  3.933757  0
C  C71  1  0.40751269  0.80998569  0.31043210  1  0  -0.094118  0  3.707054  0  0  -0.081811  0  3.946795  0  0  -0.087904  0  3.967214  0  0  -0.01494  -0.078233  0  3.93377  0
C  C72  1  0.55349645  0.06763616  0.73269660  1  0  0.125534  0  3.776731  0  0  0.12977  0  4.04437  0  0  0.133347  0  4.065825  0  0  0.015345  0.127231  0  4.030024  0
C  C73  1  0.44650035  0.93236246  0.26730451  1  0  0.125476  0  3.776742  0  0  0.129764  0  4.04432  0  0  0.133339  0  4.065775  0  0  0.015331  0.127221  0  4.029978  0
C  C74  1  0.52559681  0.02082421  0.82866620  1  0  -0.19255  0  3.715094  0  0  -0.220467  0  3.960417  0  0  -0.224321  0  3.980977  0  0  -0.092289  -0.218006  0  3.947076  0
C  C75  1  0.47440232  0.97917339  0.17133429  1  0  -0.19262  0  3.714955  0  0  -0.22052  0  3.960337  0  0  -0.224377  0  3.980898  0  0  -0.092315  -0.218055  0  3.946992  0
C  C76  1  0.53332374  0.09853537  0.88367693  1  0  0.170304  0  3.834543  0  0  0.176919  0  4.084198  0  0  0.177  0  4.108739  0  0  0.084485  0.176856  0  4.067611  0
C  C77  1  0.46667335  0.90146223  0.11632375  1  0  0.170463  0  3.834438  0  0  0.176994  0  4.084247  0  0  0.177075  0  4.108788  0  0  0.084552  0.176932  0  4.067659  0
C  C78  1  0.56813202  0.22248836  0.84176563  1  0  -0.118954  0  3.712378  0  0  -0.144907  0  3.965576  0  0  -0.147952  0  3.986407  0  0  -0.08062  -0.142845  0  3.951791  0
C  C79  1  0.43186476  0.77751027  0.15823613  1  0  -0.119108  0  3.712544  0  0  -0.145037  0  3.965775  0  0  -0.148085  0  3.986609  0  0  -0.080655  -0.142976  0  3.95199  0
C  C80  1  0.59932582  0.26578662  0.74603280  1  0  -0.053015  0  3.738969  0  0  -0.07525  0  3.991853  0  0  -0.075602  0  4.012431  0  0  -0.082647  -0.075153  0  3.978098  0
C  C81  1  0.40067067  0.73421302  0.25396939  1  0  -0.052979  0  3.739079  0  0  -0.075208  0  3.991941  0  0  -0.07556  0  4.012526  0  0  -0.082645  -0.075111  0  3.978187  0
C  C82  1  0.63695360  0.24168698  0.58777995  1  0  0.637896  0  3.95259  0  0  0.58713  0  4.253546  0  0  0.621075  0  4.245428  0  0  0.197595  0.563944  0  4.258615  0
C  C83  1  0.36304262  0.75831367  0.41222136  1  0  0.638024  0  3.952523  0  0  0.587302  0  4.253418  0  0  0.621244  0  4.2453  0  0  0.197699  0.564118  0  4.258487  0
N  N84  1  0.75561842  0.65169076  0.37356793  1  0  -0.052774  0  3.575974  0  0  0.041164  0  3.798472  0  0  0.026465  0  3.825214  0  0  -0.240761  0.050678  0  3.780421  0
N  N85  1  0.24438391  0.34831392  0.62642657  1  0  -0.052625  0  3.575713  0  0  0.04131  0  3.798163  0  0  0.026613  0  3.824909  0  0  -0.240748  0.050826  0  3.780108  0
N  N86  1  0.70244844  0.47772515  0.35905950  1  0  -0.38912  0  3.32866  0  0  -0.30512  0  3.630304  0  0  -0.3255  0  3.642014  0  0  -0.362157  -0.291364  0  3.621797  0
N  N87  1  0.29755903  0.52227553  0.64093882  1  0  -0.389161  0  3.328781  0  0  -0.305178  0  3.630379  0  0  -0.325551  0  3.642076  0  0  -0.362176  -0.291426  0  3.621879  0
N  N88  1  0.90925822  0.93378060  0.44589111  1  0  -0.054932  0  3.567127  0  0  0.041864  0  3.781874  0  0  0.027294  0  3.809198  0  0  -0.241159  0.051297  0  3.763465  0
N  N89  1  0.09074110  0.06622004  0.55410795  1  0  -0.054963  0  3.567203  0  0  0.041829  0  3.781944  0  0  0.027255  0  3.809264  0  0  -0.241179  0.051266  0  3.763533  0
N  N90  1  0.78310169  0.14503755  0.39014947  1  0  -0.384057  0  3.337789  0  0  -0.303664  0  3.639572  0  0  -0.323243  0  3.651445  0  0  -0.361469  -0.290549  0  3.631037  0
N  N91  1  0.21690096  0.85496209  0.60984953  1  0  -0.384035  0  3.337854  0  0  -0.303622  0  3.639622  0  0  -0.323203  0  3.651495  0  0  -0.361432  -0.2905  0  3.631083  0
N  N92  1  0.06462188  0.48014602  0.98765233  1  0  -0.145871  0  2.981238  0  0  -0.123945  0  3.258122  0  0  -0.12196  0  3.262975  0  0  -0.146832  -0.125381  0  3.254856  0
N  N93  1  0.93537774  0.51984960  0.01235255  1  0  -0.145607  0  2.981121  0  0  -0.12365  0  3.257992  0  0  -0.121663  0  3.262844  0  0  -0.146627  -0.125088  0  3.254723  0
N  N94  1  0.50972710  0.05869288  0.98167963  1  0  -0.150442  0  3.002297  0  0  -0.128407  0  3.280291  0  0  -0.126169  0  3.285208  0  0  -0.149567  -0.129961  0  3.276974  0
N  N95  1  0.49027028  0.94130370  0.01832128  1  0  -0.15043  0  3.00232  0  0  -0.128384  0  3.280358  0  0  -0.12614  0  3.28527  0  0  -0.149573  -0.129938  0  3.277042  0
Cl  Cl96  1  0.16006317  0.49548115  0.30555164  1  0  -0.082223  0  1.375845  0  0  -0.064567  0  1.609593  0  0  -0.066781  0  1.603523  0  0  0.010927  -0.062884  0  1.613237  0
Cl  Cl97  1  0.83993825  0.50452259  0.69445105  1  0  -0.082292  0  1.375849  0  0  -0.064645  0  1.609587  0  0  -0.066861  0  1.603519  0  0  0.010874  -0.062958  0  1.613232  0
Cl  Cl98  1  0.54578153  0.96472712  0.66889640  1  0  -0.075531  0  1.344609  0  0  -0.055504  0  1.567923  0  0  -0.057946  0  1.56212  0  0  0.013315  -0.053747  0  1.571427  0
Cl  Cl99  1  0.45421806  0.03527251  0.33110354  1  0  -0.075481  0  1.344606  0  0  -0.055476  0  1.5679  0  0  -0.057918  0  1.5621  0  0  0.013337  -0.053718  0  1.571406  0
O  O100  1  0.45560987  0.34445435  0.33131075  1  0  -0.649798  0  2.051583  0  0  -0.583802  0  2.325565  0  0  -0.611517  0  2.310208  0  0  -0.346128  -0.564339  0  2.334228  0
O  O101  1  0.54439196  0.65554432  0.66869251  1  0  -0.649804  0  2.051577  0  0  -0.58382  0  2.325604  0  0  -0.61153  0  2.310225  0  0  -0.346144  -0.564356  0  2.334266  0
O  O102  1  0.60574744  0.38494656  0.20458958  1  0  -0.610908  0  1.886002  0  0  -0.566165  0  2.104093  0  0  -0.589518  0  2.09578  0  0  -0.326079  -0.549152  0  2.10866  0
O  O103  1  0.39425509  0.61504602  0.79541447  1  0  -0.61093  0  1.886083  0  0  -0.566175  0  2.104181  0  0  -0.589531  0  2.095869  0  0  -0.326088  -0.54916  0  2.108751  0
O  O104  1  0.55321938  0.25344182  0.52667079  1  0  -0.644914  0  2.051858  0  0  -0.576252  0  2.323813  0  0  -0.604687  0  2.309827  0  0  -0.32828  -0.556248  0  2.332058  0
O  O105  1  0.44678136  0.74655376  0.47332940  1  0  -0.645019  0  2.051853  0  0  -0.576358  0  2.32378  0  0  -0.604795  0  2.309789  0  0  -0.328326  -0.556359  0  2.332032  0
O  O106  1  0.75263408  0.27203041  0.56955765  1  0  -0.614945  0  1.953177  0  0  -0.57168  0  2.188305  0  0  -0.595659  0  2.181051  0  0  -0.314242  -0.554301  0  2.191561  0
O  O107  1  0.24735863  0.72797533  0.43044533  1  0  -0.615024  0  1.953187  0  0  -0.571757  0  2.188277  0  0  -0.595735  0  2.181022  0  0  -0.314293  -0.554376  0  2.191535  0
