# generated using pymatgen
data_MgH2(CO2)2
_symmetry_space_group_name_H-M   'P 1'
_cell_length_a   9.92345768
_cell_length_b   18.18120201
_cell_length_c   18.32615673
_cell_angle_alpha   89.99996919
_cell_angle_beta   89.99992173
_cell_angle_gamma   89.99990294
_symmetry_Int_Tables_number   1
_chemical_formula_structural   MgH2(CO2)2
_chemical_formula_sum   'Mg24 H48 C48 O96'
_cell_volume   3306.41232078
_cell_formula_units_Z   24
loop_
 _symmetry_equiv_pos_site_id
 _symmetry_equiv_pos_as_xyz
  1  'x, y, z'
loop_
 _atom_site_type_symbol
 _atom_site_label
 _atom_site_symmetry_multiplicity
 _atom_site_fract_x
 _atom_site_fract_y
 _atom_site_fract_z
 _atom_site_occupancy
 _atom_site_pbe_bader_charge
 _atom_site_pbe_bader_spin_density
 _atom_site_pbe_cm5_charge
 _atom_site_pbe_ddec_charge
 _atom_site_pbe_ddec_spin_density
 _atom_site_pbe_ddec_sum_bond_order
 _atom_site_pbe_magmom
Mg  Mg0  1  0.42367241  0.93991764  0.81983870  1  1.691958  0  0.827658  1.357098  0  1.434338  0
Mg  Mg1  1  0.61378611  0.03543282  0.71641348  1  1.687393  0  0.828159  1.345157  0  1.476242  0
Mg  Mg2  1  0.07632972  0.43991789  0.68016156  1  1.691923  0  0.827653  1.357037  0  1.434425  0
Mg  Mg3  1  0.88621348  0.53543207  0.78358717  1  1.687391  0  0.828167  1.345145  0  1.476298  0
Mg  Mg4  1  0.57632846  0.56008184  0.81983820  1  1.691933  0  0.827654  1.357043  0  1.434449  0
Mg  Mg5  1  0.38621355  0.46456792  0.71641290  1  1.687395  0  0.828144  1.345112  0  1.476313  0
Mg  Mg6  1  0.92367206  0.06008233  0.68016080  1  1.691934  0  0.827655  1.357055  0  1.434417  0
Mg  Mg7  1  0.11378749  0.96456852  0.78358625  1  1.687394  0  0.828146  1.345139  0  1.476322  0
Mg  Mg8  1  0.57632904  0.06008207  0.18016139  1  1.691921  0  0.827659  1.357076  0  1.434359  0
Mg  Mg9  1  0.38621232  0.96456798  0.28358716  1  1.687392  0  0.828155  1.345171  0  1.47625  0
Mg  Mg10  1  0.92367274  0.56008182  0.31983853  1  1.691964  0  0.827652  1.357044  0  1.434432  0
Mg  Mg11  1  0.11378596  0.46456928  0.21641346  1  1.687385  0  0.828164  1.345152  0  1.47635  0
Mg  Mg12  1  0.42367198  0.43991841  0.18016080  1  1.691923  0  0.827656  1.35705  0  1.434379  0
Mg  Mg13  1  0.61378789  0.53543234  0.28358664  1  1.687395  0  0.828142  1.345142  0  1.476263  0
Mg  Mg14  1  0.07632839  0.93991793  0.31983874  1  1.691906  0  0.827644  1.357057  0  1.434388  0
Mg  Mg15  1  0.88621195  0.03543118  0.21641383  1  1.687387  0  0.82817  1.345174  0  1.476309  0
Mg  Mg16  1  0.50000032  0.99999939  0.99999973  1  1.687767  0  0.815859  1.350685  0  1.449286  0
Mg  Mg17  1  0.00000061  0.49999981  0.49999996  1  1.687771  0  0.815851  1.35067  0  1.449313  0
Mg  Mg18  1  0.49999833  0.49999971  0.00000023  1  1.687752  0  0.81587  1.350654  0  1.44931  0
Mg  Mg19  1  0.99999960  0.00000050  0.49999972  1  1.687749  0  0.815866  1.350673  0  1.449311  0
Mg  Mg20  1  0.49999792  0.75000002  0.81337692  1  1.692189  0  0.822626  1.359578  0  1.451948  0
Mg  Mg21  1  0.99999898  0.25000097  0.68662307  1  1.692186  0  0.822636  1.359533  0  1.451988  0
Mg  Mg22  1  0.49999748  0.24999969  0.18662317  1  1.69219  0  0.822629  1.359573  0  1.45194  0
Mg  Mg23  1  0.00000247  0.75000038  0.31337702  1  1.69219  0  0.822613  1.359543  0  1.451984  0
H  H24  1  0.25139343  0.00362929  0.62757339  1  0.103318  0  0.122102  0.02964  0  1.004458  0
H  H25  1  0.10382800  0.99253033  0.94969909  1  0.107465  0  0.122931  0.030048  0  0.974199  0
H  H26  1  0.20524178  0.75311491  0.81786133  1  0.111441  0  0.125362  0.033175  0  0.969063  0
H  H27  1  0.71308190  0.87752563  0.67390294  1  0.056618  0  0.119414  0.022124  0  0.960316  0
H  H28  1  0.54688570  0.15197792  0.84025777  1  0.077081  0  0.124927  0.032738  0  0.949436  0
H  H29  1  0.66708244  0.86715936  0.97797817  1  0.110423  0  0.123087  0.027666  0  0.965365  0
H  H30  1  0.24860703  0.50362862  0.87242601  1  0.103319  0  0.122106  0.029605  0  1.004473  0
H  H31  1  0.39617194  0.49253036  0.55030114  1  0.107451  0  0.122939  0.030053  0  0.974185  0
H  H32  1  0.29475790  0.25311551  0.68213794  1  0.111454  0  0.125371  0.03322  0  0.969057  0
H  H33  1  0.78691763  0.37752616  0.82609699  1  0.056612  0  0.119411  0.022123  0  0.96031  0
H  H34  1  0.95311554  0.65197718  0.65974282  1  0.077014  0  0.124923  0.032721  0  0.949477  0
H  H35  1  0.83291813  0.36716057  0.52202230  1  0.110437  0  0.123083  0.027688  0  0.965299  0
H  H36  1  0.74861049  0.49637041  0.62757471  1  0.103133  0  0.122132  0.02967  0  1.004501  0
H  H37  1  0.89617053  0.50747018  0.94970002  1  0.107394  0  0.122946  0.030071  0  0.97417  0
H  H38  1  0.79475607  0.74688512  0.81786057  1  0.111444  0  0.125366  0.033192  0  0.96905  0
H  H39  1  0.28691531  0.62247283  0.67390426  1  0.056636  0  0.119399  0.022148  0  0.960281  0
H  H40  1  0.45311566  0.34802221  0.84025720  1  0.076992  0  0.124935  0.032724  0  0.949429  0
H  H41  1  0.33291803  0.63283948  0.97797836  1  0.11042  0  0.123073  0.027671  0  0.965316  0
H  H42  1  0.75139371  0.99637193  0.87242679  1  0.103319  0  0.122106  0.029627  0  1.004464  0
H  H43  1  0.60382814  0.00747048  0.55030119  1  0.107369  0  0.122934  0.030052  0  0.974203  0
H  H44  1  0.70524387  0.24688416  0.68213943  1  0.111478  0  0.125386  0.03319  0  0.969068  0
H  H45  1  0.21308175  0.12247453  0.82609672  1  0.05662  0  0.119415  0.022159  0  0.960297  0
H  H46  1  0.04688372  0.84802349  0.65974256  1  0.07705  0  0.124907  0.032646  0  0.949523  0
H  H47  1  0.16708203  0.13284083  0.52202152  1  0.110411  0  0.123079  0.027659  0  0.965372  0
H  H48  1  0.74860499  0.99637152  0.37242670  1  0.103327  0  0.122083  0.02958  0  1.004399  0
H  H49  1  0.89617244  0.00747048  0.05030099  1  0.107402  0  0.122936  0.03006  0  0.974195  0
H  H50  1  0.79475765  0.24688425  0.18213876  1  0.111468  0  0.125381  0.033216  0  0.969066  0
H  H51  1  0.28691754  0.12247408  0.32609715  1  0.056608  0  0.119406  0.022122  0  0.960323  0
H  H52  1  0.45311373  0.84802234  0.15974341  1  0.076978  0  0.124925  0.032742  0  0.949398  0
H  H53  1  0.33291800  0.13283979  0.02202192  1  0.11043  0  0.123084  0.027673  0  0.965323  0
H  H54  1  0.75139341  0.49637164  0.12757353  1  0.103321  0  0.122107  0.029645  0  1.004447  0
H  H55  1  0.60382850  0.50747265  0.44970004  1  0.107373  0  0.122963  0.030087  0  0.974131  0
H  H56  1  0.70524355  0.74688475  0.31786051  1  0.111457  0  0.125375  0.033205  0  0.96904  0
H  H57  1  0.21308180  0.62247355  0.17390256  1  0.056603  0  0.119415  0.022187  0  0.96025  0
H  H58  1  0.04688390  0.34802253  0.34025781  1  0.077034  0  0.124922  0.032695  0  0.949528  0
H  H59  1  0.16708231  0.63283969  0.47797778  1  0.110427  0  0.123082  0.027668  0  0.965333  0
H  H60  1  0.25139398  0.50362875  0.37242647  1  0.103331  0  0.122087  0.029587  0  1.004436  0
H  H61  1  0.10382689  0.49252898  0.05030116  1  0.107378  0  0.122954  0.030068  0  0.974134  0
H  H62  1  0.20524135  0.25311623  0.18213897  1  0.11148  0  0.125388  0.033255  0  0.969041  0
H  H63  1  0.71308311  0.37752633  0.32609747  1  0.056595  0  0.1194  0.022123  0  0.960286  0
H  H64  1  0.54688377  0.65197695  0.15974234  1  0.07704  0  0.124925  0.032702  0  0.949534  0
H  H65  1  0.66708241  0.36715913  0.02202228  1  0.110414  0  0.123077  0.027662  0  0.965374  0
H  H66  1  0.24860673  0.00362887  0.12757330  1  0.10332  0  0.122079  0.029545  0  1.00447  0
H  H67  1  0.39617129  0.99253033  0.44969890  1  0.107477  0  0.12294  0.030062  0  0.974193  0
H  H68  1  0.29475758  0.75311500  0.31786066  1  0.111439  0  0.125356  0.033185  0  0.969079  0
H  H69  1  0.78691768  0.87752628  0.17390282  1  0.056612  0  0.119411  0.022078  0  0.960328  0
H  H70  1  0.95311470  0.15197787  0.34025644  1  0.076985  0  0.124925  0.032741  0  0.949436  0
H  H71  1  0.83291741  0.86715942  0.47797802  1  0.11041  0  0.123095  0.027667  0  0.96538  0
C  C72  1  0.33234849  0.99987910  0.66879505  1  1.563559  0  0.178274  0.564465  0  4.130035  0
C  C73  1  0.21326367  0.98776822  0.93905034  1  1.554643  0  0.183262  0.559977  0  4.152184  0
C  C74  1  0.22463212  0.81233706  0.80967629  1  1.568837  0  0.181532  0.565909  0  4.14208  0
C  C75  1  0.63704989  0.86653188  0.71689343  1  1.600834  0  0.180973  0.563924  0  4.169702  0
C  C76  1  0.51972789  0.09687486  0.86148538  1  1.583056  0  0.181421  0.557072  0  4.173393  0
C  C77  1  0.60242662  0.86342698  0.92906450  1  1.5674  0  0.18239  0.57172  0  4.149921  0
C  C78  1  0.16765244  0.49987919  0.83120464  1  1.563552  0  0.178355  0.564657  0  4.130007  0
C  C79  1  0.28673730  0.48776835  0.56094989  1  1.554621  0  0.183245  0.559936  0  4.152147  0
C  C80  1  0.27536839  0.31233767  0.69032131  1  1.569415  0  0.181336  0.565658  0  4.14208  0
C  C81  1  0.86295068  0.36653126  0.78310704  1  1.600907  0  0.180967  0.563922  0  4.169743  0
C  C82  1  0.98027151  0.59687410  0.63851470  1  1.583141  0  0.181437  0.557064  0  4.173416  0
C  C83  1  0.89757195  0.36342865  0.57093652  1  1.56739  0  0.182383  0.571662  0  4.149913  0
C  C84  1  0.66765780  0.50012046  0.66879724  1  1.56364  0  0.17834  0.564545  0  4.130107  0
C  C85  1  0.78673489  0.51223174  0.93905026  1  1.554701  0  0.183285  0.559982  0  4.152126  0
C  C86  1  0.77536676  0.68766298  0.80967721  1  1.569301  0  0.181501  0.565861  0  4.142118  0
C  C87  1  0.36294822  0.63346656  0.71689469  1  1.601153  0  0.181036  0.564031  0  4.169607  0
C  C88  1  0.48027040  0.40312526  0.86148585  1  1.583134  0  0.181434  0.557177  0  4.173243  0
C  C89  1  0.39757196  0.63657189  0.92906409  1  1.567393  0  0.182385  0.57166  0  4.149922  0
C  C90  1  0.83234794  0.00012094  0.83120452  1  1.563559  0  0.178346  0.564601  0  4.130071  0
C  C91  1  0.71326377  0.01223193  0.56094986  1  1.554692  0  0.18327  0.55996  0  4.152238  0
C  C92  1  0.72463336  0.18766199  0.69032227  1  1.568949  0  0.181471  0.565929  0  4.142071  0
C  C93  1  0.13704982  0.13346890  0.78310683  1  1.600901  0  0.180975  0.563931  0  4.169725  0
C  C94  1  0.01972882  0.90312657  0.63851443  1  1.58313  0  0.181454  0.55715  0  4.173441  0
C  C95  1  0.10242707  0.13657328  0.57093524  1  1.567393  0  0.182394  0.571658  0  4.149936  0
C  C96  1  0.66765195  0.00012061  0.33120449  1  1.563549  0  0.1784  0.564745  0  4.129874  0
C  C97  1  0.78673576  0.01223148  0.06094975  1  1.554667  0  0.18326  0.559938  0  4.152205  0
C  C98  1  0.77536731  0.18766155  0.19032217  1  1.568916  0  0.181389  0.56577  0  4.142167  0
C  C99  1  0.36294954  0.13346838  0.28310665  1  1.600837  0  0.180953  0.563876  0  4.169747  0
C  C100  1  0.48026751  0.90312540  0.13851471  1  1.583132  0  0.181399  0.557102  0  4.173216  0
C  C101  1  0.39757282  0.13657218  0.07093613  1  1.567402  0  0.182368  0.571663  0  4.14997  0
C  C102  1  0.83234800  0.50012107  0.16879545  1  1.563562  0  0.178265  0.564468  0  4.130034  0
C  C103  1  0.71326415  0.51223411  0.43905019  1  1.554765  0  0.183222  0.559942  0  4.152218  0
C  C104  1  0.72463508  0.68766259  0.30967714  1  1.569362  0  0.181495  0.565941  0  4.142013  0
C  C105  1  0.13705077  0.63346845  0.21689305  1  1.600895  0  0.180926  0.563843  0  4.169751  0
C  C106  1  0.01972894  0.40312615  0.36148593  1  1.58315  0  0.181433  0.557091  0  4.173466  0
C  C107  1  0.10242748  0.63657216  0.42906411  1  1.567388  0  0.182383  0.571675  0  4.149926  0
C  C108  1  0.33234768  0.49987980  0.33120449  1  1.56354  0  0.178351  0.564638  0  4.130047  0
C  C109  1  0.21326253  0.48776687  0.06095038  1  1.555014  0  0.183212  0.559919  0  4.15216  0
C  C110  1  0.22463066  0.31233838  0.19032234  1  1.568914  0  0.181397  0.565727  0  4.141947  0
C  C111  1  0.63705223  0.36653205  0.28310649  1  1.60089  0  0.181022  0.564027  0  4.169628  0
C  C112  1  0.51972903  0.59687390  0.13851423  1  1.583139  0  0.181416  0.557068  0  4.173504  0
C  C113  1  0.60242646  0.36342672  0.07093490  1  1.567384  0  0.182367  0.57165  0  4.149943  0
C  C114  1  0.16765149  0.99987931  0.16879556  1  1.563565  0  0.178365  0.564718  0  4.129999  0
C  C115  1  0.28673567  0.98776832  0.43904968  1  1.554634  0  0.18327  0.559965  0  4.152174  0
C  C116  1  0.27536809  0.81233662  0.30967618  1  1.568715  0  0.181436  0.56581  0  4.142139  0
C  C117  1  0.86294961  0.86653191  0.21689326  1  1.600835  0  0.181055  0.564128  0  4.169504  0
C  C118  1  0.98026961  0.09687478  0.36148566  1  1.583136  0  0.181392  0.557062  0  4.173358  0
C  C119  1  0.89757337  0.86342698  0.42906485  1  1.567383  0  0.182355  0.571651  0  4.149973  0
O  O120  1  0.30194475  0.96962642  0.73008069  1  -1.28456  0  -0.378991  -0.691023  0  2.406682  0
O  O121  1  0.44598885  0.02512832  0.65223533  1  -1.230258  0  -0.344604  -0.580744  0  2.263639  0
O  O122  1  0.34865135  0.83291320  0.81469693  1  -1.279495  0  -0.374299  -0.686977  0  2.366078  0
O  O123  1  0.12635685  0.85362315  0.79675052  1  -1.240995  0  -0.349579  -0.587708  0  2.269912  0
O  O124  1  0.50870969  0.04564889  0.81347587  1  -1.280894  0  -0.384919  -0.695857  0  2.4383  0
O  O125  1  0.58418916  0.92378498  0.74658051  1  -1.288032  0  -0.375496  -0.687908  0  2.4114  0
O  O126  1  0.52874860  0.92049585  0.91572238  1  -1.291687  0  -0.37949  -0.696821  0  2.375722  0
O  O127  1  0.24648405  0.97832606  0.87169797  1  -1.281206  0  -0.375623  -0.686723  0  2.393165  0
O  O128  1  0.61083935  0.80126722  0.73232823  1  -1.216632  0  -0.333926  -0.570419  0  2.2948  0
O  O129  1  0.60675085  0.80623165  0.89154656  1  -1.231578  0  -0.336589  -0.581501  0  2.305629  0
O  O130  1  0.29341711  0.99212157  0.99144919  1  -1.22327  0  -0.334042  -0.574562  0  2.316689  0
O  O131  1  0.50243042  0.08877033  0.92850871  1  -1.225355  0  -0.333158  -0.57559  0  2.307989  0
O  O132  1  0.19805527  0.46962597  0.76991901  1  -1.284583  0  -0.379011  -0.691088  0  2.406686  0
O  O133  1  0.05401155  0.52512729  0.84776406  1  -1.230228  0  -0.344665  -0.580836  0  2.263733  0
O  O134  1  0.15134909  0.33291338  0.68530339  1  -1.279489  0  -0.374252  -0.68689  0  2.366153  0
O  O135  1  0.37364353  0.35362422  0.70324705  1  -1.241618  0  -0.349436  -0.587547  0  2.26975  0
O  O136  1  0.99129188  0.54564920  0.68652477  1  -1.280911  0  -0.384926  -0.695804  0  2.438325  0
O  O137  1  0.91581023  0.42378434  0.75341993  1  -1.28807  0  -0.37547  -0.687871  0  2.411425  0
O  O138  1  0.97125281  0.42049689  0.58427806  1  -1.291727  0  -0.379461  -0.696805  0  2.37589  0
O  O139  1  0.25351595  0.47832617  0.62830227  1  -1.281173  0  -0.375618  -0.686704  0  2.393164  0
O  O140  1  0.88915941  0.30126604  0.76767228  1  -1.216664  0  -0.333928  -0.570421  0  2.294865  0
O  O141  1  0.89324890  0.30623385  0.60845450  1  -1.231545  0  -0.336618  -0.58147  0  2.305563  0
O  O142  1  0.20658284  0.49212069  0.50855105  1  -1.223242  0  -0.334048  -0.574527  0  2.316673  0
O  O143  1  0.99757102  0.58876959  0.57149082  1  -1.225373  0  -0.333169  -0.575597  0  2.307956  0
O  O144  1  0.69805635  0.53037475  0.73008230  1  -1.28459  0  -0.379014  -0.691049  0  2.40681  0
O  O145  1  0.55401803  0.47487246  0.65223571  1  -1.230116  0  -0.344678  -0.580818  0  2.263586  0
O  O146  1  0.65134752  0.66708684  0.81469686  1  -1.279424  0  -0.374285  -0.686959  0  2.366122  0
O  O147  1  0.87364307  0.64637689  0.79675085  1  -1.241589  0  -0.349562  -0.587683  0  2.269934  0
O  O148  1  0.49129174  0.45435070  0.81347577  1  -1.280887  0  -0.384943  -0.69586  0  2.438132  0
O  O149  1  0.41581089  0.57621398  0.74658067  1  -1.288071  0  -0.375512  -0.687969  0  2.411451  0
O  O150  1  0.47125203  0.57950302  0.91572195  1  -1.291716  0  -0.379519  -0.696826  0  2.37571  0
O  O151  1  0.75351468  0.52167340  0.87169790  1  -1.281168  0  -0.375645  -0.686733  0  2.393177  0
O  O152  1  0.38915972  0.69873175  0.73232889  1  -1.216907  0  -0.333966  -0.570486  0  2.294737  0
O  O153  1  0.39324883  0.69376669  0.89154667  1  -1.23154  0  -0.336545  -0.58142  0  2.305701  0
O  O154  1  0.70658232  0.50787892  0.99144916  1  -1.223282  0  -0.33408  -0.574589  0  2.316718  0
O  O155  1  0.49756669  0.41122866  0.92850917  1  -1.22535  0  -0.333158  -0.575652  0  2.30802  0
O  O156  1  0.80194627  0.03037310  0.76991835  1  -1.284576  0  -0.379017  -0.69106  0  2.406694  0
O  O157  1  0.94598825  0.97487217  0.84776470  1  -1.230237  0  -0.344656  -0.580827  0  2.26372  0
O  O158  1  0.84865468  0.16708629  0.68530318  1  -1.279576  0  -0.374301  -0.687021  0  2.366094  0
O  O159  1  0.62635818  0.14637653  0.70324920  1  -1.241088  0  -0.349536  -0.587699  0  2.269927  0
O  O160  1  0.00870933  0.95435145  0.68652448  1  -1.280915  0  -0.38496  -0.695852  0  2.438194  0
O  O161  1  0.08419035  0.07621584  0.75341978  1  -1.288057  0  -0.375472  -0.687879  0  2.41141  0
O  O162  1  0.02874819  0.07950447  0.58427741  1  -1.291676  0  -0.379482  -0.696779  0  2.375718  0
O  O163  1  0.74648495  0.02167407  0.62830167  1  -1.281152  0  -0.375627  -0.686711  0  2.393186  0
O  O164  1  0.11084013  0.19873413  0.76767150  1  -1.216667  0  -0.333939  -0.570466  0  2.294853  0
O  O165  1  0.10675104  0.19376805  0.60845373  1  -1.231588  0  -0.336615  -0.581461  0  2.305656  0
O  O166  1  0.79341735  0.00787961  0.50855041  1  -1.223278  0  -0.334059  -0.574557  0  2.3167  0
O  O167  1  0.00242847  0.91123113  0.57149110  1  -1.22536  0  -0.333119  -0.575553  0  2.308073  0
O  O168  1  0.69805469  0.03037273  0.26991885  1  -1.284574  0  -0.379001  -0.691105  0  2.406672  0
O  O169  1  0.55401159  0.97487194  0.34776421  1  -1.230245  0  -0.344701  -0.580906  0  2.263677  0
O  O170  1  0.65134707  0.16708706  0.18530425  1  -1.279543  0  -0.374256  -0.68694  0  2.366141  0
O  O171  1  0.87364057  0.14637435  0.20325011  1  -1.241084  0  -0.349497  -0.587642  0  2.269894  0
O  O172  1  0.49128873  0.95435082  0.18652476  1  -1.280866  0  -0.384905  -0.695842  0  2.438187  0
O  O173  1  0.41580927  0.07621527  0.25341903  1  -1.288005  0  -0.375479  -0.687866  0  2.411401  0
O  O174  1  0.47125285  0.07950385  0.08427770  1  -1.291711  0  -0.379478  -0.696805  0  2.375806  0
O  O175  1  0.75351539  0.02167365  0.12830158  1  -1.281166  0  -0.375627  -0.686717  0  2.393191  0
O  O176  1  0.38915907  0.19873358  0.26767240  1  -1.216644  0  -0.33392  -0.570404  0  2.294857  0
O  O177  1  0.39324959  0.19376696  0.10845408  1  -1.231574  0  -0.336588  -0.581466  0  2.305665  0
O  O178  1  0.70658232  0.00787924  0.00855036  1  -1.223285  0  -0.334066  -0.574556  0  2.31669  0
O  O179  1  0.49757002  0.91122773  0.07149138  1  -1.225339  0  -0.333159  -0.575626  0  2.307916  0
O  O180  1  0.80194517  0.53037429  0.23008054  1  -1.284581  0  -0.379009  -0.691046  0  2.406714  0
O  O181  1  0.94598890  0.47487242  0.15223548  1  -1.230242  0  -0.344588  -0.580729  0  2.26364  0
O  O182  1  0.84865538  0.66708578  0.31469615  1  -1.27948  0  -0.37433  -0.687024  0  2.366089  0
O  O183  1  0.62635893  0.64637769  0.29674921  1  -1.24157  0  -0.349496  -0.58771  0  2.269858  0
O  O184  1  0.00870856  0.45435161  0.31347531  1  -1.280898  0  -0.384916  -0.695825  0  2.438299  0
O  O185  1  0.08419021  0.57621537  0.24657961  1  -1.288068  0  -0.375462  -0.687867  0  2.411454  0
O  O186  1  0.02874763  0.57950391  0.41572202  1  -1.291712  0  -0.379502  -0.696814  0  2.375737  0
O  O187  1  0.74648550  0.52167463  0.37169781  1  -1.281276  0  -0.375624  -0.686715  0  2.393243  0
O  O188  1  0.11084003  0.69873367  0.23232726  1  -1.216646  0  -0.33391  -0.570413  0  2.294857  0
O  O189  1  0.10675154  0.69376641  0.39154614  1  -1.231551  0  -0.33657  -0.58144  0  2.305684  0
O  O190  1  0.79341660  0.50787956  0.49144959  1  -1.223268  0  -0.334049  -0.574575  0  2.316704  0
O  O191  1  0.00242942  0.41122957  0.42850927  1  -1.225382  0  -0.333171  -0.575591  0  2.308  0
O  O192  1  0.30194409  0.46962605  0.26991942  1  -1.284567  0  -0.378975  -0.691034  0  2.406662  0
O  O193  1  0.44598845  0.52512835  0.34776437  1  -1.23024  0  -0.344686  -0.580861  0  2.263781  0
O  O194  1  0.34865192  0.33291342  0.18530432  1  -1.279495  0  -0.374271  -0.686941  0  2.366072  0
O  O195  1  0.12635737  0.35362612  0.20324978  1  -1.241146  0  -0.349492  -0.587629  0  2.269758  0
O  O196  1  0.50870870  0.54564901  0.18652486  1  -1.280892  0  -0.38492  -0.695804  0  2.438255  0
O  O197  1  0.58419056  0.42378462  0.25341942  1  -1.288083  0  -0.375466  -0.687888  0  2.411388  0
O  O198  1  0.52874841  0.42049558  0.08427705  1  -1.291682  0  -0.379484  -0.696778  0  2.375731  0
O  O199  1  0.24648475  0.47832631  0.12830219  1  -1.281175  0  -0.375634  -0.686737  0  2.393179  0
O  O200  1  0.61084072  0.30126686  0.26767229  1  -1.216617  0  -0.333984  -0.570519  0  2.294767  0
O  O201  1  0.60675161  0.30623192  0.10845288  1  -1.231566  0  -0.336577  -0.581459  0  2.305629  0
O  O202  1  0.29341510  0.49212024  0.00855093  1  -1.223569  0  -0.334008  -0.574485  0  2.316685  0
O  O203  1  0.50242770  0.58876940  0.07149092  1  -1.225378  0  -0.333151  -0.575577  0  2.308031  0
O  O204  1  0.19805417  0.96962661  0.23008119  1  -1.284578  0  -0.378993  -0.691098  0  2.40669  0
O  O205  1  0.05401118  0.02512754  0.15223593  1  -1.230246  0  -0.344662  -0.580844  0  2.263704  0
O  O206  1  0.15134878  0.83291342  0.31469636  1  -1.27937  0  -0.37428  -0.686944  0  2.366141  0
O  O207  1  0.37364326  0.85362263  0.29674925  1  -1.24102  0  -0.349485  -0.587664  0  2.269928  0
O  O208  1  0.99129010  0.04564880  0.31347560  1  -1.280852  0  -0.384928  -0.69584  0  2.438158  0
O  O209  1  0.91581009  0.92378497  0.24658085  1  -1.28803  0  -0.375489  -0.687931  0  2.411336  0
O  O210  1  0.97125225  0.92049578  0.41572322  1  -1.291684  0  -0.37949  -0.696792  0  2.375723  0
O  O211  1  0.25351549  0.97832564  0.37169787  1  -1.281201  0  -0.375652  -0.686759  0  2.393195  0
O  O212  1  0.88916031  0.80126668  0.23232804  1  -1.216621  0  -0.334002  -0.570535  0  2.294703  0
O  O213  1  0.89324940  0.80623220  0.39154691  1  -1.231574  0  -0.336567  -0.581447  0  2.305657  0
O  O214  1  0.20658208  0.99212119  0.49144858  1  -1.223246  0  -0.334041  -0.574533  0  2.316691  0
O  O215  1  0.99756694  0.08877133  0.42850953  1  -1.22534  0  -0.333119  -0.57557  0  2.308022  0
