# generated using pymatgen
data_Hg2H16C15(SBr)4
_symmetry_space_group_name_H-M   'P 1'
_cell_length_a   7.83791885
_cell_length_b   10.73029338
_cell_length_c   13.87960914
_cell_angle_alpha   83.45138835
_cell_angle_beta   84.01910917
_cell_angle_gamma   86.88726562
_symmetry_Int_Tables_number   1
_chemical_formula_structural   Hg2H16C15(SBr)4
_chemical_formula_sum   'Hg4 H32 C30 S8 Br8'
_cell_volume   1152.32695430
_cell_formula_units_Z   2
loop_
 _symmetry_equiv_pos_site_id
 _symmetry_equiv_pos_as_xyz
  1  'x, y, z'
loop_
 _atom_site_type_symbol
 _atom_site_label
 _atom_site_symmetry_multiplicity
 _atom_site_fract_x
 _atom_site_fract_y
 _atom_site_fract_z
 _atom_site_occupancy
 _atom_site_hle17_bader_spin_density
 _atom_site_hle17_ddec_charge
 _atom_site_hle17_ddec_spin_density
 _atom_site_hle17_ddec_sum_bond_order
 _atom_site_hle17_magmom
 _atom_site_hse06_10hf_bader_spin_density
 _atom_site_hse06_10hf_ddec_charge
 _atom_site_hse06_10hf_ddec_spin_density
 _atom_site_hse06_10hf_ddec_sum_bond_order
 _atom_site_hse06_10hf_magmom
 _atom_site_hse06_bader_spin_density
 _atom_site_hse06_ddec_charge
 _atom_site_hse06_ddec_spin_density
 _atom_site_hse06_ddec_sum_bond_order
 _atom_site_hse06_magmom
 _atom_site_pbe_bader_spin_density
 _atom_site_pbe_cm5_charge
 _atom_site_pbe_ddec_charge
 _atom_site_pbe_ddec_spin_density
 _atom_site_pbe_ddec_sum_bond_order
 _atom_site_pbe_magmom
Hg  Hg0  1  0.79821904  0.75777647  0.16940297  1  0  0.528231  0  2.181808  0  0  0.402231  0  2.673302  0  0  0.444596  0  2.648877  0  0  0.390095  0.373173  0  2.689477  0
Hg  Hg1  1  0.20178250  0.24222178  0.83059923  1  0  0.528269  0  2.181768  0  0  0.40228  0  2.673255  0  0  0.444643  0  2.64883  0  0  0.390114  0.373223  0  2.689447  0
Hg  Hg2  1  0.45679982  0.88506643  0.67450909  1  0  0.526198  0  2.200967  0  0  0.394656  0  2.693151  0  0  0.437167  0  2.669637  0  0  0.3925  0.365914  0  2.70874  0
Hg  Hg3  1  0.54317492  0.11492987  0.32549197  1  0  0.526179  0  2.201016  0  0  0.394631  0  2.693191  0  0  0.437146  0  2.669673  0  0  0.392486  0.365889  0  2.708784  0
H  H4  1  0.39814459  0.45070222  0.35163274  1  0  0.095899  0  0.966875  0  0  0.101256  0  1.038385  0  0  0.10456  0  1.036692  0  0  0.090484  0.09926  0  1.039171  0
H  H5  1  0.60184896  0.54930072  0.64836376  1  0  0.095974  0  0.966858  0  0  0.101327  0  1.038383  0  0  0.104631  0  1.036692  0  0  0.090519  0.099332  0  1.039158  0
H  H6  1  0.25619063  0.64921316  0.39810264  1  0  0.097446  0  0.96164  0  0  0.110014  0  1.020989  0  0  0.112911  0  1.019426  0  0  0.096614  0.108061  0  1.022123  0
H  H7  1  0.74380286  0.35079072  0.60189378  1  0  0.097514  0  0.961659  0  0  0.110096  0  1.020984  0  0  0.112993  0  1.019424  0  0  0.096662  0.108142  0  1.022123  0
H  H8  1  0.74970664  0.78564499  0.43972847  1  0  0.099322  0  0.961485  0  0  0.107416  0  1.02721  0  0  0.110977  0  1.025223  0  0  0.08865  0.10528  0  1.02809  0
H  H9  1  0.25028855  0.21435231  0.56027346  1  0  0.099365  0  0.961389  0  0  0.107439  0  1.027137  0  0  0.111014  0  1.025137  0  0  0.088687  0.105304  0  1.02802  0
H  H10  1  0.88991568  0.58440903  0.39704454  1  0  0.100152  0  0.94008  0  0  0.112112  0  0.996389  0  0  0.115484  0  0.994413  0  0  0.09797  0.109806  0  0.997865  0
H  H11  1  0.11007560  0.41558919  0.60295754  1  0  0.100133  0  0.94017  0  0  0.112117  0  0.996453  0  0  0.115487  0  0.99448  0  0  0.098004  0.109814  0  0.997926  0
H  H12  1  0.45085804  0.57421829  0.13633458  1  0  0.100034  0  0.959787  0  0  0.10567  0  1.031035  0  0  0.108675  0  1.029698  0  0  0.090158  0.103709  0  1.031726  0
H  H13  1  0.54914584  0.42578374  0.86365852  1  0  0.100145  0  0.959769  0  0  0.105718  0  1.031052  0  0  0.108723  0  1.029713  0  0  0.090171  0.103755  0  1.031752  0
H  H14  1  0.19414660  0.47392302  0.09786101  1  0  0.094487  0  0.972608  0  0  0.099328  0  1.046818  0  0  0.102905  0  1.044346  0  0  0.088066  0.096598  0  1.04875  0
H  H15  1  0.80586050  0.52606868  0.90214072  1  0  0.094459  0  0.972463  0  0  0.099288  0  1.046706  0  0  0.102866  0  1.044233  0  0  0.088064  0.096556  0  1.048644  0
H  H16  1  0.99641844  0.45694473  0.25439255  1  0  0.114744  0  0.949161  0  0  0.127396  0  1.013459  0  0  0.129281  0  1.012139  0  0  0.092394  0.126187  0  1.014048  0
H  H17  1  0.00357919  0.54305445  0.74561196  1  0  0.114713  0  0.949138  0  0  0.12737  0  1.013425  0  0  0.129255  0  1.012106  0  0  0.092391  0.126161  0  1.014021  0
H  H18  1  0.95157355  0.30909851  0.21741464  1  0  0.108606  0  0.982086  0  0  0.113848  0  1.061201  0  0  0.116189  0  1.059625  0  0  0.084582  0.111837  0  1.063038  0
H  H19  1  0.04842910  0.69090256  0.78258870  1  0  0.108615  0  0.982066  0  0  0.113854  0  1.061187  0  0  0.116193  0  1.059614  0  0  0.084573  0.111847  0  1.063018  0
H  H20  1  0.75366359  0.23172844  0.09824333  1  0  0.095623  0  0.962153  0  0  0.104136  0  1.027647  0  0  0.107192  0  1.02617  0  0  0.091319  0.101821  0  1.028955  0
H  H21  1  0.24634529  0.76827548  0.90175507  1  0  0.095623  0  0.962208  0  0  0.104135  0  1.027699  0  0  0.107195  0  1.026208  0  0  0.091311  0.101821  0  1.029  0
H  H22  1  0.49619980  0.12875858  0.06459051  1  0  0.093642  0  0.983192  0  0  0.101462  0  1.051646  0  0  0.104605  0  1.049974  0  0  0.088355  0.09951  0  1.05224  0
H  H23  1  0.50381451  0.87124065  0.93541158  1  0  0.09364  0  0.983122  0  0  0.101467  0  1.051543  0  0  0.104615  0  1.049865  0  0  0.08835  0.099512  0  1.052139  0
H  H24  1  0.16324849  0.85138433  0.36723381  1  0  0.132607  0  0.960689  0  0  0.147477  0  1.028182  0  0  0.149482  0  1.027193  0  0  0.084724  0.146125  0  1.028718  0
H  H25  1  0.83675001  0.14862144  0.63276143  1  0  0.132625  0  0.960705  0  0  0.147465  0  1.028227  0  0  0.149471  0  1.027236  0  0  0.08473  0.146111  0  1.028766  0
H  H26  1  0.12946949  0.96688956  0.45079240  1  0  0.133843  0  0.960499  0  0  0.151493  0  1.024052  0  0  0.153387  0  1.023241  0  0  0.08708  0.150272  0  1.024625  0
H  H27  1  0.87053164  0.03311528  0.54920205  1  0  0.133768  0  0.960482  0  0  0.151464  0  1.023964  0  0  0.153354  0  1.023154  0  0  0.08705  0.150246  0  1.024533  0
H  H28  1  0.11851098  0.80378935  0.49682096  1  0  0.120549  0  0.974084  0  0  0.132842  0  1.046557  0  0  0.134547  0  1.045999  0  0  0.082973  0.1318  0  1.04695  0
H  H29  1  0.88148886  0.19621549  0.50317357  1  0  0.120496  0  0.974075  0  0  0.132816  0  1.046538  0  0  0.134499  0  1.045998  0  0  0.082969  0.131774  0  1.046933  0
H  H30  1  0.27329413  0.02711752  0.02422666  1  0  0.120315  0  0.963377  0  0  0.13673  0  1.028754  0  0  0.138199  0  1.028242  0  0  0.082347  0.135509  0  1.029201  0
H  H31  1  0.72671388  0.97287981  0.97577813  1  0  0.120357  0  0.963323  0  0  0.136763  0  1.028709  0  0  0.138233  0  1.028196  0  0  0.08237  0.135542  0  1.029159  0
H  H32  1  0.05207212  0.02323235  0.07270732  1  0  0.125659  0  0.950971  0  0  0.147958  0  1.008614  0  0  0.148789  0  1.00887  0  0  0.09002  0.14735  0  1.008401  0
H  H33  1  0.94793717  0.97676498  0.92729667  1  0  0.125685  0  0.950985  0  0  0.148003  0  1.008589  0  0  0.148836  0  1.00884  0  0  0.090051  0.147393  0  1.008379  0
H  H34  1  0.21124880  0.04470089  0.15107931  1  0  0.135412  0  0.952973  0  0  0.151068  0  1.017981  0  0  0.153075  0  1.017272  0  0  0.085072  0.150092  0  1.017378  0
H  H35  1  0.78875897  0.95530019  0.84892516  1  0  0.135355  0  0.953022  0  0  0.151038  0  1.017994  0  0  0.153037  0  1.01729  0  0  0.085036  0.150082  0  1.017367  0
C  C36  1  0.47470931  0.52398463  0.37148384  1  0  -0.077727  0  3.725739  0  0  -0.096287  0  3.974503  0  0  -0.097857  0  3.995886  0  0  -0.089827  -0.094876  0  3.959435  0
C  C37  1  0.52528423  0.47601830  0.62851483  1  0  -0.077796  0  3.72576  0  0  -0.096356  0  3.974517  0  0  -0.097925  0  3.9959  0  0  -0.089802  -0.094933  0  3.959448  0
C  C38  1  0.65266870  0.50471883  0.37117769  1  0  0.020391  0  3.801956  0  0  0.040571  0  4.05432  0  0  0.0399  0  4.079881  0  0  -0.023808  0.041303  0  4.036952  0
C  C39  1  0.34732124  0.49528033  0.62882295  1  0  0.020397  0  3.801846  0  0  0.040555  0  4.054247  0  0  0.039881  0  4.079808  0  0  -0.023814  0.041284  0  4.036884  0
C  C40  1  0.39480276  0.63603325  0.39793840  1  0  -0.094532  0  3.733305  0  0  -0.115959  0  3.983138  0  0  -0.118547  0  4.003292  0  0  -0.096767  -0.11407  0  3.969383  0
C  C41  1  0.60518956  0.36396874  0.60205969  1  0  -0.094632  0  3.733429  0  0  -0.116075  0  3.98321  0  0  -0.118663  0  4.003361  0  0  -0.096861  -0.114192  0  3.96948  0
C  C42  1  0.67257486  0.71210799  0.42103291  1  0  -0.118352  0  3.769844  0  0  -0.136372  0  4.021866  0  0  -0.140186  0  4.042932  0  0  -0.1059  -0.133445  0  4.007116  0
C  C43  1  0.32741758  0.28789212  0.57896678  1  0  -0.118381  0  3.769702  0  0  -0.136423  0  4.021725  0  0  -0.140251  0  4.042785  0  0  -0.105966  -0.133511  0  4.007017  0
C  C44  1  0.75128544  0.59928043  0.39647771  1  0  -0.102052  0  3.769845  0  0  -0.117061  0  4.014698  0  0  -0.119046  0  4.035285  0  0  -0.098359  -0.115838  0  4.000693  0
C  C45  1  0.24871213  0.40071969  0.60352312  1  0  -0.102087  0  3.76996  0  0  -0.117108  0  4.014843  0  0  -0.119093  0  4.035435  0  0  -0.098437  -0.115881  0  4.000833  0
C  C46  1  0.46100109  0.47681811  0.12022323  1  0  -0.08108  0  3.73132  0  0  -0.09903  0  3.976866  0  0  -0.100723  0  3.99857  0  0  -0.090861  -0.098242  0  3.962367  0
C  C47  1  0.53901420  0.52318583  0.87977407  1  0  -0.081235  0  3.73156  0  0  -0.099067  0  3.977019  0  0  -0.100761  0  3.998726  0  0  -0.090884  -0.098276  0  3.962529  0
C  C48  1  0.31616023  0.42005963  0.09854404  1  0  -0.097773  0  3.734163  0  0  -0.116723  0  3.983505  0  0  -0.11955  0  4.003504  0  0  -0.098019  -0.114618  0  3.970306  0
C  C49  1  0.68383869  0.57993957  0.90145319  1  0  -0.097723  0  3.734347  0  0  -0.116652  0  3.98363  0  0  -0.119483  0  4.003638  0  0  -0.098037  -0.114555  0  3.970445  0
C  C50  1  0.89366795  0.39901171  0.23829655  1  0  -0.194662  0  3.639533  0  0  -0.224081  0  3.905011  0  0  -0.221694  0  3.911905  0  0  -0.151319  -0.225333  0  3.900178  0
C  C51  1  0.10633097  0.60098748  0.76170573  1  0  -0.194614  0  3.63954  0  0  -0.223995  0  3.904922  0  0  -0.221608  0  3.911821  0  0  -0.151289  -0.225256  0  3.900104  0
C  C52  1  0.61910779  0.40947958  0.11996567  1  0  0.030641  0  3.786352  0  0  0.051768  0  4.034058  0  0  0.051768  0  4.058674  0  0  -0.018282  0.051691  0  4.017112  0
C  C53  1  0.38089596  0.59052433  0.88003303  1  0  0.030705  0  3.786301  0  0  0.051789  0  4.034027  0  0  0.05179  0  4.058639  0  0  -0.018229  0.051711  0  4.017084  0
C  C54  1  0.49323794  0.73061664  0.42242941  1  0  0.038386  0  3.788888  0  0  0.055736  0  4.043576  0  0  0.058151  0  4.067327  0  0  -0.017005  0.054089  0  4.027452  0
C  C55  1  0.50675695  0.26938536  0.57756853  1  0  0.03836  0  3.788968  0  0  0.055805  0  4.043534  0  0  0.058218  0  4.067291  0  0  -0.016946  0.054159  0  4.027402  0
C  C56  1  0.32708374  0.29460195  0.07813735  1  0  0.031563  0  3.78183  0  0  0.051541  0  4.031916  0  0  0.05346  0  4.055644  0  0  -0.016833  0.049828  0  4.016278  0
C  C57  1  0.67292824  0.70539352  0.92186305  1  0  0.031642  0  3.781527  0  0  0.051582  0  4.031666  0  0  0.053502  0  4.055397  0  0  -0.016783  0.049863  0  4.016034  0
C  C58  1  0.63034666  0.28398189  0.09980768  1  0  -0.098039  0  3.747772  0  0  -0.113503  0  3.99153  0  0  -0.115424  0  4.011969  0  0  -0.098391  -0.111878  0  3.977535  0
C  C59  1  0.36966625  0.71601922  0.90019289  1  0  -0.098117  0  3.748006  0  0  -0.113553  0  3.99175  0  0  -0.115472  0  4.012201  0  0  -0.098417  -0.111928  0  3.977746  0
C  C60  1  0.48482523  0.22627170  0.07981168  1  0  -0.111162  0  3.764883  0  0  -0.127184  0  4.009036  0  0  -0.130984  0  4.031224  0  0  -0.104499  -0.124819  0  3.994135  0
C  C61  1  0.51518279  0.77372563  0.92018950  1  0  -0.111154  0  3.764558  0  0  -0.127175  0  4.008764  0  0  -0.130963  0  4.030917  0  0  -0.104504  -0.124804  0  3.993855  0
C  C62  1  0.18135011  0.87176273  0.44109819  1  0  -0.331633  0  3.641194  0  0  -0.40229  0  3.887617  0  0  -0.402915  0  3.894672  0  0  -0.239566  -0.401803  0  3.882151  0
C  C63  1  0.81864852  0.12824116  0.55889793  1  0  -0.331495  0  3.641116  0  0  -0.402189  0  3.887553  0  0  -0.402786  0  3.894628  0  0  -0.239529  -0.401701  0  3.882086  0
C  C64  1  0.17524506  0.06520974  0.07651317  1  0  -0.33397  0  3.658341  0  0  -0.405491  0  3.906134  0  0  -0.406121  0  3.91421  0  0  -0.240137  -0.404482  0  3.899625  0
C  C65  1  0.82476290  0.93478853  0.92349010  1  0  -0.333954  0  3.658356  0  0  -0.405492  0  3.906115  0  0  -0.406103  0  3.914192  0  0  -0.240118  -0.404504  0  3.89959  0
S  S66  1  0.13764610  0.23196222  0.04917566  1  0  0.050763  0  2.604689  0  0  0.070776  0  2.973134  0  0  0.063462  0  2.974738  0  0  0.023241  0.075677  0  2.972073  0
S  S67  1  0.86236186  0.76803605  0.95082545  1  0  0.0507  0  2.604649  0  0  0.070702  0  2.973172  0  0  0.063381  0  2.974768  0  0  0.023211  0.075601  0  2.972113  0
S  S68  1  0.40593439  0.87548933  0.45546003  1  0  0.036406  0  2.752522  0  0  0.067334  0  3.130602  0  0  0.057424  0  3.133567  0  0  0.013319  0.075404  0  3.128564  0
S  S69  1  0.59406307  0.12451268  0.54453704  1  0  0.036389  0  2.75257  0  0  0.067295  0  3.130586  0  0  0.057385  0  3.133541  0  0  0.013318  0.075367  0  3.128552  0
S  S70  1  0.74868993  0.35792674  0.34557886  1  0  -0.012776  0  2.594847  0  0  -0.002495  0  2.952168  0  0  -0.008112  0  2.955758  0  0  -0.006595  0.001565  0  2.950005  0
S  S71  1  0.25129751  0.64207149  0.65441913  1  0  -0.012757  0  2.594725  0  0  -0.002485  0  2.952059  0  0  -0.008107  0  2.955658  0  0  -0.006601  0.001576  0  2.9499  0
S  S72  1  0.80534519  0.48852696  0.13432438  1  0  -0.011187  0  2.621292  0  0  -0.000308  0  2.993079  0  0  -0.008567  0  2.998208  0  0  0.001828  0.005318  0  2.989109  0
S  S73  1  0.19466265  0.51147319  0.86567512  1  0  -0.011229  0  2.621478  0  0  -0.000382  0  2.993309  0  0  -0.008632  0  2.998417  0  0  0.001796  0.005248  0  2.989348  0
Br  Br74  1  0.75651606  0.79537743  0.66098551  1  0  -0.325564  0  1.11358  0  0  -0.26708  0  1.419572  0  0  -0.286523  0  1.405271  0  0  -0.178569  -0.256253  0  1.430057  0
Br  Br75  1  0.24346210  0.20462546  0.33901478  1  0  -0.325563  0  1.113686  0  0  -0.267044  0  1.419611  0  0  -0.286488  0  1.405322  0  0  -0.178537  -0.25623  0  1.430136  0
Br  Br76  1  0.50502646  0.85776153  0.16589645  1  0  -0.345703  0  1.189831  0  0  -0.285821  0  1.519982  0  0  -0.305426  0  1.5042  0  0  -0.185072  -0.271137  0  1.529018  0
Br  Br77  1  0.49497374  0.14223767  0.83410359  1  0  -0.345711  0  1.189807  0  0  -0.28583  0  1.519937  0  0  -0.305442  0  1.504166  0  0  -0.185069  -0.271139  0  1.528988  0
Br  Br78  1  0.10583192  0.71537099  0.20037215  1  0  -0.35101  0  1.115246  0  0  -0.290438  0  1.419984  0  0  -0.309081  0  1.404027  0  0  -0.19055  -0.27704  0  1.430192  0
Br  Br79  1  0.89417060  0.28463195  0.79963247  1  0  -0.351025  0  1.115249  0  0  -0.290457  0  1.419988  0  0  -0.3091  0  1.404031  0  0  -0.190547  -0.277049  0  1.430203  0
Br  Br80  1  0.15598622  0.96731716  0.71081363  1  0  -0.343658  0  1.142184  0  0  -0.284706  0  1.461822  0  0  -0.305448  0  1.446735  0  0  -0.191456  -0.273349  0  1.47318  0
Br  Br81  1  0.84398673  0.03266693  0.28918716  1  0  -0.343671  0  1.142167  0  0  -0.284703  0  1.461756  0  0  -0.305454  0  1.446691  0  0  -0.191472  -0.273346  0  1.47311  0
