# generated using pymatgen
data_Zn3H22C32(NO6)2
_symmetry_space_group_name_H-M   'P 1'
_cell_length_a   9.01434257
_cell_length_b   9.28606956
_cell_length_c   17.77678652
_cell_angle_alpha   101.71384080
_cell_angle_beta   90.00453065
_cell_angle_gamma   119.36093591
_symmetry_Int_Tables_number   1
_chemical_formula_structural   Zn3H22C32(NO6)2
_chemical_formula_sum   'Zn3 H22 C32 N2 O12'
_cell_volume   1261.22023479
_cell_formula_units_Z   1
loop_
 _symmetry_equiv_pos_site_id
 _symmetry_equiv_pos_as_xyz
  1  'x, y, z'
loop_
 _atom_site_type_symbol
 _atom_site_label
 _atom_site_symmetry_multiplicity
 _atom_site_fract_x
 _atom_site_fract_y
 _atom_site_fract_z
 _atom_site_occupancy
 _atom_site_pbe_bader_charge
 _atom_site_pbe_bader_spin_density
 _atom_site_pbe_cm5_charge
 _atom_site_pbe_ddec_charge
 _atom_site_pbe_ddec_spin_density
 _atom_site_pbe_ddec_sum_bond_order
 _atom_site_pbe_magmom
Zn  Zn0  1  0.50047358  0.00009011  0.00000571  1  1.415355  0  0.683309  1.020671  0  2.226441  0
Zn  Zn1  1  0.50579307  0.01472810  0.82112840  1  1.281265  0  0.695085  0.840931  0  2.389413  0
Zn  Zn2  1  0.49530840  0.98551051  0.17887967  1  1.283173  0  0.695061  0.840887  0  2.389759  0
H  H3  1  0.06229705  0.12830573  0.85696682  1  0.078772  0  0.094283  0.096375  0  0.971593  0
H  H4  1  0.93913965  0.87192232  0.14302500  1  0.072533  0  0.094452  0.096909  0  0.971588  0
H  H5  1  0.05985892  0.12248810  0.95641621  1  0.045724  0  0.097268  0.100021  0  0.976987  0
H  H6  1  0.94125797  0.87774370  0.04357373  1  0.042879  0  0.097168  0.100175  0  0.977638  0
H  H7  1  0.33921079  0.38683328  0.98969304  1  0.031752  0  0.10112  0.085813  0  0.974347  0
H  H8  1  0.95002730  0.61209269  0.00936979  1  0.023766  0  0.101252  0.085252  0  0.975819  0
H  H9  1  0.66174854  0.61342697  0.01046010  1  0.019706  0  0.101119  0.085705  0  0.974516  0
H  H10  1  0.05076691  0.38798347  0.99048632  1  0.018081  0  0.101331  0.085243  0  0.975513  0
H  H11  1  0.31654272  0.62614806  0.95427479  1  0.097277  0  0.097639  0.08798  0  1.0119  0
H  H12  1  0.68436614  0.37416603  0.04576001  1  0.098349  0  0.097908  0.088613  0  1.011917  0
H  H13  1  0.50379217  0.52550437  0.88770457  1  0.022661  0  0.089975  0.087577  0  0.986441  0
H  H14  1  0.97394598  0.47053919  0.10989642  1  0.024223  0  0.090627  0.088871  0  0.988119  0
H  H15  1  0.49759243  0.47510580  0.11264586  1  0.034064  0  0.090077  0.087696  0  0.986739  0
H  H16  1  0.02712150  0.52947625  0.88986862  1  0.03456  0  0.090592  0.088909  0  0.988223  0
H  H17  1  0.33084599  0.37731027  0.81575931  1  0.050884  0  0.088692  0.090313  0  0.999952  0
H  H18  1  0.95561894  0.61991178  0.18312389  1  0.06506  0  0.09123  0.095383  0  0.990256  0
H  H19  1  0.67090876  0.62326626  0.18442347  1  0.052954  0  0.088833  0.090643  0  0.999651  0
H  H20  1  0.04585658  0.38023282  0.81673294  1  0.070358  0  0.09113  0.095403  0  0.990185  0
H  H21  1  0.42071176  0.73344288  0.66740899  1  0.176788  0  0.132037  0.130991  0  1.00644  0
H  H22  1  0.57849361  0.26640214  0.33252115  1  0.213055  0  0.13241  0.131965  0  1.005532  0
H  H23  1  0.42908169  0.73326229  0.52630581  1  0.150829  0  0.112401  0.130991  0  1.029474  0
H  H24  1  0.56786928  0.26630779  0.47353024  1  0.15065  0  0.112267  0.13097  0  1.028819  0
C  C25  1  0.10304559  0.20774648  0.91643497  1  -0.05806  0  -0.152933  -0.168491  0  3.86356  0
C  C26  1  0.89816215  0.79249169  0.08355618  1  -0.051097  0  -0.152586  -0.169191  0  3.865311  0
C  C27  1  0.30004375  0.31770616  0.92851978  1  0.019836  0  -0.087946  -0.107655  0  3.871932  0
C  C28  1  0.98216333  0.68074757  0.07065128  1  0.044545  0  -0.087559  -0.106358  0  3.869845  0
C  C29  1  0.70116652  0.68265117  0.07161559  1  0.037016  0  -0.088103  -0.107736  0  3.871759  0
C  C30  1  0.01884992  0.31931862  0.92921058  1  0.040396  0  -0.08758  -0.106726  0  3.86781  0
C  C31  1  0.28059439  0.55691645  0.89336272  1  -0.016447  0  -0.093312  -0.113614  0  3.873486  0
C  C32  1  0.72059311  0.44335850  0.10667714  1  0.016804  0  -0.094637  -0.115621  0  3.875041  0
C  C33  1  0.37609291  0.20154068  0.91459761  1  1.557608  0  0.222148  0.626814  0  4.10059  0
C  C34  1  0.17585008  0.79674844  0.08377376  1  1.556908  0  0.222757  0.626584  0  4.098551  0
C  C35  1  0.62524185  0.79893353  0.08559679  1  1.560662  0  0.222225  0.627608  0  4.098457  0
C  C36  1  0.82516061  0.20323583  0.91601008  1  1.558748  0  0.224116  0.627719  0  4.096554  0
C  C37  1  0.36328865  0.44523468  0.87701667  1  -0.025824  0  -0.162172  -0.176576  0  3.91839  0
C  C38  1  0.91666334  0.55254969  0.12185739  1  -0.056357  0  -0.162193  -0.17675  0  3.911151  0
C  C39  1  0.63812676  0.55523448  0.12317835  1  -0.065823  0  -0.162078  -0.17691  0  3.917853  0
C  C40  1  0.08451849  0.44755595  0.87801126  1  -0.055122  0  -0.162377  -0.176943  0  3.909817  0
C  C41  1  0.34721876  0.68746922  0.84478436  1  1.460266  0  0.219711  0.63344  0  4.070541  0
C  C42  1  0.65404782  0.31276464  0.15523504  1  1.460878  0  0.219886  0.634768  0  4.070263  0
C  C43  1  0.49528452  0.99775857  0.54077817  1  0.147424  0  0.021841  0.060067  0  3.989031  0
C  C44  1  0.50086538  0.00162453  0.45922017  1  0.116383  0  0.021359  0.059819  0  3.989211  0
C  C45  1  0.45268487  0.84587234  0.64584335  1  0.350142  0  0.048192  0.069924  0  3.854676  0
C  C46  1  0.54564377  0.15378531  0.35409265  1  0.313446  0  0.047764  0.068377  0  3.855926  0
C  C47  1  0.45667304  0.84895360  0.56872560  1  0.024471  0  -0.066194  -0.144927  0  3.885139  0
C  C48  1  0.54046083  0.15057445  0.43119678  1  0.023075  0  -0.064726  -0.143664  0  3.884868  0
C  C49  1  0.57766817  0.35431788  0.61319489  1  0.417526  0  -0.123363  -0.271445  0  2.580955  0
C  C50  1  0.47034828  0.86462011  0.40006746  1  -0.084587  0  0.067488  0.082132  0  3.740307  0
C  C51  1  0.41654785  0.64393136  0.38676116  1  0.403679  0  -0.123133  -0.271554  0  2.578333  0
C  C52  1  0.52542864  0.13463514  0.59993544  1  -0.079264  0  0.066868  0.081588  0  3.742267  0
C  C53  1  0.56102655  0.28677486  0.67254454  1  -0.540336  0  0.054118  0.115051  0  3.557049  0
C  C54  1  0.47826825  0.88190506  0.32470499  1  0.678185  0  0.187234  0.236835  0  4.004558  0
C  C55  1  0.43516166  0.71240072  0.32760559  1  -0.530778  0  0.053569  0.115288  0  3.561182  0
C  C56  1  0.51870800  0.11740314  0.67533530  1  0.649708  0  0.188045  0.238365  0  4.003166  0
N  N57  1  0.48665525  0.98815490  0.70352841  1  -1.161688  0  -0.289744  -0.206745  0  3.498072  0
N  N58  1  0.51191604  0.01152849  0.29646982  1  -1.189978  0  -0.290058  -0.206299  0  3.496677  0
O  O59  1  0.42415978  0.84784925  0.88352306  1  -1.161017  0  -0.330885  -0.590157  0  2.510507  0
O  O60  1  0.57670760  0.15238273  0.11647365  1  -1.16308  0  -0.330654  -0.590332  0  2.511338  0
O  O61  1  0.33143721  0.64814625  0.77300356  1  -1.144929  0  -0.325215  -0.554103  0  2.079063  0
O  O62  1  0.67017593  0.35202698  0.22702324  1  -1.146422  0  -0.325275  -0.554612  0  2.077391  0
O  O63  1  0.41148336  0.15839839  0.97196324  1  -1.184091  0  -0.309734  -0.563416  0  2.3208  0
O  O64  1  0.25162319  0.84554110  0.02643146  1  -1.187549  0  -0.310226  -0.56312  0  2.323812  0
O  O65  1  0.58962529  0.84194663  0.02823276  1  -1.187455  0  -0.309979  -0.563808  0  2.319277  0
O  O66  1  0.74923547  0.15459243  0.97334324  1  -1.188073  0  -0.310815  -0.563748  0  2.323869  0
O  O67  1  0.39584287  0.15351622  0.84387714  1  -1.180244  0  -0.338269  -0.572003  0  2.322893  0
O  O68  1  0.24653602  0.83910008  0.15363266  1  -1.176606  0  -0.336857  -0.566858  0  2.318447  0
O  O69  1  0.60575275  0.84714498  0.15634456  1  -1.181088  0  -0.338385  -0.572064  0  2.321279  0
O  O70  1  0.75462030  0.16070911  0.84609528  1  -1.176512  0  -0.3376  -0.567241  0  2.315588  0
