# generated using pymatgen
data_NaYbH20(C10O7)2
_symmetry_space_group_name_H-M   'P 1'
_cell_length_a   7.13919957
_cell_length_b   16.19118308
_cell_length_c   20.39625171
_cell_angle_alpha   89.99911413
_cell_angle_beta   89.99885992
_cell_angle_gamma   87.32848798
_symmetry_Int_Tables_number   1
_chemical_formula_structural   NaYbH20(C10O7)2
_chemical_formula_sum   'Na4 Yb4 H80 C80 O56'
_cell_volume   2355.08295358
_cell_formula_units_Z   4
loop_
 _symmetry_equiv_pos_site_id
 _symmetry_equiv_pos_as_xyz
  1  'x, y, z'
loop_
 _atom_site_type_symbol
 _atom_site_label
 _atom_site_symmetry_multiplicity
 _atom_site_fract_x
 _atom_site_fract_y
 _atom_site_fract_z
 _atom_site_occupancy
 _atom_site_pbe_bader_charge
 _atom_site_pbe_bader_spin_density
 _atom_site_pbe_cm5_charge
 _atom_site_pbe_ddec_charge
 _atom_site_pbe_ddec_spin_density
 _atom_site_pbe_ddec_sum_bond_order
 _atom_site_pbe_magmom
Na  Na0  1  0.02515640  0.48963820  0.41201069  1  0.884591  0  0.722215  0.835231  0  0.61125  0
Na  Na1  1  0.47483050  0.51036233  0.91201717  1  0.88465  0  0.722226  0.835289  0  0.611199  0
Na  Na2  1  0.97487799  0.51036286  0.58798492  1  0.884641  0  0.722294  0.835305  0  0.611184  0
Na  Na3  1  0.52512258  0.48963170  0.08798678  1  0.884584  0  0.722241  0.835269  0  0.611224  0
Yb  Yb4  1  0.30532767  0.25412118  0.38314320  1  2.170115  0  1.607994  2.01327  0  2.222652  0
Yb  Yb5  1  0.19466046  0.74588101  0.88314758  1  2.170347  0  1.608044  2.013348  0  2.222592  0
Yb  Yb6  1  0.69469271  0.74587337  0.61685731  1  2.170434  0  1.608025  2.013081  0  2.222849  0
Yb  Yb7  1  0.80529681  0.25411788  0.11685539  1  2.170455  0  1.608087  2.013032  0  2.222964  0
H  H8  1  0.84170178  0.27031763  0.44462171  1  0.106034  0  0.124712  0.121707  0  0.994019  0
H  H9  1  0.65827784  0.72968668  0.94462664  1  0.105944  0  0.124705  0.121655  0  0.994119  0
H  H10  1  0.15833547  0.72966546  0.55537979  1  0.106505  0  0.12459  0.121741  0  0.994006  0
H  H11  1  0.34166533  0.27033349  0.05537143  1  0.106623  0  0.124639  0.121746  0  0.993995  0
H  H12  1  0.71980332  0.31798885  0.51281724  1  0.10867  0  0.124797  0.123053  0  0.979034  0
H  H13  1  0.78016960  0.68201113  0.01282095  1  0.109195  0  0.124776  0.12307  0  0.978938  0
H  H14  1  0.28022969  0.68200174  0.48718033  1  0.108665  0  0.124726  0.122966  0  0.979255  0
H  H15  1  0.21975537  0.31800076  0.98717466  1  0.108807  0  0.124731  0.122944  0  0.97918  0
H  H16  1  0.82019411  0.20234586  0.55679340  1  0.082757  0  0.10442  0.108733  0  1.045713  0
H  H17  1  0.67977271  0.79766035  0.05679576  1  0.08302  0  0.104388  0.108719  0  1.04555  0
H  H18  1  0.17983469  0.79764914  0.44320564  1  0.083062  0  0.104405  0.108656  0  1.045773  0
H  H19  1  0.32019295  0.20234578  0.94320574  1  0.08275  0  0.104418  0.108707  0  1.045683  0
H  H20  1  0.79069063  0.09363932  0.64184820  1  0.066585  0  0.106069  0.107775  0  0.981474  0
H  H21  1  0.70927816  0.90636307  0.14185506  1  0.066669  0  0.106093  0.107848  0  0.981415  0
H  H22  1  0.20933817  0.90635629  0.35815036  1  0.066811  0  0.105961  0.107598  0  0.981427  0
H  H23  1  0.29070154  0.09363784  0.85815477  1  0.066595  0  0.106045  0.107707  0  0.981424  0
H  H24  1  0.51248844  0.00500609  0.64104400  1  0.063054  0  0.109392  0.115673  0  0.981781  0
H  H25  1  0.98749724  0.99498425  0.14105062  1  0.063307  0  0.109387  0.115687  0  0.981814  0
H  H26  1  0.48754738  0.99498445  0.35895700  1  0.063412  0  0.109368  0.115576  0  0.98199  0
H  H27  1  0.01248949  0.00501097  0.85895626  1  0.06322  0  0.109403  0.115744  0  0.981786  0
H  H28  1  0.28239469  0.01745935  0.55214179  1  0.119461  0  0.103837  0.121111  0  1.047879  0
H  H29  1  0.21761048  0.98253153  0.05215187  1  0.119231  0  0.103912  0.121277  0  1.047906  0
H  H30  1  0.71763832  0.98253247  0.44785725  1  0.119391  0  0.103951  0.121227  0  1.047688  0
H  H31  1  0.78237343  0.01746806  0.94785453  1  0.119549  0  0.103917  0.121246  0  1.047697  0
H  H32  1  0.05484176  0.10746836  0.50012616  1  0.087105  0  0.112434  0.101114  0  0.998966  0
H  H33  1  0.44514599  0.89252985  0.00013171  1  0.086787  0  0.112397  0.101058  0  0.99907  0
H  H34  1  0.94517863  0.89252310  0.49987926  1  0.086868  0  0.112442  0.101205  0  0.998953  0
H  H35  1  0.55482948  0.10747856  0.99986880  1  0.086881  0  0.112427  0.101129  0  0.998871  0
H  H36  1  0.13840411  0.02262474  0.44980052  1  0.124098  0  0.109423  0.101261  0  1.013203  0
H  H37  1  0.36157555  0.97737720  0.94980691  1  0.124143  0  0.109417  0.101191  0  1.01331  0
H  H38  1  0.86160784  0.97737491  0.55019901  1  0.124161  0  0.109404  0.101318  0  1.013054  0
H  H39  1  0.63839152  0.02262767  0.05019703  1  0.124186  0  0.109364  0.101197  0  1.013209  0
H  H40  1  0.24890379  0.45074193  0.22425494  1  0.122826  0  0.120934  0.112344  0  1.006665  0
H  H41  1  0.25111777  0.54926883  0.72426127  1  0.123136  0  0.121009  0.1125  0  1.006691  0
H  H42  1  0.75111798  0.54925753  0.77573625  1  0.123088  0  0.120968  0.112476  0  1.00672  0
H  H43  1  0.74890398  0.45073557  0.27572650  1  0.123298  0  0.121005  0.11246  0  1.006569  0
H  H44  1  0.01934701  0.41797470  0.21250743  1  0.131678  0  0.118396  0.110022  0  1.021021  0
H  H45  1  0.48068208  0.58203177  0.71251280  1  0.131278  0  0.118463  0.110116  0  1.020815  0
H  H46  1  0.98068460  0.58201777  0.78749896  1  0.131885  0  0.11843  0.110109  0  1.020871  0
H  H47  1  0.51934244  0.41798184  0.28749164  1  0.131728  0  0.118431  0.110043  0  1.021013  0
H  H48  1  0.04486524  0.53304698  0.15820728  1  0.091741  0  0.110096  0.121573  0  1.037675  0
H  H49  1  0.45513532  0.46696460  0.65821555  1  0.091562  0  0.110042  0.121419  0  1.037735  0
H  H50  1  0.95514532  0.46695085  0.84179078  1  0.091747  0  0.110098  0.121572  0  1.037639  0
H  H51  1  0.54488361  0.53304604  0.34178742  1  0.091697  0  0.110102  0.121582  0  1.037573  0
H  H52  1  0.91333863  0.66070506  0.10828122  1  0.062934  0  0.093973  0.092928  0  1.036312  0
H  H53  1  0.58665679  0.33930783  0.60828666  1  0.063082  0  0.093943  0.092838  0  1.036423  0
H  H54  1  0.08664529  0.33928960  0.89171782  1  0.062559  0  0.093999  0.092976  0  1.036326  0
H  H55  1  0.41335652  0.66070416  0.39171630  1  0.062966  0  0.093938  0.092795  0  1.036525  0
H  H56  1  0.79767337  0.77873030  0.17951843  1  0.031481  0  0.086326  0.081377  0  1.067009  0
H  H57  1  0.70232182  0.22127717  0.67952072  1  0.031348  0  0.086308  0.081416  0  1.067029  0
H  H58  1  0.20230496  0.22126200  0.82047963  1  0.031379  0  0.086358  0.08142  0  1.066932  0
H  H59  1  0.29769010  0.77873175  0.32048077  1  0.031319  0  0.086358  0.081399  0  1.066995  0
H  H60  1  0.80206749  0.76433546  0.29960676  1  0.067232  0  0.100275  0.109095  0  1.019491  0
H  H61  1  0.69791135  0.23566678  0.79960937  1  0.066996  0  0.100307  0.10916  0  1.019525  0
H  H62  1  0.19792765  0.23565959  0.70039179  1  0.067284  0  0.100228  0.108968  0  1.019636  0
H  H63  1  0.30208936  0.76434113  0.20039164  1  0.06712  0  0.100246  0.109049  0  1.01956  0
H  H64  1  0.71469150  0.70974759  0.39268592  1  0.063561  0  0.110133  0.097302  0  1.009631  0
H  H65  1  0.78530439  0.29025040  0.89268305  1  0.063548  0  0.110131  0.097293  0  1.009615  0
H  H66  1  0.28531765  0.29024965  0.60730626  1  0.063634  0  0.110111  0.09724  0  1.009763  0
H  H67  1  0.21468512  0.70975094  0.10732237  1  0.063565  0  0.110116  0.0973  0  1.009582  0
H  H68  1  0.94566587  0.74535614  0.40040178  1  0.018944  0  0.103882  0.086374  0  0.995854  0
H  H69  1  0.55434232  0.25464025  0.90040728  1  0.019129  0  0.103914  0.086341  0  0.99582  0
H  H70  1  0.05434329  0.25463986  0.59959285  1  0.019187  0  0.103886  0.086362  0  0.995772  0
H  H71  1  0.44565140  0.74536100  0.09958637  1  0.019116  0  0.103917  0.08634  0  0.995813  0
H  H72  1  0.66403316  0.15688796  0.34848064  1  0.650674  0  0.298927  0.409035  0  0.913784  0
H  H73  1  0.83598142  0.84312146  0.84848385  1  0.650763  0  0.298807  0.408931  0  0.913973  0
H  H74  1  0.33599705  0.84310330  0.65151350  1  0.650906  0  0.298627  0.408659  0  0.914375  0
H  H75  1  0.16398566  0.15688156  0.15150980  1  0.650953  0  0.298733  0.408832  0  0.914131  0
H  H76  1  0.61031154  0.21731517  0.28900184  1  0.630976  0  0.320896  0.431143  0  0.866378  0
H  H77  1  0.88971540  0.78269554  0.78900549  1  0.631238  0  0.320936  0.431126  0  0.866343  0
H  H78  1  0.38969904  0.78267587  0.71099377  1  0.630842  0  0.320944  0.431264  0  0.866196  0
H  H79  1  0.11026992  0.21730156  0.21099159  1  0.631276  0  0.320931  0.431063  0  0.866408  0
H  H80  1  0.31206871  0.51326172  0.49187152  1  0.625881  0  0.297222  0.379724  0  0.955515  0
H  H81  1  0.18791052  0.48674824  0.99186951  1  0.625815  0  0.297186  0.37972  0  0.955542  0
H  H82  1  0.68796150  0.48673078  0.50812605  1  0.625789  0  0.297202  0.379605  0  0.955666  0
H  H83  1  0.81204110  0.51326374  0.00812610  1  0.625789  0  0.297147  0.379577  0  0.955725  0
H  H84  1  0.39706071  0.47704720  0.42729731  1  0.619959  0  0.294671  0.377149  0  0.960593  0
H  H85  1  0.10291989  0.52296125  0.92729401  1  0.619516  0  0.294633  0.377249  0  0.960502  0
H  H86  1  0.60296809  0.52294594  0.57270173  1  0.620292  0  0.294677  0.377203  0  0.960496  0
H  H87  1  0.89703731  0.47705617  0.07270209  1  0.62026  0  0.294664  0.377162  0  0.960548  0
C  C88  1  0.63947683  0.36911941  0.42024677  1  1.633326  0  0.228859  0.646513  0  4.157882  0
C  C89  1  0.86048556  0.63089983  0.92023821  1  1.635597  0  0.228657  0.646457  0  4.157803  0
C  C90  1  0.36058003  0.63086762  0.57974836  1  1.633286  0  0.228865  0.646338  0  4.157805  0
C  C91  1  0.13942537  0.36912160  0.07975152  1  1.632884  0  0.228788  0.646261  0  4.157786  0
C  C92  1  0.70541106  0.29551043  0.46227534  1  0.348467  0  -0.054123  -0.122799  0  3.793182  0
C  C93  1  0.79456220  0.70449436  0.96227949  1  0.345462  0  -0.054086  -0.122612  0  3.793344  0
C  C94  1  0.29462759  0.70447388  0.53772272  1  0.348206  0  -0.053894  -0.122603  0  3.79334  0
C  C95  1  0.20536418  0.29551812  0.03771661  1  0.348436  0  -0.053914  -0.122646  0  3.793404  0
C  C96  1  0.56714419  0.17230269  0.50678159  1  0.473832  0  0.080962  0.175812  0  4.021445  0
C  C97  1  0.93283601  0.82769538  0.00678625  1  0.474184  0  0.080936  0.175969  0  4.021413  0
C  C98  1  0.43288602  0.82768857  0.49321598  1  0.474049  0  0.080977  0.175669  0  4.021718  0
C  C99  1  0.06713106  0.17230764  0.99321573  1  0.474017  0  0.080942  0.175624  0  4.021811  0
C  C100  1  0.70225820  0.16211131  0.55560918  1  -0.049057  0  -0.108613  -0.207557  0  4.03839  0
C  C101  1  0.79771428  0.83789172  0.05560993  1  -0.051669  0  -0.108517  -0.207573  0  4.037963  0
C  C102  1  0.29776639  0.83788377  0.44439182  1  -0.04952  0  -0.108593  -0.207517  0  4.038571  0
C  C103  1  0.20225137  0.16211627  0.94439058  1  -0.049191  0  -0.108558  -0.207431  0  4.038421  0
C  C104  1  0.68389745  0.10124127  0.60376562  1  -0.059098  0  -0.100482  -0.09497  0  4.071403  0
C  C105  1  0.81607299  0.89875550  0.10377022  1  -0.057306  0  -0.100534  -0.094942  0  4.070964  0
C  C106  1  0.31613416  0.89874997  0.39623392  1  -0.058919  0  -0.100386  -0.094629  0  4.071157  0
C  C107  1  0.18390532  0.10124297  0.89623765  1  -0.05917  0  -0.100509  -0.094921  0  4.071321  0
C  C108  1  0.52964303  0.05178925  0.60338470  1  0.020063  0  -0.097226  -0.075784  0  4.017816  0
C  C109  1  0.97033585  0.94820366  0.10339216  1  0.020032  0  -0.097282  -0.076  0  4.017684  0
C  C110  1  0.47038717  0.94820264  0.39661679  1  0.019747  0  -0.097254  -0.075824  0  4.018244  0
C  C111  1  0.02963965  0.05179611  0.89661325  1  0.020342  0  -0.097207  -0.075861  0  4.01775  0
C  C112  1  0.39689550  0.05966816  0.55288819  1  -0.001832  0  -0.104573  -0.190943  0  4.000352  0
C  C113  1  0.10310122  0.94032597  0.05289643  1  -0.001326  0  -0.104558  -0.191022  0  4.000306  0
C  C114  1  0.60313751  0.94032243  0.44711233  1  -0.002192  0  -0.104586  -0.190949  0  4.000591  0
C  C115  1  0.89688550  0.05967357  0.94711095  1  -0.002192  0  -0.104665  -0.191154  0  4.000218  0
C  C116  1  0.41791879  0.11816304  0.50378158  1  0.381257  0  0.077611  0.164103  0  4.003648  0
C  C117  1  0.08206600  0.88183579  0.00378793  1  0.380797  0  0.07764  0.164094  0  4.003422  0
C  C118  1  0.58210160  0.88183151  0.49621893  1  0.380987  0  0.077569  0.164067  0  4.003773  0
C  C119  1  0.91790947  0.11817015  0.99621406  1  0.381072  0  0.077616  0.164191  0  4.003666  0
C  C120  1  0.12099249  0.09029271  0.45304039  1  0.32385  0  -0.064291  -0.129936  0  3.851914  0
C  C121  1  0.37900667  0.90970756  0.95304372  1  0.324054  0  -0.064281  -0.129784  0  3.851842  0
C  C122  1  0.87902508  0.90970251  0.54696159  1  0.323845  0  -0.064294  -0.130235  0  3.851842  0
C  C123  1  0.62097582  0.09029886  0.04695777  1  0.324034  0  -0.064202  -0.129895  0  3.851623  0
C  C124  1  0.99542978  0.12386808  0.39724285  1  1.615929  0  0.21132  0.620281  0  4.203731  0
C  C125  1  0.50457434  0.87612660  0.89724838  1  1.616286  0  0.211343  0.620205  0  4.204075  0
C  C126  1  0.00459483  0.87612083  0.60275571  1  1.615334  0  0.21131  0.620329  0  4.203702  0
C  C127  1  0.49541100  0.12386679  0.10276096  1  1.616246  0  0.211212  0.62006  0  4.203787  0
C  C128  1  0.16067100  0.36164133  0.29471696  1  1.575075  0  0.194731  0.613623  0  4.167489  0
C  C129  1  0.33932792  0.63836386  0.79472465  1  1.575122  0  0.194438  0.613271  0  4.16786  0
C  C130  1  0.83935638  0.63835741  0.70527963  1  1.575118  0  0.194689  0.613512  0  4.167409  0
C  C131  1  0.66064195  0.36163972  0.20527390  1  1.574905  0  0.194659  0.613681  0  4.167277  0
C  C132  1  0.12051295  0.43509433  0.25040355  1  0.34054  0  -0.0605  -0.123533  0  3.84426  0
C  C133  1  0.37950328  0.56491613  0.75041100  1  0.340955  0  -0.060637  -0.12351  0  3.844354  0
C  C134  1  0.87952564  0.56490479  0.74959354  1  0.340351  0  -0.060622  -0.12375  0  3.84423  0
C  C135  1  0.62050444  0.43509225  0.24958706  1  0.340398  0  -0.060591  -0.12368  0  3.844181  0
C  C136  1  0.99165900  0.57404701  0.25745747  1  0.417555  0  0.073927  0.148719  0  4.032283  0
C  C137  1  0.50834267  0.42595851  0.75746376  1  0.417484  0  0.073959  0.148659  0  4.031999  0
C  C138  1  0.00836838  0.42595049  0.74254010  1  0.418351  0  0.073927  0.148785  0  4.032118  0
C  C139  1  0.49167065  0.57405224  0.24253920  1  0.41747  0  0.07408  0.148837  0  4.03211  0
C  C140  1  0.99032447  0.58284304  0.18966701  1  0.053373  0  -0.104802  -0.18597  0  3.983942  0
C  C141  1  0.50968429  0.41716833  0.68967392  1  0.052847  0  -0.104731  -0.185687  0  3.983639  0
C  C142  1  0.00969170  0.41715406  0.81033056  1  0.053173  0  -0.104811  -0.186018  0  3.983797  0
C  C143  1  0.49032062  0.58283950  0.31033003  1  0.053504  0  -0.104832  -0.185984  0  3.98372  0
C  C144  1  0.91944663  0.65667308  0.16149296  1  -0.145533  0  -0.106275  -0.083813  0  4.047588  0
C  C145  1  0.58055214  0.34333459  0.66149889  1  -0.145771  0  -0.106293  -0.08384  0  4.047589  0
C  C146  1  0.08055413  0.34332062  0.83850608  1  -0.145183  0  -0.106224  -0.083771  0  4.047656  0
C  C147  1  0.41946398  0.65667486  0.33850408  1  -0.145445  0  -0.106235  -0.083706  0  4.04771  0
C  C148  1  0.85381336  0.72145582  0.20106474  1  0.080522  0  -0.112495  -0.098917  0  4.088359  0
C  C149  1  0.64619213  0.27855172  0.70107058  1  0.081482  0  -0.11241  -0.09893  0  4.088633  0
C  C150  1  0.14618459  0.27853979  0.79893284  1  0.080574  0  -0.112605  -0.099117  0  4.088552  0
C  C151  1  0.35381699  0.72145602  0.29893141  1  0.080802  0  -0.112587  -0.099046  0  4.08854  0
C  C152  1  0.85758977  0.71364886  0.26929300  1  -0.056117  0  -0.114022  -0.206654  0  4.057228  0
C  C153  1  0.64240157  0.28635730  0.76929827  1  -0.055975  0  -0.114085  -0.206725  0  4.057593  0
C  C154  1  0.14241939  0.28634653  0.73070555  1  -0.056184  0  -0.11398  -0.206434  0  4.057364  0
C  C155  1  0.35760474  0.71365173  0.23070519  1  -0.056359  0  -0.113932  -0.206423  0  4.05731  0
C  C156  1  0.92472153  0.64009276  0.29786469  1  0.462777  0  0.07622  0.157952  0  4.048637  0
C  C157  1  0.57528401  0.35991391  0.79787041  1  0.462948  0  0.076318  0.158219  0  4.04877  0
C  C158  1  0.07530165  0.35990296  0.70213338  1  0.462475  0  0.076331  0.158105  0  4.048565  0
C  C159  1  0.42471249  0.64009346  0.20213255  1  0.462923  0  0.076168  0.15784  0  4.048871  0
C  C160  1  0.86029576  0.69067102  0.40573146  1  0.451288  0  -0.064443  -0.120308  0  3.883756  0
C  C161  1  0.63970518  0.30932791  0.90573396  1  0.45115  0  -0.064482  -0.120174  0  3.883613  0
C  C162  1  0.13971479  0.30932928  0.59426415  1  0.451184  0  -0.064499  -0.120317  0  3.883541  0
C  C163  1  0.36028294  0.69067222  0.09427048  1  0.451011  0  -0.064459  -0.1202  0  3.883381  0
C  C164  1  0.86321511  0.66157686  0.47692808  1  1.637311  0  0.221289  0.65746  0  4.162483  0
C  C165  1  0.63680660  0.33842365  0.97692870  1  1.637161  0  0.22121  0.657462  0  4.162436  0
C  C166  1  0.13683745  0.33843743  0.52306508  1  1.637428  0  0.221268  0.657687  0  4.162096  0
C  C167  1  0.36313529  0.66156381  0.02307672  1  1.637422  0  0.221262  0.657676  0  4.162201  0
O  O168  1  0.47958580  0.36460100  0.39134560  1  -1.216429  0  -0.428861  -0.702287  0  2.356282  0
O  O169  1  0.02038656  0.63540014  0.89134476  1  -1.216436  0  -0.428756  -0.702264  0  2.356232  0
O  O170  1  0.52046684  0.63539043  0.60864854  1  -1.216445  0  -0.428891  -0.70222  0  2.356053  0
O  O171  1  0.97952862  0.36460700  0.10864938  1  -1.216844  0  -0.428853  -0.702184  0  2.356097  0
O  O172  1  0.73784034  0.43030856  0.41815875  1  -1.186661  0  -0.362154  -0.56616  0  2.19456  0
O  O173  1  0.76211797  0.56969782  0.91816419  1  -1.186436  0  -0.362124  -0.566201  0  2.194211  0
O  O174  1  0.26220671  0.56967681  0.58184226  1  -1.186561  0  -0.362133  -0.566077  0  2.194495  0
O  O175  1  0.23779437  0.43031802  0.08184221  1  -1.186345  0  -0.36204  -0.565938  0  2.194302  0
O  O176  1  0.56696757  0.23306501  0.45943175  1  -1.085957  0  -0.231087  -0.2631  0  2.758594  0
O  O177  1  0.93299739  0.76694122  0.95943282  1  -1.086013  0  -0.231085  -0.263288  0  2.758976  0
O  O178  1  0.43306264  0.76692687  0.54056631  1  -1.086279  0  -0.231075  -0.263009  0  2.758591  0
O  O179  1  0.06693320  0.23306870  0.04056427  1  -1.086347  0  -0.231105  -0.262948  0  2.758822  0
O  O180  1  0.30262733  0.12624099  0.44911069  1  -1.092691  0  -0.226112  -0.259183  0  2.701704  0
O  O181  1  0.19736780  0.87375510  0.94911904  1  -1.092599  0  -0.226123  -0.259178  0  2.701358  0
O  O182  1  0.69738604  0.87375432  0.55089080  1  -1.092253  0  -0.226185  -0.259129  0  2.701722  0
O  O183  1  0.80262030  0.12624873  0.05088932  1  -1.092585  0  -0.226164  -0.259103  0  2.701379  0
O  O184  1  0.06395640  0.17788912  0.35948358  1  -1.189921  0  -0.436718  -0.678331  0  2.265002  0
O  O185  1  0.43603977  0.82210895  0.85948919  1  -1.190028  0  -0.436732  -0.678291  0  2.265354  0
O  O186  1  0.93606677  0.82210846  0.64052037  1  -1.190112  0  -0.436653  -0.678275  0  2.265329  0
O  O187  1  0.56393293  0.17788902  0.14051573  1  -1.189993  0  -0.436697  -0.678221  0  2.26542  0
O  O188  1  0.83327080  0.09761663  0.39386517  1  -1.178597  0  -0.304955  -0.52614  0  2.129997  0
O  O189  1  0.66672642  0.90239059  0.89387041  1  -1.178732  0  -0.30493  -0.526118  0  2.130009  0
O  O190  1  0.16675519  0.90237842  0.60613584  1  -1.177855  0  -0.304956  -0.52608  0  2.12971  0
O  O191  1  0.33323502  0.09762181  0.10612962  1  -1.178862  0  -0.304897  -0.52603  0  2.129686  0
O  O192  1  0.25343971  0.29802742  0.27242422  1  -1.189947  0  -0.379078  -0.626051  0  2.130473  0
O  O193  1  0.24659099  0.70198489  0.77242587  1  -1.189949  0  -0.378934  -0.625994  0  2.130649  0
O  O194  1  0.74660869  0.70197399  0.72757727  1  -1.189686  0  -0.378929  -0.625975  0  2.130678  0
O  O195  1  0.75339990  0.29802321  0.22756925  1  -1.189555  0  -0.378956  -0.626115  0  2.130754  0
O  O196  1  0.10867337  0.36466255  0.35435361  1  -1.183462  0  -0.437288  -0.653753  0  2.308729  0
O  O197  1  0.39131600  0.63533697  0.85436139  1  -1.183665  0  -0.437112  -0.653647  0  2.308936  0
O  O198  1  0.89139185  0.63534037  0.64564739  1  -1.183744  0  -0.437426  -0.653751  0  2.308608  0
O  O199  1  0.60860343  0.36465835  0.14564353  1  -1.183932  0  -0.437383  -0.653699  0  2.308476  0
O  O200  1  0.05035340  0.50274943  0.28982480  1  -1.082716  0  -0.211306  -0.209434  0  2.6428  0
O  O201  1  0.44965134  0.49725819  0.78983169  1  -1.082615  0  -0.211337  -0.209545  0  2.64276  0
O  O202  1  0.94968380  0.49724849  0.71016885  1  -1.083234  0  -0.211315  -0.209513  0  2.642744  0
O  O203  1  0.55034936  0.50275219  0.21017030  1  -1.082855  0  -0.211341  -0.209429  0  2.642583  0
O  O204  1  0.92908294  0.62535621  0.36414607  1  -1.091258  0  -0.212454  -0.204903  0  2.65392  0
O  O205  1  0.57090436  0.37464301  0.86415162  1  -1.091424  0  -0.212542  -0.205195  0  2.654058  0
O  O206  1  0.07093321  0.37464398  0.63585199  1  -1.0914  0  -0.212453  -0.204958  0  2.653918  0
O  O207  1  0.42909077  0.62535822  0.13585282  1  -1.091273  0  -0.212415  -0.204967  0  2.654087  0
O  O208  1  0.82004568  0.71946140  0.51829671  1  -1.225349  0  -0.446454  -0.732988  0  2.361147  0
O  O209  1  0.67997328  0.28053819  0.01829595  1  -1.225356  0  -0.446336  -0.732833  0  2.361195  0
O  O210  1  0.17996487  0.28053890  0.48169694  1  -1.22531  0  -0.446348  -0.732952  0  2.360927  0
O  O211  1  0.31998545  0.71944523  0.98170261  1  -1.225277  0  -0.446479  -0.733044  0  2.36105  0
O  O212  1  0.90366507  0.58783727  0.49001469  1  -1.191541  0  -0.398077  -0.609143  0  2.241655  0
O  O213  1  0.59635047  0.41216501  0.99001259  1  -1.191474  0  -0.398076  -0.609264  0  2.241556  0
O  O214  1  0.09637070  0.41216747  0.50998877  1  -1.191792  0  -0.398061  -0.609339  0  2.241979  0
O  O215  1  0.40359701  0.58782666  0.00999675  1  -1.191686  0  -0.398008  -0.609335  0  2.241745  0
O  O216  1  0.55737065  0.18931245  0.32704260  1  -1.258629  0  -0.641744  -0.870824  0  2.016781  0
O  O217  1  0.94264345  0.81069546  0.82704832  1  -1.259025  0  -0.641658  -0.870709  0  2.016806  0
O  O218  1  0.44264976  0.81067407  0.67295252  1  -1.258949  0  -0.641492  -0.870541  0  2.0171  0
O  O219  1  0.05732783  0.18930748  0.17294974  1  -1.259411  0  -0.641545  -0.870497  0  2.016989  0
O  O220  1  0.33590291  0.52708686  0.44599622  1  -1.260781  0  -0.637957  -0.798102  0  1.997124  0
O  O221  1  0.16405728  0.47291677  0.94599805  1  -1.260374  0  -0.637903  -0.798274  0  1.996978  0
O  O222  1  0.66413850  0.47290851  0.55400233  1  -1.260991  0  -0.637939  -0.798002  0  1.997169  0
O  O223  1  0.83587051  0.52709444  0.05399904  1  -1.260976  0  -0.637872  -0.797935  0  1.997243  0
