# generated using pymatgen
data_NiH20C20(NO4)2
_symmetry_space_group_name_H-M   'P 1'
_cell_length_a   5.66910600
_cell_length_b   7.88457766
_cell_length_c   10.77616737
_cell_angle_alpha   107.10698459
_cell_angle_beta   96.10627604
_cell_angle_gamma   98.14060776
_symmetry_Int_Tables_number   1
_chemical_formula_structural   NiH20C20(NO4)2
_chemical_formula_sum   'Ni1 H20 C20 N2 O8'
_cell_volume   450.11660858
_cell_formula_units_Z   1
loop_
 _symmetry_equiv_pos_site_id
 _symmetry_equiv_pos_as_xyz
  1  'x, y, z'
loop_
 _atom_site_type_symbol
 _atom_site_label
 _atom_site_symmetry_multiplicity
 _atom_site_fract_x
 _atom_site_fract_y
 _atom_site_fract_z
 _atom_site_occupancy
 _atom_site_hle17_ddec_charge
 _atom_site_hle17_ddec_spin_density
 _atom_site_hle17_ddec_sum_bond_order
 _atom_site_hle17_magmom
 _atom_site_hse06_10hf_ddec_charge
 _atom_site_hse06_10hf_ddec_spin_density
 _atom_site_hse06_10hf_ddec_sum_bond_order
 _atom_site_hse06_10hf_magmom
 _atom_site_hse06_ddec_charge
 _atom_site_hse06_ddec_spin_density
 _atom_site_hse06_ddec_sum_bond_order
 _atom_site_hse06_magmom
 _atom_site_pbe_cm5_charge
 _atom_site_pbe_ddec_charge
 _atom_site_pbe_ddec_spin_density
 _atom_site_pbe_ddec_sum_bond_order
 _atom_site_pbe_magmom
Ni  Ni0  1  0.00000205  0.00000135  0.00000598  1  0.865651  1.775542  1.888599  1.52  0.863025  1.830687  2.268435  1.644  0.954414  1.882608  2.196304  1.728  0.626746  0.796199  1.785988  2.322065  1.572
H  H1  1  0.32150565  0.73745153  0.87502243  1  0.095591  0.000693  0.970973  0.001  0.102794  0.000575  1.034192  0.001  0.10613  0.000382  1.03068  0.001  0.119845  0.099966  0.000775  1.037294  0.001
H  H2  1  0.67850856  0.26258494  0.12499839  1  0.095489  0.000693  0.971099  0.001  0.102872  0.000576  1.034117  0.001  0.10622  0.000382  1.030584  0.001  0.11983  0.100043  0.000775  1.037218  0.001
H  H3  1  0.32851072  0.51524881  0.66321752  1  0.109365  0.000313  0.964222  0.0  0.119115  0.000319  1.024773  0.0  0.122376  0.000228  1.023806  0.0  0.108934  0.116498  0.000416  1.026184  0.0
H  H4  1  0.67153279  0.48476212  0.33681620  1  0.109533  0.000313  0.964132  0.0  0.119094  0.000319  1.024947  0.0  0.122353  0.000228  1.023982  0.0  0.108902  0.116477  0.000416  1.026356  0.0
H  H5  1  0.66343742  0.65372559  0.51653871  1  0.103348  0.000319  0.971981  0.0  0.113124  0.000313  1.033968  0.0  0.115598  0.000224  1.034624  0.0  0.105264  0.111319  0.000414  1.033732  0.0
H  H6  1  0.33659640  0.34624355  0.48345946  1  0.103444  0.00032  0.971872  0.0  0.113195  0.000312  1.033894  0.0  0.115667  0.000224  1.034553  0.0  0.105368  0.11139  0.000414  1.033661  0.0
H  H7  1  0.67986879  0.86478891  0.73819743  1  0.091164  0.000476  0.956413  0.001  0.094854  0.000356  1.024572  0.001  0.096961  0.000229  1.023544  0.001  0.11765  0.092897  0.000488  1.026169  0.001
H  H8  1  0.32014982  0.13521256  0.26178269  1  0.091378  0.000478  0.95634  0.001  0.095049  0.000356  1.024484  0.001  0.097153  0.000229  1.023457  0.001  0.117719  0.093039  0.000488  1.026138  0.001
H  H9  1  0.75810284  0.44635224  0.75857566  1  0.070461  0.000377  0.975036  0.001  0.075753  0.00032  1.050076  0.0  0.076068  0.000196  1.051513  0.0  0.098689  0.075896  0.000455  1.048891  0.001
H  H10  1  0.24187518  0.55362752  0.24139279  1  0.070602  0.000376  0.974822  0.001  0.075826  0.000321  1.049904  0.0  0.076144  0.000196  1.051348  0.0  0.098718  0.075965  0.000456  1.048719  0.001
H  H11  1  0.60743653  0.46058429  0.89676154  1  0.115398  -0.000193  0.908837  0.0  0.128949  0.000115  0.963968  0.0  0.131251  6.4e-05  0.961992  0.0  0.121208  0.127096  0.000183  0.965709  0.0
H  H12  1  0.39254335  0.53944130  0.10323266  1  0.115332  -0.000193  0.908976  0.0  0.128826  0.000115  0.964151  0.0  0.131159  6.5e-05  0.962142  0.0  0.121219  0.12697  0.000183  0.965893  0.0
H  H13  1  0.12940163  0.98569223  0.60229338  1  0.109188  -7.1e-05  0.963811  0.0  0.120296  -5.1e-05  1.02411  0.0  0.122982  -4.3e-05  1.023704  0.0  0.101874  0.118276  -6.1e-05  1.024581  0.0
H  H14  1  0.87058230  0.01430507  0.39768197  1  0.109218  -7.1e-05  0.963812  0.0  0.120289  -5.1e-05  1.024196  0.0  0.122965  -4.3e-05  1.023797  0.0  0.101866  0.118304  -6.1e-05  1.024598  0.0
H  H15  1  0.86500628  0.23066069  0.61599401  1  0.106602  -4.7e-05  0.974472  0.0  0.117701  -3.6e-05  1.035466  0.0  0.120424  -2.6e-05  1.034732  0.0  0.102875  0.115882  -5.8e-05  1.035886  0.0
H  H16  1  0.13495442  0.76931360  0.38398060  1  0.106772  -4.5e-05  0.974331  0.0  0.117941  -3.7e-05  1.035199  0.0  0.120667  -2.6e-05  1.034458  0.0  0.10293  0.116119  -5.8e-05  1.035624  0.0
H  H17  1  0.75397710  0.75529808  0.05301264  1  0.40625  -0.001001  0.915477  -0.001  0.371541  -0.000453  0.988122  0.0  0.384306  -0.000538  0.970027  -0.001  0.28167  0.362525  -0.000319  1.000836  0.0
H  H18  1  0.24602206  0.24471947  0.94699395  1  0.406293  -0.001001  0.915407  -0.001  0.371567  -0.000453  0.988071  0.0  0.384335  -0.000537  0.969972  -0.001  0.281693  0.362548  -0.000319  1.000786  0.0
H  H19  1  0.55157173  0.88058739  0.06283935  1  0.419492  9.1e-05  0.853357  0.0  0.395147  0.000583  0.923631  0.001  0.40687  0.000382  0.910729  0.001  0.297086  0.386633  0.000794  0.932722  0.001
H  H20  1  0.44842940  0.11943149  0.93718248  1  0.419305  9.2e-05  0.853734  0.0  0.395045  0.000583  0.92384  0.001  0.406762  0.000382  0.910893  0.001  0.297032  0.386543  0.000793  0.932928  0.001
C  C21  1  0.17799255  0.71533942  0.79331181  1  0.144327  -0.012917  3.657233  -0.008  0.117116  -0.003998  3.913124  -0.002  0.127206  -0.004689  3.927608  -0.003  0.056143  0.109684  -0.003998  3.905146  -0.002
C  C22  1  0.82200533  0.28466595  0.20671435  1  0.144348  -0.012897  3.657387  -0.008  0.116996  -0.003994  3.913205  -0.002  0.127084  -0.004686  3.927699  -0.003  0.056063  0.109564  -0.003995  3.905222  -0.002
C  C23  1  0.18163905  0.59089617  0.67186875  1  -0.145931  0.006158  3.680327  0.008  -0.164643  0.002179  3.929709  0.003  -0.171399  0.002154  3.947279  0.003  -0.078186  -0.160721  0.002196  3.919772  0.003
C  C24  1  0.81837781  0.40909982  0.32816763  1  -0.14614  0.00615  3.680089  0.008  -0.164769  0.002178  3.929563  0.003  -0.171523  0.002153  3.947125  0.003  -0.078157  -0.160845  0.002195  3.919622  0.003
C  C25  1  0.99876837  0.56366801  0.56582780  1  0.084875  -0.011588  3.761632  -0.007  0.095736  -0.004815  3.993029  -0.003  0.100346  -0.004386  4.013093  -0.002  0.009894  0.092124  -0.006191  3.980115  -0.003
C  C26  1  0.00128197  0.43634161  0.43420046  1  0.084867  -0.011576  3.761531  -0.007  0.095803  -0.004814  3.99284  -0.003  0.100412  -0.004386  4.0129  -0.002  0.009962  0.092189  -0.00619  3.979934  -0.003
C  C27  1  0.81339682  0.66426668  0.59200451  1  -0.165472  0.006147  3.701911  0.008  -0.182462  0.002169  3.948945  0.003  -0.190298  0.002114  3.969137  0.003  -0.084721  -0.177322  0.00225  3.936076  0.003
C  C28  1  0.18663413  0.33572805  0.40800643  1  -0.165348  0.006137  3.701876  0.008  -0.182354  0.002169  3.948917  0.003  -0.190191  0.002113  3.969111  0.003  -0.084752  -0.177217  0.002249  3.936039  0.003
C  C29  1  0.82063162  0.78489598  0.71647181  1  0.127552  -0.012858  3.689065  -0.008  0.102238  -0.004113  3.946614  -0.002  0.111042  -0.004725  3.964324  -0.003  0.047957  0.095823  -0.00415  3.935978  -0.002
C  C30  1  0.17938741  0.21510815  0.28353582  1  0.127128  -0.012852  3.689384  -0.008  0.101843  -0.004113  3.946843  -0.002  0.110651  -0.004725  3.964554  -0.003  0.047721  0.095464  -0.004149  3.936226  -0.002
C  C31  1  0.86180217  0.28055913  0.87548914  1  0.661354  -0.005822  3.84809  -0.005  0.610703  -0.001624  4.162747  -0.002  0.645641  -0.001587  4.15617  -0.001  0.207815  0.586533  -0.001671  4.165982  -0.002
C  C32  1  0.13818575  0.71945569  0.12450971  1  0.661456  -0.005823  3.848039  -0.005  0.610832  -0.001625  4.162598  -0.002  0.645782  -0.001588  4.156022  -0.001  0.207859  0.586666  -0.001672  4.165843  -0.002
C  C33  1  0.67304751  0.36751639  0.81601446  1  -0.070342  0.005754  3.617212  0.007  -0.124349  0.003406  3.875079  0.004  -0.121378  0.002288  3.875519  0.003  -0.070224  -0.126325  0.004603  3.874741  0.006
C  C34  1  0.32693093  0.63249570  0.18397954  1  -0.070484  0.005755  3.617721  0.007  -0.124293  0.003406  3.875334  0.004  -0.121367  0.002289  3.875796  0.003  -0.070226  -0.126265  0.004603  3.875002  0.006
C  C35  1  0.49314453  0.12337303  0.62298704  1  0.236746  9.1e-05  3.836047  0.0  0.227042  1.5e-05  4.100453  0.0  0.236634  -4e-06  4.115487  0.0  0.064974  0.220277  5.9e-05  4.090019  0.0
C  C36  1  0.50684475  0.87660946  0.37698730  1  0.236961  0.000105  3.835545  0.0  0.227325  1.4e-05  4.099872  0.0  0.236915  -3e-06  4.114905  0.0  0.065137  0.220555  5.9e-05  4.089455  0.0
C  C37  1  0.29179283  0.99079684  0.55690286  1  -0.159397  0.0001  3.769932  0.0  -0.181031  -3e-05  4.025612  0.0  -0.183948  -1.9e-05  4.045247  0.0  -0.108992  -0.178727  -1.7e-05  4.011906  0.0
C  C38  1  0.70819568  0.00917486  0.44306724  1  -0.159735  8.4e-05  3.769438  0.0  -0.181395  -2.9e-05  4.02514  0.0  -0.184308  -2.1e-05  4.044767  0.0  -0.109193  -0.179095  -1.7e-05  4.01144  0.0
C  C39  1  0.29628192  0.86863680  0.43414558  1  -0.19475  -0.000147  3.792681  0.0  -0.213902  -0.000106  4.046832  0.0  -0.217513  -8.9e-05  4.066864  0.0  -0.116478  -0.211123  -9.7e-05  4.032858  0.0
C  C40  1  0.70369961  0.13132812  0.56582823  1  -0.194459  -0.000115  3.79229  0.0  -0.213554  -0.000108  4.046515  0.0  -0.217162  -8.5e-05  4.066541  0.0  -0.116472  -0.210781  -9.7e-05  4.032543  0.0
N  N41  1  0.00147602  0.81293363  0.81629160  1  -0.285536  0.049166  3.260109  0.079  -0.244983  0.03137  3.546665  0.052  -0.27214  0.024691  3.565572  0.043  -0.322848  -0.226885  0.036833  3.535027  0.058
N  N42  1  0.99852642  0.18707582  0.18372828  1  -0.285481  0.049159  3.260406  0.079  -0.244862  0.031368  3.546909  0.052  -0.272012  0.024689  3.565806  0.043  -0.322724  -0.226764  0.036833  3.535259  0.058
O  O43  1  0.78046773  0.14001884  0.90609341  1  -0.632712  0.047765  2.082461  0.081  -0.591855  0.030423  2.347307  0.054  -0.63113  0.022078  2.339574  0.041  -0.307887  -0.562121  0.038529  2.351301  0.064
O  O44  1  0.21951242  0.86000809  0.09390759  1  -0.632882  0.047783  2.082574  0.081  -0.59198  0.030434  2.347361  0.054  -0.631227  0.022087  2.339544  0.041  -0.307926  -0.562225  0.038539  2.351303  0.064
O  O45  1  0.92111070  0.64514579  0.10838633  1  -0.591422  -0.001466  1.993342  0.0  -0.543492  -0.001057  2.225206  0.0  -0.569372  -0.001356  2.218036  -0.001  -0.305621  -0.525001  -0.000644  2.229685  0.0
O  O46  1  0.07888354  0.35485020  0.89159213  1  -0.591414  -0.001464  1.993365  0.0  -0.543466  -0.001055  2.225287  0.0  -0.569346  -0.001356  2.218125  -0.001  -0.305568  -0.524973  -0.000643  2.229766  0.0
O  O47  1  0.46450610  0.24163798  0.74030516  1  -0.2658  3.6e-05  2.369252  0.0  -0.199282  0.000136  2.60558  0.0  -0.214854  6.9e-05  2.607282  0.0  -0.187349  -0.188292  0.000215  2.604133  0.0
O  O48  1  0.53548570  0.75834046  0.25967680  1  -0.265857  3.7e-05  2.369299  0.0  -0.199414  0.000136  2.605578  0.0  -0.214977  7e-05  2.607288  0.0  -0.187478  -0.18843  0.000216  2.604142  0.0
O  O49  1  0.67364249  0.83570952  0.00899350  1  -0.80327  0.040817  1.935393  0.068  -0.777834  0.028657  2.159922  0.048  -0.80925  0.021052  2.128675  0.038  -0.572946  -0.753223  0.035995  2.181179  0.057
O  O50  1  0.32634739  0.16430663  0.99102245  1  -0.803057  0.040821  1.935618  0.068  -0.777719  0.028658  2.160219  0.048  -0.809125  0.021053  2.128939  0.038  -0.572892  -0.753126  0.035997  2.181428  0.057
