# generated using pymatgen
data_NiH8C9(NO3)2
_symmetry_space_group_name_H-M   'P 1'
_cell_length_a   9.84615098
_cell_length_b   9.84614135
_cell_length_c   13.73477692
_cell_angle_alpha   96.58560020
_cell_angle_beta   96.58544330
_cell_angle_gamma   106.83232566
_symmetry_Int_Tables_number   1
_chemical_formula_structural   NiH8C9(NO3)2
_chemical_formula_sum   'Ni4 H32 C36 N8 O24'
_cell_volume   1250.67313709
_cell_formula_units_Z   4
loop_
 _symmetry_equiv_pos_site_id
 _symmetry_equiv_pos_as_xyz
  1  'x, y, z'
loop_
 _atom_site_type_symbol
 _atom_site_label
 _atom_site_symmetry_multiplicity
 _atom_site_fract_x
 _atom_site_fract_y
 _atom_site_fract_z
 _atom_site_occupancy
 _atom_site_pbe_bader_charge
 _atom_site_pbe_bader_spin_density
 _atom_site_pbe_cm5_charge
 _atom_site_pbe_ddec_charge
 _atom_site_pbe_ddec_spin_density
 _atom_site_pbe_ddec_sum_bond_order
 _atom_site_pbe_magmom
Ni  Ni0  1  0.99322381  0.50299633  0.74624603  1  1.191004  1.574225  0.64475  0.821145  1.784677  2.450493  1.562
Ni  Ni1  1  0.49700131  0.00677248  0.75375499  1  1.191042  1.574226  0.644725  0.821051  1.78467  2.450496  1.562
Ni  Ni2  1  0.00677345  0.49699997  0.25375345  1  1.191021  1.574221  0.644712  0.821058  1.784664  2.450522  1.562
Ni  Ni3  1  0.50300119  0.99322851  0.24624832  1  1.191075  1.574224  0.644727  0.821039  1.784668  2.450485  1.562
H  H4  1  0.90052064  0.48641240  0.57082554  1  0.621074  -3e-05  0.282095  0.363892  7.4e-05  0.986698  0.0
H  H5  1  0.51358770  0.09947683  0.92917443  1  0.621169  -3e-05  0.282114  0.36389  7.4e-05  0.986694  0.0
H  H6  1  0.09947656  0.51358900  0.42917367  1  0.621179  -3e-05  0.282123  0.363911  7.4e-05  0.986677  0.0
H  H7  1  0.48641592  0.90052249  0.07082810  1  0.62111  -3e-05  0.282108  0.36386  7.4e-05  0.986717  0.0
H  H8  1  0.01309510  0.63818853  0.58689493  1  0.639135  0.000162  0.291206  0.380494  0.000219  0.953795  0.001
H  H9  1  0.36181311  0.98689980  0.91310663  1  0.639228  0.00016  0.291197  0.380434  0.000218  0.953866  0.001
H  H10  1  0.98690320  0.36181119  0.41310423  1  0.639242  0.000161  0.291206  0.380475  0.000218  0.953821  0.001
H  H11  1  0.63819163  0.01309680  0.08689575  1  0.639119  0.000162  0.29119  0.380445  0.000219  0.953852  0.001
H  H12  1  0.01905884  0.28694425  0.82210754  1  0.587628  5.3e-05  0.308559  0.385469  0.000132  0.904798  0.0
H  H13  1  0.71305745  0.98094611  0.67789462  1  0.587601  5.3e-05  0.30854  0.385451  0.000132  0.904788  0.0
H  H14  1  0.98094269  0.71305444  0.17789255  1  0.587658  5.3e-05  0.308547  0.385433  0.000132  0.904827  0.0
H  H15  1  0.28694192  0.01905291  0.32210530  1  0.587582  5.3e-05  0.308549  0.385468  0.000132  0.904759  0.0
H  H16  1  0.00900145  0.38342044  0.92123406  1  0.677907  0.000294  0.2885  0.395986  0.000434  0.946148  0.001
H  H17  1  0.61658115  0.99100447  0.57876682  1  0.677902  0.000293  0.288494  0.395966  0.000434  0.946195  0.001
H  H18  1  0.99100333  0.61657725  0.07876624  1  0.677902  0.000293  0.288503  0.395979  0.000434  0.946173  0.001
H  H19  1  0.38342038  0.00899835  0.42123146  1  0.677928  0.000293  0.288518  0.395992  0.000434  0.946136  0.001
H  H20  1  0.74418320  0.62335750  0.74124424  1  0.138007  0.001822  0.13242  0.109267  0.000476  0.995412  0.002
H  H21  1  0.37664040  0.25581548  0.75875737  1  0.137618  0.001821  0.132414  0.109258  0.000476  0.995404  0.002
H  H22  1  0.25581719  0.37664388  0.25875672  1  0.137668  0.001821  0.132416  0.109239  0.000476  0.995427  0.002
H  H23  1  0.62335669  0.74418788  0.24124493  1  0.13798  0.001822  0.132418  0.109229  0.000476  0.995489  0.002
H  H24  1  0.78133774  0.21866152  0.75000360  1  0.140505  0.001669  0.137705  0.075904  0.000173  1.036186  0.001
H  H25  1  0.21865622  0.78133884  0.24999595  1  0.140463  0.00167  0.137682  0.075877  0.000173  1.036183  0.001
H  H26  1  0.24182975  0.38410949  0.73968239  1  0.129431  0.001744  0.128002  0.09939  0.000457  1.014313  0.002
H  H27  1  0.61588676  0.75816877  0.76031056  1  0.129469  0.001745  0.128014  0.099396  0.000457  1.014277  0.002
H  H28  1  0.75817179  0.61589437  0.26031526  1  0.129377  0.001745  0.128042  0.099426  0.000457  1.014305  0.002
H  H29  1  0.38410937  0.24183333  0.23968790  1  0.129451  0.001745  0.128001  0.099368  0.000457  1.014266  0.002
H  H30  1  0.20653740  0.79345707  0.74999423  1  0.182958  0.00154  0.145583  0.10361  0.000265  0.989622  0.001
H  H31  1  0.79345993  0.20654344  0.25000055  1  0.183006  0.001539  0.145536  0.103612  0.000265  0.989722  0.001
H  H32  1  0.16423060  0.18185839  0.63363559  1  0.07315  0.000449  0.099072  0.095283  0.000235  1.041767  0.0
H  H33  1  0.81814999  0.83576724  0.86636412  1  0.073466  0.000448  0.099044  0.095252  0.000235  1.041798  0.0
H  H34  1  0.83577497  0.81815276  0.36636966  1  0.073138  0.000448  0.099059  0.095293  0.000235  1.041928  0.0
H  H35  1  0.18185398  0.16422829  0.13362717  1  0.073124  0.000448  0.099061  0.095267  0.000235  1.041934  0.0
C  C36  1  0.54116959  0.45882644  0.74999989  1  0.12855  0.011468  0.012241  -0.005634  0.006526  3.96952  0.009
C  C37  1  0.45882980  0.54117260  0.24999931  1  0.12816  0.011469  0.012249  -0.005627  0.006526  3.969479  0.009
C  C38  1  0.68898179  0.51179399  0.74627961  1  0.478716  -0.014378  0.085135  0.102344  -0.016299  3.819465  -0.01
C  C39  1  0.48820532  0.31101782  0.75372362  1  0.479186  -0.014377  0.085169  0.102381  -0.016298  3.81931  -0.01
C  C40  1  0.31101750  0.48820805  0.25372204  1  0.479158  -0.014376  0.085159  0.102391  -0.016298  3.819405  -0.01
C  C41  1  0.51179395  0.68898420  0.24627876  1  0.479203  -0.014377  0.085142  0.102394  -0.016297  3.819489  -0.01
C  C42  1  0.71274477  0.28725623  0.75000382  1  1.07272  -0.009363  0.199736  0.251529  -0.011102  3.895099  -0.007
C  C43  1  0.28725348  0.71274446  0.24999688  1  1.07272  -0.009362  0.199717  0.251465  -0.0111  3.895253  -0.007
C  C44  1  0.44749329  0.55250385  0.74999716  1  -0.03683  0.011069  0.007459  -0.011113  0.006215  3.975703  0.009
C  C45  1  0.55250502  0.44749794  0.25000073  1  -0.036826  0.011069  0.007467  -0.011118  0.006215  3.975665  0.009
C  C46  1  0.29790811  0.49802097  0.74431405  1  0.547866  -0.012585  0.082395  0.101937  -0.014224  3.835558  -0.008
C  C47  1  0.50197222  0.70209189  0.75567953  1  0.547706  -0.012586  0.082366  0.10193  -0.014226  3.835599  -0.008
C  C48  1  0.70209455  0.50198018  0.25568346  1  0.547953  -0.012586  0.082382  0.101883  -0.014226  3.835546  -0.008
C  C49  1  0.49802503  0.29791059  0.24431760  1  0.547642  -0.012585  0.082393  0.101953  -0.014225  3.835616  -0.008
C  C50  1  0.27533280  0.72465912  0.74999320  1  1.055948  -0.008416  0.205253  0.259896  -0.009991  3.854855  -0.006
C  C51  1  0.72466347  0.27534002  0.25000135  1  1.055952  -0.008417  0.205279  0.259809  -0.009993  3.854987  -0.006
C  C52  1  0.96389144  0.12254693  0.53513964  1  -0.06965  0.008565  -0.012937  -0.052302  0.005018  3.96202  0.006
C  C53  1  0.87745452  0.03610448  0.96486137  1  -0.069683  0.008566  -0.012987  -0.052403  0.005019  3.962  0.006
C  C54  1  0.03611201  0.87746047  0.46486580  1  -0.069823  0.008566  -0.012894  -0.05216  0.005018  3.96193  0.006
C  C55  1  0.12254504  0.96388957  0.03513374  1  -0.069866  0.008564  -0.012933  -0.052188  0.005018  3.9621  0.006
C  C56  1  0.86935541  0.01914375  0.45912917  1  -0.023749  0.010171  -0.008221  -0.033944  0.005979  3.945976  0.007
C  C57  1  0.98085574  0.13064120  0.04087144  1  -0.023732  0.01017  -0.008156  -0.033912  0.005978  3.945902  0.007
C  C58  1  0.13064700  0.98086231  0.54087532  1  -0.023571  0.010171  -0.008194  -0.033848  0.005979  3.945929  0.007
C  C59  1  0.01914376  0.86935279  0.95912585  1  -0.023564  0.01017  -0.008217  -0.034041  0.005979  3.945974  0.007
C  C60  1  0.09169580  0.10097086  0.57507961  1  0.034134  0.001692  -0.084745  -0.111322  0.000996  3.959108  0.001
C  C61  1  0.89903461  0.90830184  0.92492199  1  0.033833  0.001692  -0.084671  -0.11114  0.000995  3.959051  0.001
C  C62  1  0.90830870  0.89903686  0.42492668  1  0.034371  0.001693  -0.084741  -0.11135  0.000996  3.959331  0.001
C  C63  1  0.10096713  0.09169190  0.07507257  1  0.034386  0.001693  -0.084727  -0.11126  0.000996  3.959275  0.001
C  C64  1  0.93868689  0.26095220  0.57205792  1  1.57711  -0.000542  0.216467  0.587844  -0.001073  4.181244  -0.001
C  C65  1  0.73904740  0.06130534  0.92794419  1  1.577034  -0.000542  0.21654  0.58796  -0.001073  4.181105  -0.001
C  C66  1  0.06131553  0.73905490  0.42794594  1  1.577075  -0.000542  0.21651  0.587825  -0.001073  4.181199  -0.001
C  C67  1  0.26095104  0.93868729  0.07205287  1  1.576852  -0.000542  0.216466  0.587787  -0.001072  4.181216  -0.001
C  C68  1  0.72351372  0.02668106  0.41817655  1  1.610954  -0.001786  0.208826  0.573719  -0.002383  4.226654  -0.003
C  C69  1  0.97331736  0.27648161  0.08182398  1  1.610907  -0.001786  0.208819  0.573655  -0.002382  4.226755  -0.003
C  C70  1  0.27648768  0.97332162  0.58182681  1  1.610977  -0.001786  0.20884  0.573637  -0.002383  4.226787  -0.003
C  C71  1  0.02668107  0.72350999  0.91817372  1  1.610997  -0.001786  0.208912  0.573855  -0.002383  4.22646  -0.003
N  N72  1  0.77377169  0.42687849  0.74852272  1  -1.185156  0.068458  -0.309605  -0.223994  0.04018  3.524719  0.063
N  N73  1  0.57312314  0.22622688  0.75148265  1  -1.185406  0.068456  -0.309626  -0.224017  0.04018  3.524633  0.063
N  N74  1  0.22622657  0.57312324  0.25147735  1  -1.185275  0.068455  -0.309608  -0.223973  0.040179  3.524861  0.063
N  N75  1  0.42687614  0.77377412  0.24851963  1  -1.1853  0.068459  -0.309604  -0.223975  0.040181  3.524785  0.063
N  N76  1  0.21329234  0.58306547  0.74422600  1  -1.206142  0.067056  -0.306104  -0.228123  0.039301  3.51178  0.061
N  N77  1  0.41692634  0.78670107  0.75576410  1  -1.206087  0.067056  -0.306168  -0.228222  0.039301  3.511821  0.061
N  N78  1  0.78670607  0.41693434  0.25576954  1  -1.206197  0.067053  -0.306114  -0.228061  0.0393  3.5118  0.061
N  N79  1  0.58306989  0.21329804  0.24423190  1  -1.206066  0.067054  -0.306164  -0.22812  0.039299  3.511811  0.061
O  O80  1  0.98147346  0.30725622  0.66488884  1  -1.169711  0.067147  -0.320056  -0.586421  0.037454  2.397974  0.063
O  O81  1  0.69274023  0.01851194  0.83511455  1  -1.169687  0.067146  -0.320138  -0.586498  0.037454  2.397992  0.063
O  O82  1  0.01852572  0.69275190  0.33511408  1  -1.169586  0.067148  -0.320117  -0.586478  0.037454  2.397929  0.063
O  O83  1  0.30725494  0.98147755  0.16488485  1  -1.169597  0.067147  -0.320124  -0.586483  0.037454  2.397935  0.063
O  O84  1  0.88424060  0.32553990  0.51109195  1  -1.181676  0.001085  -0.305556  -0.534637  -0.000207  2.193433  0.001
O  O85  1  0.67446360  0.11575838  0.98890834  1  -1.181566  0.001085  -0.305557  -0.534652  -0.000207  2.193398  0.001
O  O86  1  0.11576185  0.67446620  0.48891109  1  -1.181619  0.001086  -0.305539  -0.534605  -0.000207  2.193454  0.001
O  O87  1  0.32554020  0.88423698  0.01108947  1  -1.18146  0.001086  -0.305481  -0.534535  -0.000207  2.193437  0.001
O  O88  1  0.69401849  0.00129509  0.32276421  1  -1.140031  0.085156  -0.3196  -0.562159  0.04708  2.359157  0.079
O  O89  1  0.99870222  0.30597410  0.17723816  1  -1.140061  0.085163  -0.319593  -0.562146  0.047083  2.35909  0.079
O  O90  1  0.30598290  0.99870964  0.67723860  1  -1.140123  0.085155  -0.319612  -0.56215  0.04708  2.359167  0.079
O  O91  1  0.00129510  0.69401607  0.82276150  1  -1.140083  0.085151  -0.319646  -0.562266  0.047078  2.359156  0.079
O  O92  1  0.64106839  0.05072334  0.47626180  1  -1.168971  0.002231  -0.304214  -0.515451  0.00036  2.222444  0.002
O  O93  1  0.94928141  0.35892718  0.02373943  1  -1.168833  0.002231  -0.304222  -0.515402  0.00036  2.222529  0.002
O  O94  1  0.35892984  0.94927733  0.52373963  1  -1.168872  0.002231  -0.304229  -0.515429  0.00036  2.222523  0.002
O  O95  1  0.05072131  0.64106371  0.97626005  1  -1.16894  0.002231  -0.30427  -0.51552  0.00036  2.222389  0.002
O  O96  1  0.93302027  0.58102229  0.61725221  1  -1.219123  0.073858  -0.580636  -0.746848  0.040991  2.140686  0.065
O  O97  1  0.41897738  0.06697654  0.88274917  1  -1.219298  0.073859  -0.580646  -0.746779  0.04099  2.14074  0.065
O  O98  1  0.06697906  0.41897773  0.38274853  1  -1.219321  0.073855  -0.580661  -0.746841  0.040988  2.140725  0.065
O  O99  1  0.58102513  0.93302343  0.11725404  1  -1.219188  0.073855  -0.580625  -0.746755  0.040988  2.140769  0.065
O  O100  1  0.04746728  0.38577986  0.85586819  1  -1.213935  0.061174  -0.569706  -0.758632  0.03409  2.180841  0.054
O  O101  1  0.61422247  0.95253686  0.64413257  1  -1.213923  0.061173  -0.569699  -0.758595  0.03409  2.180867  0.054
O  O102  1  0.95253534  0.61421815  0.14413194  1  -1.213968  0.061173  -0.569698  -0.758561  0.03409  2.180983  0.054
O  O103  1  0.38577902  0.04746591  0.35586717  1  -1.213927  0.061174  -0.569711  -0.758612  0.034091  2.180831  0.054
