# generated using pymatgen
data_CoH27C33N5O7
_symmetry_space_group_name_H-M   'P 1'
_cell_length_a   10.29326230
_cell_length_b   12.89548192
_cell_length_c   14.54644418
_cell_angle_alpha   110.80929060
_cell_angle_beta   106.03238590
_cell_angle_gamma   99.61255854
_symmetry_Int_Tables_number   1
_chemical_formula_structural   CoH27C33N5O7
_chemical_formula_sum   'Co2 H54 C66 N10 O14'
_cell_volume   1657.45271046
_cell_formula_units_Z   2
loop_
 _symmetry_equiv_pos_site_id
 _symmetry_equiv_pos_as_xyz
  1  'x, y, z'
loop_
 _atom_site_type_symbol
 _atom_site_label
 _atom_site_symmetry_multiplicity
 _atom_site_fract_x
 _atom_site_fract_y
 _atom_site_fract_z
 _atom_site_occupancy
 _atom_site_pbe_bader_charge
 _atom_site_pbe_bader_spin_density
 _atom_site_pbe_cm5_charge
 _atom_site_pbe_ddec_charge
 _atom_site_pbe_ddec_spin_density
 _atom_site_pbe_ddec_sum_bond_order
 _atom_site_pbe_magmom
Co  Co0  1  0.91789173  0.02284150  0.71964505  1  1.249232  -2.573932  0.664717  0.821258  -2.805496  2.50835  -2.546
Co  Co1  1  0.08209951  0.97712876  0.28032664  1  1.249247  -2.573904  0.664966  0.821502  -2.805474  2.508559  -2.546
H  H2  1  0.06571587  0.31627711  0.44765616  1  0.508905  -6.5e-05  0.309748  0.279876  -6.4e-05  0.979008  0.0
H  H3  1  0.93428553  0.68373949  0.55235009  1  0.508755  -6.6e-05  0.309709  0.279798  -6.4e-05  0.979117  0.0
H  H4  1  0.03889184  0.32774012  0.22873047  1  0.511246  -3e-05  0.308107  0.277031  -4.5e-05  0.991539  0.0
H  H5  1  0.96109867  0.67225735  0.77126571  1  0.510861  -3e-05  0.30808  0.277054  -4.5e-05  0.991481  0.0
H  H6  1  0.15037100  0.24159581  0.80072508  1  0.114105  -0.002169  0.117927  0.082956  -0.000813  0.990006  -0.001
H  H7  1  0.84961588  0.75843276  0.19926934  1  0.114792  -0.002171  0.117881  0.082865  -0.000814  0.990096  -0.001
H  H8  1  0.22449112  0.38734673  0.73563243  1  0.126051  -0.000709  0.111914  0.138522  -0.000343  1.020099  0.0
H  H9  1  0.77547308  0.61268365  0.26436125  1  0.126906  -0.000709  0.111839  0.138506  -0.000343  1.020101  0.0
H  H10  1  0.93244592  0.14371300  0.42408883  1  0.131517  -0.000718  0.110605  0.124956  -0.000354  1.03904  0.0
H  H11  1  0.06754665  0.85628188  0.57590838  1  0.131803  -0.000719  0.110667  0.125082  -0.000354  1.038843  0.0
H  H12  1  0.85950888  0.01357794  0.50457565  1  0.118771  -0.001736  0.118537  0.085934  -0.000428  1.009799  -0.001
H  H13  1  0.14051516  0.98642300  0.49543063  1  0.118836  -0.001738  0.118498  0.085904  -0.00043  1.009789  -0.001
H  H14  1  0.05586758  0.39493481  0.36470294  1  0.137646  -1.3e-05  0.111177  0.107034  -1e-05  1.088592  0.0
H  H15  1  0.94412468  0.60507674  0.63530883  1  0.137528  -1.3e-05  0.111132  0.107065  -1e-05  1.088424  0.0
H  H16  1  0.23668600  0.71151917  0.35074186  1  0.122282  -1.6e-05  0.106308  0.107513  3.8e-05  1.025396  0.0
H  H17  1  0.76331487  0.28847298  0.64924939  1  0.122293  -1.6e-05  0.106292  0.107514  3.8e-05  1.025465  0.0
H  H18  1  0.34984483  0.80697204  0.54767668  1  0.087879  3.7e-05  0.10108  0.098527  4.4e-05  1.006345  0.0
H  H19  1  0.65017465  0.19304351  0.45232409  1  0.087855  3.7e-05  0.10109  0.098603  4.4e-05  1.006738  0.0
H  H20  1  0.31842465  0.69325455  0.65175956  1  0.103233  2e-06  0.105452  0.103302  1.8e-05  1.030772  0.0
H  H21  1  0.68158184  0.30674815  0.34824358  1  0.103299  2e-06  0.105456  0.103292  1.8e-05  1.0308  0.0
H  H22  1  0.01063355  0.02666576  0.92827474  1  0.119516  -0.001851  0.117674  0.08863  -0.000477  1.022059  -0.001
H  H23  1  0.98938474  0.97333096  0.07173595  1  0.119437  -0.001855  0.117606  0.088599  -0.000479  1.022199  -0.001
H  H24  1  0.06820495  0.16092183  0.11663151  1  0.129934  -0.0009  0.110509  0.135936  -0.000331  1.039169  0.0
H  H25  1  0.93178358  0.83908071  0.88335753  1  0.130377  -0.000901  0.110465  0.1359  -0.000332  1.038996  0.0
H  H26  1  0.95016646  0.41464327  0.00548570  1  0.153237  -0.000599  0.113098  0.139651  -0.000228  1.018984  0.0
H  H27  1  0.04981933  0.58532731  0.99450352  1  0.153037  -0.0006  0.113128  0.139771  -0.000229  1.018754  0.0
H  H28  1  0.90081111  0.27170325  0.82462206  1  0.128751  -0.00158  0.116647  0.093819  -0.000346  1.036006  -0.001
H  H29  1  0.09919589  0.72828373  0.17537168  1  0.128627  -0.001583  0.116608  0.093762  -0.000347  1.036036  -0.001
H  H30  1  0.61712350  0.68072304  0.45749117  1  0.087443  -0.000489  0.103472  0.107232  -0.000244  1.022426  0.0
H  H31  1  0.38288110  0.31927412  0.54254156  1  0.087131  -0.000489  0.103421  0.107128  -0.000243  1.022091  0.0
H  H32  1  0.47549573  0.49322470  0.30199601  1  0.070421  -4.4e-05  0.103481  0.108397  -1e-05  0.985132  0.0
H  H33  1  0.52451984  0.50677655  0.69802648  1  0.070609  -4.4e-05  0.103554  0.108441  -1e-05  0.985195  0.0
H  H34  1  0.67156259  0.71295110  0.77065908  1  0.11406  -0.000439  0.101258  0.106051  -0.000255  1.01168  0.0
H  H35  1  0.32844442  0.28706585  0.22936907  1  0.114282  -0.000439  0.101378  0.10626  -0.000255  1.012246  0.0
H  H36  1  0.28404481  0.08894071  0.92793115  1  0.090276  -0.000207  0.102402  0.105594  -1.5e-05  1.018806  0.0
H  H37  1  0.71595417  0.91104368  0.07206082  1  0.090107  -0.000207  0.102475  0.10573  -1.5e-05  1.018648  0.0
H  H38  1  0.50102024  0.23165203  0.07994158  1  0.066941  -0.000136  0.103054  0.107551  -5.1e-05  0.988545  0.0
H  H39  1  0.49895931  0.76832891  0.92004462  1  0.06675  -0.000136  0.103033  0.107517  -5.1e-05  0.988707  0.0
H  H40  1  0.25719769  0.72622162  0.79489480  1  0.113857  -4.9e-05  0.101186  0.11098  -8e-06  1.039186  0.0
H  H41  1  0.74277150  0.27374198  0.20508612  1  0.114259  -5e-05  0.101231  0.111087  -8e-06  1.039474  0.0
H  H42  1  0.44638326  0.00930776  0.77606121  1  0.061326  -0.000123  0.108589  0.122691  -5.8e-05  1.015982  0.0
H  H43  1  0.55362078  0.99067662  0.22393112  1  0.061383  -0.000122  0.108551  0.122623  -5.8e-05  1.015994  0.0
H  H44  1  0.30245760  0.98019844  0.65962106  1  0.03394  -9.7e-05  0.102574  0.116637  1.5e-05  1.010865  0.0
H  H45  1  0.69754615  0.01978760  0.34036759  1  0.034113  -9.6e-05  0.102558  0.116541  1.5e-05  1.010846  0.0
H  H46  1  0.37271394  0.12187126  0.76418880  1  0.040257  8.6e-05  0.104547  0.120193  0.000132  0.984444  0.0
H  H47  1  0.62727700  0.87811423  0.23581421  1  0.040559  8.5e-05  0.104585  0.12015  0.000132  0.984326  0.0
H  H48  1  0.54932196  0.14968899  0.57849998  1  0.096139  -0.000332  0.110228  0.128423  -0.000181  1.019779  0.0
H  H49  1  0.45069051  0.85032508  0.42151332  1  0.096239  -0.000332  0.11025  0.128381  -0.000181  1.019833  0.0
H  H50  1  0.42697896  0.20170092  0.63616215  1  0.060056  -4.5e-05  0.103282  0.116532  1.7e-05  0.990084  0.0
H  H51  1  0.57303797  0.79831137  0.36384949  1  0.060021  -4.5e-05  0.103265  0.11641  1.7e-05  0.990064  0.0
H  H52  1  0.37035390  0.06218612  0.52835665  1  0.08163  3.9e-05  0.104587  0.128556  0.000198  1.022016  0.0
H  H53  1  0.62965557  0.93783048  0.47165197  1  0.081414  3.9e-05  0.104606  0.128539  0.000198  1.02177  0.0
H  H54  1  0.64817855  0.02230545  0.76152453  1  0.10498  -0.001608  0.123067  0.0547  -0.000367  1.001691  -0.001
H  H55  1  0.35182345  0.97769904  0.23848097  1  0.105022  -0.001608  0.123084  0.054672  -0.000367  1.001646  -0.001
C  C56  1  0.10252838  0.22392524  0.71776783  1  0.480956  0.006889  0.04207  0.098466  0.007491  3.98881  0.004
C  C57  1  0.89746982  0.77610681  0.28223137  1  0.481082  0.006892  0.042065  0.098625  0.007494  3.989514  0.004
C  C58  1  0.14543734  0.30483052  0.68159968  1  -0.008812  -0.006111  -0.094474  -0.235468  -0.002746  3.938419  -0.005
C  C59  1  0.85454674  0.69520408  0.31839322  1  -0.009255  -0.006117  -0.094395  -0.235622  -0.002747  3.938683  -0.005
C  C60  1  0.08075947  0.27929660  0.57416795  1  0.357872  0.009702  0.121872  0.298429  0.010799  3.994874  0.007
C  C61  1  0.91923151  0.72070782  0.42583111  1  0.356437  0.009713  0.1219  0.298487  0.010812  3.994452  0.007
C  C62  1  0.98025466  0.16992657  0.50864654  1  0.012551  -0.005844  -0.087551  -0.222167  -0.002779  3.940573  -0.005
C  C63  1  0.01975659  0.83007923  0.49133721  1  0.008696  -0.005854  -0.087768  -0.222543  -0.002781  3.940913  -0.005
C  C64  1  0.94116195  0.09672866  0.55264475  1  0.413513  0.006147  0.04237  0.094877  0.006841  3.982831  0.004
C  C65  1  0.05884164  0.90327904  0.44734692  1  0.417158  0.00615  0.042339  0.094923  0.006842  3.983125  0.004
C  C66  1  0.17669602  0.47252348  0.58180007  1  1.387696  0.002455  0.243162  0.475143  0.002995  4.099746  0.002
C  C67  1  0.82328932  0.52746787  0.41819046  1  1.388489  0.002455  0.24318  0.475329  0.002995  4.099726  0.002
C  C68  1  0.18670127  0.53657315  0.51492531  1  -0.100452  -0.000281  -0.016797  -0.038708  -3.9e-05  3.993755  0.0
C  C69  1  0.81327876  0.46341474  0.48506376  1  -0.101216  -0.000282  -0.016924  -0.039136  -3.9e-05  3.993924  0.0
C  C70  1  0.12330247  0.48430942  0.40494599  1  0.008756  0.000121  -0.08079  -0.130281  0.000164  3.940875  0.0
C  C71  1  0.87668730  0.51569150  0.59504970  1  0.009414  0.000119  -0.080752  -0.130284  0.000162  3.940487  0.0
C  C72  1  0.14324834  0.54621957  0.34562291  1  -0.06651  -0.000223  -0.014236  -0.031767  -8.4e-05  3.988466  0.0
C  C73  1  0.85673645  0.45377620  0.65437364  1  -0.067101  -0.000224  -0.014232  -0.031682  -8.4e-05  3.988409  0.0
C  C74  1  0.22372840  0.66329935  0.39746748  1  -0.012366  0.001853  -0.073471  -0.077625  0.002033  3.93571  0.001
C  C75  1  0.77627906  0.33669461  0.60252981  1  -0.012063  0.001857  -0.07351  -0.077648  0.002037  3.935747  0.001
C  C76  1  0.28563661  0.71625558  0.50736270  1  -0.08282  -0.000214  -0.088718  -0.083702  -1.8e-05  4.007882  0.0
C  C77  1  0.71437075  0.28373845  0.49263941  1  -0.083058  -0.000214  -0.08875  -0.083951  -1.8e-05  4.008757  0.0
C  C78  1  0.26830345  0.65367009  0.56610815  1  -0.023903  0.001435  -0.072473  -0.069124  0.001505  3.927624  0.001
C  C79  1  0.73167940  0.34631540  0.43389317  1  -0.023257  0.001438  -0.072321  -0.068726  0.001509  3.927768  0.001
C  C80  1  0.99744094  0.11296591  0.94944476  1  0.398309  -0.003751  0.043458  0.112235  -0.002054  3.963812  -0.003
C  C81  1  0.00257731  0.88703195  0.05058208  1  0.398286  -0.003752  0.043618  0.112317  -0.002054  3.96364  -0.003
C  C82  1  0.02703830  0.18698882  0.05326796  1  0.067894  -0.002355  -0.095531  -0.244751  -0.001257  3.932657  -0.002
C  C83  1  0.97296141  0.81302099  0.94674484  1  0.06783  -0.00236  -0.095431  -0.244469  -0.001259  3.931745  -0.002
C  C84  1  0.00994722  0.29846972  0.07650240  1  0.31051  -0.003255  0.121321  0.30098  -0.001577  4.008018  -0.002
C  C85  1  0.99005503  0.70152436  0.92350141  1  0.310353  -0.003255  0.121301  0.300695  -0.001577  4.007114  -0.002
C  C86  1  0.96448837  0.32988495  0.99258818  1  0.086891  -0.002395  -0.08865  -0.218686  -0.001282  3.912276  -0.002
C  C87  1  0.03551487  0.67011648  0.00744141  1  0.086698  -0.0024  -0.088741  -0.218891  -0.001284  3.911768  -0.002
C  C88  1  0.93699388  0.24940036  0.89088152  1  0.410848  -0.003018  0.043052  0.096476  -0.001435  3.967626  -0.002
C  C89  1  0.06300676  0.75060696  0.10913761  1  0.411019  -0.003014  0.043148  0.096687  -0.001433  3.967828  -0.002
C  C90  1  0.08892563  0.49054870  0.22764064  1  1.376526  5.6e-05  0.24693  0.488331  8.2e-05  4.094841  0.0
C  C91  1  0.91103000  0.50943934  0.77235027  1  1.376714  5.7e-05  0.246949  0.488448  8.4e-05  4.094695  0.0
C  C92  1  0.74679598  0.82782226  0.66200800  1  1.505577  0.001917  0.188987  0.541063  0.002837  4.221442  0.003
C  C93  1  0.25323074  0.17217162  0.33799054  1  1.506761  0.001901  0.18897  0.54069  0.002817  4.221173  0.003
C  C94  1  0.65357378  0.70704903  0.61718442  1  -0.007683  -0.001259  -0.021239  -0.028678  -0.000588  3.997692  -0.001
C  C95  1  0.34645057  0.29298819  0.38282110  1  -0.007915  -0.001257  -0.021215  -0.02853  -0.000587  3.997505  -0.001
C  C96  1  0.59563654  0.64157425  0.50896068  1  -0.054871  0.000205  -0.081103  -0.142235  0.000557  3.948847  0.0
C  C97  1  0.40436514  0.35843559  0.49105461  1  -0.054811  0.000193  -0.08101  -0.142108  0.000545  3.948246  0.0
C  C98  1  0.51215528  0.52496241  0.46504043  1  0.08995  0.000222  -0.004836  0.072359  0.000352  4.000928  0.0
C  C99  1  0.48784587  0.47504817  0.53496740  1  0.028347  0.000226  -0.005008  0.072409  0.000357  4.001259  0.0
C  C100  1  0.45394445  0.45524400  0.35435136  1  -0.023729  -0.000114  -0.085624  -0.120165  7.2e-05  3.981197  0.0
C  C101  1  0.54603269  0.54472848  0.64564487  1  -0.024578  -0.000121  -0.085519  -0.120043  6.7e-05  3.981313  0.0
C  C102  1  0.62665490  0.65826742  0.68597620  1  -0.154798  -0.001022  -0.088123  -0.099214  -0.000517  3.985923  -0.001
C  C103  1  0.37333327  0.34172042  0.31401180  1  -0.155521  -0.001025  -0.088193  -0.099311  -0.00052  3.987559  -0.001
C  C104  1  0.11723766  0.88305580  0.77045787  1  1.567001  -0.002789  0.209778  0.578299  -0.001379  4.197343  -0.003
C  C105  1  0.88275390  0.11690911  0.22950403  1  1.566459  -0.002788  0.209687  0.578401  -0.001374  4.197073  -0.003
C  C106  1  0.25726934  0.90664700  0.85363137  1  -0.052602  -0.004853  -0.023248  -0.044106  -0.002373  3.992069  -0.004
C  C107  1  0.74271365  0.09335114  0.14635176  1  -0.052813  -0.004867  -0.023218  -0.044243  -0.002381  3.992019  -0.004
C  C108  1  0.33152036  0.01941442  0.92810919  1  -0.040352  -0.001305  -0.083958  -0.144525  -0.000669  3.94936  -0.001
C  C109  1  0.66846781  0.98057341  0.07187881  1  -0.039587  -0.001292  -0.084061  -0.144762  -0.000661  3.949158  -0.001
C  C110  1  0.46869565  0.04621588  0.00183218  1  0.011855  -0.000469  -0.008848  0.069295  -0.00022  4.005975  0.0
C  C111  1  0.53129629  0.95378604  0.99817182  1  -0.044832  -0.000475  -0.008771  0.06958  -0.000223  4.006127  0.0
C  C112  1  0.54835620  0.16145331  0.07758621  1  -0.066949  -0.000536  -0.09015  -0.127584  -0.00025  3.979976  0.0
C  C113  1  0.45167101  0.83855374  0.92242462  1  -0.066987  -0.000528  -0.090105  -0.12753  -0.000245  3.979623  0.0
C  C114  1  0.31736011  0.81492942  0.85262647  1  -0.052516  -0.001179  -0.093459  -0.108627  -0.000502  3.991169  -0.001
C  C115  1  0.68264425  0.18506460  0.14737363  1  -0.052676  -0.001173  -0.093473  -0.108549  -0.000498  3.992141  -0.001
C  C116  1  0.40056697  0.04505030  0.72112701  1  0.339678  -0.00081  -0.131269  -0.278345  -0.000393  3.92704  -0.001
C  C117  1  0.59942701  0.95494027  0.27887128  1  0.339205  -0.000809  -0.131228  -0.278126  -0.000393  3.926914  -0.001
C  C118  1  0.45927393  0.12469055  0.60009452  1  0.244054  -0.00052  -0.134255  -0.270737  -0.000267  3.878392  0.0
C  C119  1  0.54073631  0.87532001  0.39991520  1  0.244549  -0.00052  -0.134238  -0.270525  -0.000267  3.878182  0.0
C  C120  1  0.63001637  0.06042590  0.70370072  1  1.365796  0.001733  0.172146  0.291981  0.002134  4.097497  0.002
C  C121  1  0.36998939  0.93957769  0.29630391  1  1.366107  0.001734  0.172225  0.292343  0.002136  4.096741  0.002
N  N122  1  0.99943402  0.12250684  0.65636958  1  -1.248262  -0.061334  -0.349838  -0.266299  -0.032769  3.630185  -0.048
N  N123  1  0.00058454  0.87751120  0.34362417  1  -1.248347  -0.061355  -0.349796  -0.266285  -0.032783  3.630484  -0.048
N  N124  1  0.10788949  0.35460961  0.52874174  1  -1.265229  0.000322  -0.387859  -0.369555  0.000323  3.553546  -0.001
N  N125  1  0.89209887  0.64538796  0.47125953  1  -1.265262  0.000322  -0.387724  -0.369382  0.000323  3.552971  -0.001
N  N126  1  0.04062015  0.37070975  0.18155094  1  -1.28853  -0.002266  -0.39317  -0.374793  -0.001093  3.55099  -0.002
N  N127  1  0.95935768  0.62927206  0.81843585  1  -1.287491  -0.002268  -0.393149  -0.374921  -0.001094  3.550954  -0.002
N  N128  1  0.95216710  0.14223460  0.86827965  1  -1.256901  -0.063059  -0.346798  -0.280441  -0.033742  3.632155  -0.046
N  N129  1  0.04785866  0.85777534  0.13174825  1  -1.257176  -0.063099  -0.347068  -0.280661  -0.033763  3.632881  -0.046
N  N130  1  0.50130321  0.07512509  0.67512825  1  -1.225255  -0.001321  -0.285151  0.026686  -0.00036  3.7276  -0.001
N  N131  1  0.49871224  0.92487769  0.32488230  1  -1.225689  -0.001321  -0.285301  0.026412  -0.000361  3.727464  -0.001
O  O132  1  0.22917759  0.52339478  0.67947036  1  -1.136619  0.001924  -0.284128  -0.468163  0.001977  2.122047  0.001
O  O133  1  0.77081075  0.47661046  0.32052495  1  -1.13703  0.001924  -0.284128  -0.468179  0.001977  2.122119  0.001
O  O134  1  0.09554632  0.54809212  0.17587973  1  -1.136999  -0.001177  -0.284305  -0.47557  -0.000599  2.13929  -0.001
O  O135  1  0.90440276  0.45190397  0.82412528  1  -1.137448  -0.001177  -0.284299  -0.475596  -0.0006  2.138969  -0.001
O  O136  1  0.09081394  0.97356044  0.76106553  1  -1.164194  -0.079332  -0.327992  -0.578273  -0.041612  2.428487  -0.065
O  O137  1  0.90924112  0.02643369  0.23890460  1  -1.16361  -0.079377  -0.327887  -0.578203  -0.041647  2.428952  -0.065
O  O138  1  0.03827683  0.77973287  0.71363896  1  -1.212738  -0.006761  -0.324449  -0.568074  -0.002834  2.199084  -0.006
O  O139  1  0.96171074  0.22024954  0.28633491  1  -1.212489  -0.006762  -0.324529  -0.568277  -0.002834  2.198722  -0.006
O  O140  1  0.79630856  0.88960838  0.76117500  1  -1.158194  -0.058063  -0.3175  -0.561113  -0.029554  2.221663  -0.05
O  O141  1  0.20370412  0.11040952  0.23880923  1  -1.15858  -0.058028  -0.317479  -0.560891  -0.029539  2.220841  -0.05
O  O142  1  0.77756974  0.86916213  0.59943707  1  -1.142639  -0.086121  -0.321536  -0.540576  -0.044617  2.274322  -0.07
O  O143  1  0.22247859  0.13085518  0.40057298  1  -1.143098  -0.086027  -0.321498  -0.540551  -0.044568  2.274468  -0.07
O  O144  1  0.72365259  0.08575688  0.66918928  1  -1.156489  -0.045521  -0.28897  -0.464033  -0.022889  2.379298  -0.04
O  O145  1  0.27636679  0.91424599  0.33082761  1  -1.156706  -0.045533  -0.288943  -0.464133  -0.022897  2.379053  -0.04
