# generated using pymatgen
data_ZnH13C28I5NO4
_symmetry_space_group_name_H-M   'P 1'
_cell_length_a   10.97656260
_cell_length_b   18.40968304
_cell_length_c   19.56988355
_cell_angle_alpha   87.79287501
_cell_angle_beta   88.60782620
_cell_angle_gamma   92.04253763
_symmetry_Int_Tables_number   1
_chemical_formula_structural   ZnH13C28I5NO4
_chemical_formula_sum   'Zn2 H26 C56 I10 N2 O8'
_cell_volume   3947.83571658
_cell_formula_units_Z   2
loop_
 _symmetry_equiv_pos_site_id
 _symmetry_equiv_pos_as_xyz
  1  'x, y, z'
loop_
 _atom_site_type_symbol
 _atom_site_label
 _atom_site_symmetry_multiplicity
 _atom_site_fract_x
 _atom_site_fract_y
 _atom_site_fract_z
 _atom_site_occupancy
 _atom_site_pbe_bader_charge
 _atom_site_pbe_bader_spin_density
 _atom_site_pbe_cm5_charge
 _atom_site_pbe_ddec_charge
 _atom_site_pbe_ddec_spin_density
 _atom_site_pbe_ddec_sum_bond_order
 _atom_site_pbe_magmom
Zn  Zn0  1  0.50936788  0.57888695  0.49604216  1  1.293952  0  0.670036  0.859361  0  2.378123  0
Zn  Zn1  1  0.49065403  0.42111006  0.50396038  1  1.295093  0  0.67014  0.859459  0  2.377616  0
H  H2  1  0.55381949  0.61695550  0.71199811  1  0.112829  0  0.101381  0.11051  0  0.994264  0
H  H3  1  0.44614402  0.38303862  0.28800364  1  0.1118  0  0.101437  0.110618  0  0.994271  0
H  H4  1  0.66241677  0.57329938  0.93582767  1  0.066017  0  0.101709  0.103226  0  0.998434  0
H  H5  1  0.33755929  0.42668830  0.06417973  1  0.066139  0  0.101784  0.103228  0  0.99831  0
H  H6  1  0.38751201  0.68428020  0.56670036  1  0.149074  0  0.124879  0.109516  0  0.989882  0
H  H7  1  0.61248808  0.31571559  0.43329071  1  0.149146  0  0.124897  0.109512  0  0.989796  0
H  H8  1  0.53156683  0.07361449  0.39147844  1  0.077351  0  0.107226  0.109331  0  0.992749  0
H  H9  1  0.46846162  0.92638911  0.60852590  1  0.077929  0  0.107274  0.109351  0  0.992815  0
H  H10  1  0.82620235  0.53390197  0.34069658  1  0.055789  0  0.1005  0.111745  0  0.995995  0
H  H11  1  0.17380438  0.46610580  0.65929972  1  0.055992  0  0.100486  0.111697  0  0.995914  0
H  H12  1  0.75161920  0.47958213  0.23457942  1  0.101037  0  0.104149  0.116465  0  1.000802  0
H  H13  1  0.24836845  0.52042810  0.76541806  1  0.100621  0  0.104173  0.116367  0  1.000758  0
H  H14  1  0.65355668  0.57225893  0.06212966  1  0.05129  0  0.099809  0.0986  0  1.005075  0
H  H15  1  0.34641139  0.42773576  0.93787407  1  0.050823  0  0.099852  0.098709  0  1.005241  0
H  H16  1  0.36696192  0.81786394  0.57416260  1  0.085366  0  0.096269  0.101205  0  1.058777  0
H  H17  1  0.63305010  0.18213735  0.42583586  1  0.085217  0  0.096309  0.101191  0  1.058678  0
H  H18  1  0.66447949  0.84526863  0.42484353  1  0.097692  0  0.107199  0.1207  0  1.011457  0
H  H19  1  0.33556069  0.15473182  0.57516485  1  0.097973  0  0.107221  0.120869  0  1.011537  0
H  H20  1  0.54193022  0.94001034  0.39087570  1  0.075827  0  0.108072  0.110197  0  0.990183  0
H  H21  1  0.45808801  0.05998711  0.60913300  1  0.075662  0  0.108005  0.110107  0  0.989906  0
H  H22  1  0.46261776  0.38824121  0.71913576  1  0.100769  0  0.095063  0.098596  0  1.028345  0
H  H23  1  0.53737948  0.61175280  0.28086459  1  0.100763  0  0.095042  0.098514  0  1.028575  0
H  H24  1  0.46240916  0.38622870  0.84654590  1  0.046784  0  0.099397  0.099943  0  1.003528  0
H  H25  1  0.53757537  0.61376785  0.15345607  1  0.046917  0  0.099438  0.099997  0  1.003462  0
H  H26  1  0.55847274  0.61547593  0.83909464  1  0.022024  0  0.095034  0.095476  0  1.016622  0
H  H27  1  0.44146996  0.38452496  0.16090973  1  0.021829  0  0.094994  0.09536  0  1.016601  0
C  C28  1  0.49849180  0.49626688  0.36818059  1  1.539523  0  0.207063  0.583044  0  4.195728  0
C  C29  1  0.50151387  0.50373646  0.63182147  1  1.539169  0  0.206925  0.582817  0  4.19618  0
C  C30  1  0.12741090  0.51129554  0.49771229  1  0.054925  0  -0.01658  -0.074403  0  3.929651  0
C  C31  1  0.87261224  0.48871243  0.50228485  1  0.056448  0  -0.016451  -0.074333  0  3.930048  0
C  C32  1  0.05969469  0.53227586  0.55522115  1  0.041061  0  -0.016998  0.015955  0  3.991958  0
C  C33  1  0.94032190  0.46772603  0.44477775  1  0.040354  0  -0.017075  0.015825  0  3.991609  0
C  C34  1  0.48217144  0.43778183  0.74620976  1  -0.027107  0  -0.089216  -0.088371  0  3.989752  0
C  C35  1  0.51781230  0.56221698  0.25378449  1  -0.026585  0  -0.089237  -0.088387  0  3.989737  0
C  C36  1  0.48181398  0.43711392  0.81726103  1  -0.067733  0  -0.095436  -0.138621  0  3.991357  0
C  C37  1  0.51817046  0.56287883  0.18274052  1  -0.067803  0  -0.095524  -0.13867  0  3.991883  0
C  C38  1  0.50931328  0.50093408  0.85204657  1  0.030607  0  -0.00832  0.070611  0  4.010977  0
C  C39  1  0.49065117  0.49906113  0.14795565  1  0.030487  0  -0.008375  0.070453  0  4.011332  0
C  C40  1  0.53836005  0.56529904  0.81308400  1  0.037294  0  -0.098056  -0.140634  0  4.010772  0
C  C41  1  0.46159092  0.43470361  0.18691819  1  0.037389  0  -0.098164  -0.140614  0  4.010536  0
C  C42  1  0.53576655  0.56648341  0.74203919  1  -0.099941  0  -0.092129  -0.092015  0  3.994324  0
C  C43  1  0.46420158  0.43351504  0.25796905  1  -0.098824  0  -0.091965  -0.091896  0  3.993916  0
C  C44  1  0.50716579  0.50276219  0.70801690  1  -0.026505  0  -0.025471  -0.039055  0  3.98439  0
C  C45  1  0.49282049  0.49723324  0.29199069  1  -0.02715  0  -0.025471  -0.03904  0  3.983948  0
C  C46  1  0.58973299  0.54197914  0.96380173  1  -0.029911  0  -0.09284  -0.125946  0  3.997608  0
C  C47  1  0.41022702  0.45801985  0.03619789  1  -0.030536  0  -0.093047  -0.126072  0  3.997612  0
C  C48  1  0.58471171  0.54140606  0.03490006  1  -0.113654  0  -0.093689  -0.130484  0  4.00522  0
C  C49  1  0.41525732  0.45858925  0.96509854  1  -0.113553  0  -0.093654  -0.130617  0  4.005627  0
C  C50  1  0.73513370  0.48295562  0.50125016  1  1.568325  0  0.206943  0.603195  0  4.195095  0
C  C51  1  0.26489454  0.51703983  0.49875389  1  1.567726  0  0.207061  0.603378  0  4.194474  0
C  C52  1  0.49481608  0.49951084  0.07256428  1  -0.016017  0  -0.011783  0.06201  0  4.015533  0
C  C53  1  0.50513935  0.50048703  0.92743389  1  -0.015993  0  -0.012027  0.061822  0  4.015681  0
C  C54  1  0.44710247  0.72247680  0.53658139  1  0.419793  0  0.059254  0.131631  0  3.872007  0
C  C55  1  0.55291127  0.27752122  0.46341969  1  0.41972  0  0.05923  0.131571  0  3.872289  0
C  C56  1  0.43696278  0.79698467  0.54048833  1  0.054599  0  -0.083384  -0.178331  0  3.936577  0
C  C57  1  0.56304921  0.20301603  0.45951372  1  0.054463  0  -0.083488  -0.178321  0  3.936648  0
C  C58  1  0.51408237  0.84375440  0.49913577  1  -0.026787  0  0.018141  0.134364  0  3.973044  0
C  C59  1  0.48592959  0.15624470  0.50086377  1  -0.026632  0  0.018245  0.134559  0  3.97264  0
C  C60  1  0.59996868  0.81189733  0.45658884  1  0.015333  0  -0.090989  -0.217064  0  3.952354  0
C  C61  1  0.40005227  0.18810013  0.54342137  1  0.015351  0  -0.091028  -0.217342  0  3.952569  0
C  C62  1  0.60455705  0.73636693  0.45615992  1  0.318568  0  0.091878  0.205146  0  3.922501  0
C  C63  1  0.39546938  0.26362695  0.54383755  1  0.318662  0  0.092011  0.205273  0  3.922583  0
C  C64  1  0.52539918  0.96629435  0.43904513  1  -0.090674  0  -0.082924  -0.118733  0  3.976415  0
C  C65  1  0.47464197  0.03370620  0.56095506  1  -0.090442  0  -0.082883  -0.11873  0  3.976068  0
C  C66  1  0.51940354  0.04157038  0.43934471  1  0.013708  0  -0.08185  -0.113364  0  3.971969  0
C  C67  1  0.48061284  0.95842439  0.56065847  1  0.01228  0  -0.081791  -0.113185  0  3.971744  0
C  C68  1  0.49364641  0.07648490  0.50034195  1  -0.018324  0  -0.003795  0.064373  0  3.989663  0
C  C69  1  0.50636180  0.92351087  0.49965976  1  -0.017303  0  -0.003706  0.064505  0  3.989608  0
C  C70  1  0.83803462  0.32481137  0.31973086  1  -0.209481  0  -0.063484  -0.010664  0  3.885009  0
C  C71  1  0.16195772  0.67520278  0.68026136  1  -0.208914  0  -0.063578  -0.010634  0  3.885117  0
C  C72  1  0.87984439  0.35630111  0.37984612  1  -0.149714  0  -0.051907  -0.011606  0  3.847795  0
C  C73  1  0.12015068  0.64371307  0.62014760  1  -0.149805  0  -0.051909  -0.01163  0  3.848008  0
C  C74  1  0.87995537  0.43237052  0.38649300  1  -0.010352  0  -0.016837  0.051332  0  3.998081  0
C  C75  1  0.12005602  0.56764059  0.61350214  1  -0.010205  0  -0.016873  0.051215  0  3.998135  0
C  C76  1  0.82969495  0.47534305  0.33462768  1  -0.011046  0  -0.084187  -0.095512  0  3.947014  0
C  C77  1  0.17031461  0.52466750  0.66536648  1  -0.011033  0  -0.084052  -0.095341  0  3.946726  0
C  C78  1  0.78819752  0.44512047  0.27505440  1  0.049041  0  -0.094201  -0.098852  0  3.996162  0
C  C79  1  0.21181865  0.55489784  0.72493386  1  0.049653  0  -0.094119  -0.098538  0  3.995998  0
C  C80  1  0.79579727  0.37036467  0.26649474  1  -0.180375  0  -0.053742  0.03625  0  3.894511  0
C  C81  1  0.20419223  0.62964616  0.73350015  1  -0.180853  0  -0.05383  0.035984  0  3.894711  0
C  C82  1  0.06734388  0.48076164  0.44273443  1  -0.204121  0  -0.047369  -0.013921  0  3.86849  0
C  C83  1  0.93267908  0.51923926  0.55726289  1  -0.206043  0  -0.047489  -0.014071  0  3.868897  0
I  I84  1  0.74699463  0.33216586  0.17064374  1  0.117238  0  0.063785  -0.031188  0  1.471461  0
I  I85  1  0.25297649  0.66784190  0.82936115  1  0.117288  0  0.063775  -0.031161  0  1.471305  0
I  I86  1  0.73852616  0.69297583  0.39230413  1  0.162777  0  0.116192  0.012354  0  1.452243  0
I  I87  1  0.26149006  0.30701294  0.60770074  1  0.16264  0  0.116104  0.012291  0  1.452052  0
I  I88  1  0.84064838  0.21161346  0.30832038  1  0.113197  0  0.051368  -0.039355  0  1.589179  0
I  I89  1  0.15935006  0.78839199  0.69167966  1  0.112885  0  0.051379  -0.039372  0  1.589234  0
I  I90  1  0.94763520  0.29305760  0.46150384  1  0.137103  0  0.06729  -0.026622  0  1.602913  0
I  I91  1  0.05237593  0.70693848  0.53847432  1  0.13671  0  0.067341  -0.026604  0  1.602991  0
I  I92  1  0.16859184  0.45840149  0.35313235  1  0.129828  0  0.087228  0.004439  0  1.568688  0
I  I93  1  0.83139199  0.54160059  0.64686079  1  0.129866  0  0.087183  0.004428  0  1.568425  0
N  N94  1  0.52929475  0.69197174  0.49470735  1  -1.196692  0  -0.316826  -0.232337  0  3.471891  0
N  N95  1  0.47071991  0.30802578  0.50529067  1  -1.196698  0  -0.316899  -0.232325  0  3.471841  0
O  O96  1  0.50098846  0.55796400  0.39558969  1  -1.169935  0  -0.322018  -0.556543  0  2.394888  0
O  O97  1  0.49901991  0.44203933  0.60441694  1  -1.169796  0  -0.321938  -0.556437  0  2.394992  0
O  O98  1  0.50100667  0.43442170  0.39956617  1  -1.166686  0  -0.318833  -0.551472  0  2.353345  0
O  O99  1  0.49901161  0.56557321  0.60042727  1  -1.166751  0  -0.318795  -0.55137  0  2.353843  0
O  O100  1  0.68527729  0.54411803  0.49825355  1  -1.16909  0  -0.318303  -0.564481  0  2.423108  0
O  O101  1  0.31474810  0.45587199  0.50174709  1  -1.169644  0  -0.318419  -0.564685  0  2.422922  0
O  O102  1  0.68300010  0.42055832  0.50198431  1  -1.15363  0  -0.308613  -0.529849  0  2.303411  0
O  O103  1  0.31703627  0.57943347  0.49801616  1  -1.153376  0  -0.308607  -0.529874  0  2.30344  0
