# generated using pymatgen
data_MnH10C14(N3O2)2
_symmetry_space_group_name_H-M   'P 1'
_cell_length_a   9.40394947
_cell_length_b   9.52070167
_cell_length_c   9.52397300
_cell_angle_alpha   81.77583608
_cell_angle_beta   75.40584468
_cell_angle_gamma   75.81111324
_symmetry_Int_Tables_number   1
_chemical_formula_structural   MnH10C14(N3O2)2
_chemical_formula_sum   'Mn2 H20 C28 N12 O8'
_cell_volume   797.00748472
_cell_formula_units_Z   2
loop_
 _symmetry_equiv_pos_site_id
 _symmetry_equiv_pos_as_xyz
  1  'x, y, z'
loop_
 _atom_site_type_symbol
 _atom_site_label
 _atom_site_symmetry_multiplicity
 _atom_site_fract_x
 _atom_site_fract_y
 _atom_site_fract_z
 _atom_site_occupancy
 _atom_site_pbe_cm5_charge
 _atom_site_pbe_ddec_charge
 _atom_site_pbe_ddec_spin_density
 _atom_site_pbe_ddec_sum_bond_order
 _atom_site_pbe_magmom
Mn  Mn0  1  0.73932579  0.95556477  0.70873592  1  0.612131  0.839628  4.656165  2.414024  4.458
Mn  Mn1  1  0.23681424  0.69924073  0.95962063  1  0.698926  0.815163  3.216687  2.947249  3.082
H  H2  1  0.38785377  0.01551040  0.61061548  1  0.107719  0.119682  -0.000343  1.015977  0.0
H  H3  1  0.88452514  0.61537666  0.02767475  1  0.108414  0.119086  -0.000334  1.016429  0.0
H  H4  1  0.59494407  0.49183752  0.78408523  1  0.320345  0.27229  0.000314  1.016799  0.001
H  H5  1  0.10347455  0.77758849  0.47980463  1  0.323533  0.276256  -0.000551  0.991605  0.0
H  H6  1  0.87801066  0.87655075  0.17233042  1  0.320026  0.273044  0.000354  1.01481  0.001
H  H7  1  0.37288371  0.18113180  0.88265236  1  0.323184  0.278693  -0.000651  0.989948  0.0
H  H8  1  0.07468324  0.30978203  0.24925939  1  0.098327  0.097998  -5.4e-05  1.018517  0.0
H  H9  1  0.57691644  0.24516855  0.29682555  1  0.098368  0.09891  -0.000205  1.015674  0.0
H  H10  1  0.58733535  0.92597107  0.07849360  1  0.105855  0.124786  -0.000698  1.043721  0.0
H  H11  1  0.08582180  0.08788508  0.92561577  1  0.105224  0.12527  -0.000405  1.035184  0.0
H  H12  1  0.96669555  0.11155617  0.40996826  1  0.107646  0.113269  0.000197  1.03044  0.0
H  H13  1  0.47342753  0.40625317  0.09793765  1  0.109483  0.114788  -0.000448  1.043107  0.0
H  H14  1  0.79028423  0.63591552  0.53274543  1  0.106366  0.122368  -0.00025  1.031433  0.0
H  H15  1  0.29463730  0.53129353  0.62198062  1  0.10803  0.128167  -0.000241  1.018767  0.0
H  H16  1  0.21373506  0.03146916  0.44820689  1  0.100472  0.100197  -0.000176  1.020013  0.0
H  H17  1  0.71163249  0.45450116  0.03316421  1  0.099676  0.100455  -0.000153  1.025872  0.0
H  H18  1  0.31007514  0.98580634  0.18824993  1  0.101643  0.103545  -0.000219  1.015012  0.0
H  H19  1  0.80842709  0.19564532  0.98336017  1  0.101872  0.105458  -0.000197  1.020198  0.0
H  H20  1  0.98502463  0.56562371  0.30695150  1  0.099335  0.094897  -0.000191  1.030651  0.0
H  H21  1  0.48713149  0.30406372  0.55280638  1  0.099403  0.095106  -0.000211  1.027567  0.0
C  C22  1  0.43049990  0.99371739  0.49683226  1  -0.085352  -0.143271  -0.001362  3.970776  -0.001
C  C23  1  0.92818125  0.50269414  0.00315695  1  -0.085821  -0.142381  0.001303  3.972927  0.002
C  C24  1  0.43845413  0.89188396  0.86955051  1  0.210787  0.439381  -0.02691  4.198657  -0.014
C  C25  1  0.94378023  0.86813141  0.90647103  1  0.214996  0.449936  -0.001853  4.221541  0.003
C  C26  1  0.54662747  0.74576264  0.83505202  1  0.215232  0.463123  -0.003448  4.213537  0.001
C  C27  1  0.04754175  0.82042437  0.76137985  1  0.212679  0.453334  -0.029661  4.173951  -0.015
C  C28  1  0.98816251  0.33545913  0.34783999  1  -0.091029  -0.075456  0.001653  4.003976  0.001
C  C29  1  0.49200609  0.34434639  0.32242074  1  -0.092025  -0.079087  -0.005882  4.003694  -0.003
C  C30  1  0.54319699  0.94220504  0.19334852  1  -0.090943  -0.157692  0.000997  3.96273  0.001
C  C31  1  0.04116938  0.20200373  0.94454532  1  -0.093751  -0.163495  -0.009861  3.963808  -0.006
C  C32  1  0.81945540  0.26464215  0.56181448  1  0.096556  0.116149  0.004821  4.056801  0.006
C  C33  1  0.32759296  0.55954391  0.24994312  1  0.098038  0.115878  0.001521  4.025188  0.002
C  C34  1  0.93042168  0.22435270  0.43630568  1  -0.087761  -0.152911  -0.001249  3.973721  -0.001
C  C35  1  0.43679676  0.43324912  0.21059395  1  -0.087901  -0.152418  -0.000184  3.972973  0.0
C  C36  1  0.82809143  0.52369509  0.50531616  1  -0.089255  -0.152175  0.001487  3.955179  0.001
C  C37  1  0.33326829  0.50309236  0.50978154  1  -0.091301  -0.158528  -0.005766  3.954998  -0.004
C  C38  1  0.76986983  0.41122019  0.59536089  1  0.108655  0.134211  4.6e-05  4.014789  0.0
C  C39  1  0.27729899  0.59312057  0.39682987  1  0.109005  0.135676  0.001424  4.022445  0.002
C  C40  1  0.64026999  0.93226601  0.28645206  1  0.104583  0.124554  0.000183  4.025971  0.0
C  C41  1  0.13790830  0.29474182  0.93910551  1  0.106595  0.12935  0.002686  4.039225  0.004
C  C42  1  0.33492665  0.00298676  0.40480976  1  -0.090563  -0.078562  0.001017  4.00386  0.001
C  C43  1  0.83269536  0.41117744  0.00689206  1  -0.091853  -0.07995  -0.01061  4.000177  -0.006
C  C44  1  0.39025547  0.97782477  0.25568297  1  -0.089401  -0.071814  -0.001022  3.994295  0.0
C  C45  1  0.88799324  0.26331690  0.97881315  1  -0.090189  -0.071504  0.002606  3.995209  0.003
C  C46  1  0.93723815  0.48237327  0.38147232  1  -0.091285  -0.075478  -0.00123  4.006395  -0.001
C  C47  1  0.44085315  0.37847099  0.46918767  1  -0.091276  -0.072854  0.001216  4.009379  0.002
C  C48  1  0.58574301  0.95734982  0.43539227  1  0.096112  0.110516  0.004343  4.058531  0.005
C  C49  1  0.08331457  0.44239758  0.96870807  1  0.097821  0.108774  0.000525  4.035903  0.001
N  N50  1  0.83319258  0.90797075  0.39077804  1  -0.068238  -0.019351  0.009678  3.202076  0.01
N  N51  1  0.33248512  0.39710209  0.92130756  1  -0.074912  -0.027588  -0.051373  3.167837  -0.038
N  N52  1  0.64536018  0.27106065  0.76563065  1  -0.069678  -0.019841  0.009891  3.198063  0.01
N  N53  1  0.15472848  0.76511060  0.25733400  1  -0.076647  -0.030627  -0.034205  3.161629  -0.025
N  N54  1  0.70985282  0.94079390  0.49331308  1  -0.217721  -0.240245  0.033703  3.486832  0.01
N  N55  1  0.20863878  0.49918708  0.95669352  1  -0.24298  -0.214986  -0.017887  3.560906  -0.026
N  N56  1  0.66270191  0.40657628  0.72205749  1  -0.244658  -0.145055  0.009116  3.663274  0.009
N  N57  1  0.17141185  0.71976973  0.39315191  1  -0.24789  -0.14968  -0.010968  3.675294  -0.007
N  N58  1  0.73880299  0.18410432  0.67044951  1  -0.220991  -0.243736  0.035174  3.503331  0.012
N  N59  1  0.24782680  0.66931439  0.16951978  1  -0.238023  -0.218734  -0.016651  3.566033  -0.024
N  N60  1  0.79354929  0.90253240  0.26697190  1  -0.243172  -0.137206  0.008339  3.635157  0.009
N  N61  1  0.29105270  0.27472832  0.91041996  1  -0.251926  -0.15152  -0.020339  3.647666  -0.013
O  O62  1  0.48758346  0.63479618  0.86869853  1  -0.282549  -0.493221  0.053974  2.349511  0.045
O  O63  1  0.99450023  0.85458087  0.64766740  1  -0.281886  -0.496497  0.02015  2.278565  0.009
O  O64  1  0.49039556  0.00674994  0.83274151  1  -0.282129  -0.502218  0.023244  2.306375  0.012
O  O65  1  0.99919575  0.82788731  0.01874699  1  -0.28172  -0.493465  0.053099  2.372842  0.043
O  O66  1  0.30232889  0.88824634  0.93203495  1  -0.287234  -0.455212  0.011333  2.410559  0.007
O  O67  1  0.81235785  0.94179221  0.90740483  1  -0.289409  -0.483797  0.03903  2.353634  0.027
O  O68  1  0.68306793  0.74432764  0.77603014  1  -0.294817  -0.491172  0.037278  2.314757  0.026
O  O69  1  0.18033649  0.74854154  0.76626644  1  -0.290748  -0.458207  0.012235  2.376642  0.008
