# generated using pymatgen
data_MgH16(C3O2)4
_symmetry_space_group_name_H-M   'P 1'
_cell_length_a   7.10712655
_cell_length_b   7.84678034
_cell_length_c   11.92960971
_cell_angle_alpha   90.00020881
_cell_angle_beta   93.62135856
_cell_angle_gamma   89.99966543
_symmetry_Int_Tables_number   1
_chemical_formula_structural   MgH16(C3O2)4
_chemical_formula_sum   'Mg2 H32 C24 O16'
_cell_volume   663.96278155
_cell_formula_units_Z   2
loop_
 _symmetry_equiv_pos_site_id
 _symmetry_equiv_pos_as_xyz
  1  'x, y, z'
loop_
 _atom_site_type_symbol
 _atom_site_label
 _atom_site_symmetry_multiplicity
 _atom_site_fract_x
 _atom_site_fract_y
 _atom_site_fract_z
 _atom_site_occupancy
 _atom_site_hle17_bader_spin_density
 _atom_site_hle17_ddec_charge
 _atom_site_hle17_ddec_spin_density
 _atom_site_hle17_ddec_sum_bond_order
 _atom_site_hle17_magmom
 _atom_site_hse06_10hf_bader_spin_density
 _atom_site_hse06_10hf_ddec_charge
 _atom_site_hse06_10hf_ddec_spin_density
 _atom_site_hse06_10hf_ddec_sum_bond_order
 _atom_site_hse06_10hf_magmom
 _atom_site_hse06_bader_spin_density
 _atom_site_hse06_ddec_charge
 _atom_site_hse06_ddec_spin_density
 _atom_site_hse06_ddec_sum_bond_order
 _atom_site_hse06_magmom
 _atom_site_pbe_bader_spin_density
 _atom_site_pbe_cm5_charge
 _atom_site_pbe_ddec_charge
 _atom_site_pbe_ddec_spin_density
 _atom_site_pbe_ddec_sum_bond_order
 _atom_site_pbe_magmom
Mg  Mg0  1  0.00000204  0.50000017  0.50000059  1  0  1.474637  0  1.174177  0  0  1.363155  0  1.431421  0  0  1.388083  0  1.394386  0  0  0.81942  1.345482  0  1.457358  0
Mg  Mg1  1  0.49999656  0.99999884  0.49999916  1  0  1.474655  0  1.174172  0  0  1.363206  0  1.431364  0  0  1.388126  0  1.394335  0  0  0.819425  1.345537  0  1.457306  0
H  H2  1  0.41603148  0.60850148  0.69667085  1  0  0.099723  0  0.940664  0  0  0.109552  0  1.00612  0  0  0.112  0  1.003764  0  0  0.113965  0.107772  0  1.00796  0
H  H3  1  0.08397554  0.10849867  0.30333833  1  0  0.099882  0  0.940402  0  0  0.109607  0  1.006005  0  0  0.112057  0  1.003648  0  0  0.114011  0.107833  0  1.007838  0
H  H4  1  0.58397053  0.39149624  0.30332997  1  0  0.099695  0  0.940657  0  0  0.109535  0  1.006129  0  0  0.111978  0  1.003768  0  0  0.113965  0.107756  0  1.007967  0
H  H5  1  0.91602081  0.89150287  0.69666149  1  0  0.099868  0  0.940395  0  0  0.109583  0  1.006014  0  0  0.112036  0  1.003658  0  0  0.114001  0.107809  0  1.007843  0
H  H6  1  0.53845215  0.80053290  0.73538022  1  0  0.094895  0  0.935769  0  0  0.10339  0  1.003161  0  0  0.10532  0  1.001688  0  0  0.113792  0.102033  0  1.004306  0
H  H7  1  0.96155579  0.30052788  0.26462826  1  0  0.094914  0  0.935726  0  0  0.103465  0  1.003089  0  0  0.105396  0  1.001619  0  0  0.113836  0.102107  0  1.004237  0
H  H8  1  0.46154558  0.19946736  0.26461881  1  0  0.094858  0  0.935768  0  0  0.103349  0  1.003191  0  0  0.105275  0  1.001712  0  0  0.113764  0.101992  0  1.004335  0
H  H9  1  0.03843920  0.69947111  0.73537321  1  0  0.094911  0  0.935759  0  0  0.103466  0  1.0031  0  0  0.105401  0  1.001632  0  0  0.113837  0.102105  0  1.004247  0
H  H10  1  0.32880488  0.70107777  0.86872597  1  0  0.107038  0  1.005137  0  0  0.113023  0  1.072565  0  0  0.116561  0  1.070806  0  0  0.101196  0.110483  0  1.073866  0
H  H11  1  0.17120406  0.20107476  0.13127340  1  0  0.107011  0  1.005105  0  0  0.112941  0  1.072573  0  0  0.116475  0  1.070822  0  0  0.101168  0.11041  0  1.073877  0
H  H12  1  0.67119847  0.29892505  0.13127237  1  0  0.107035  0  1.005114  0  0  0.112982  0  1.072577  0  0  0.116518  0  1.070821  0  0  0.101191  0.11045  0  1.073878  0
H  H13  1  0.82879101  0.79893060  0.86873058  1  0  0.107057  0  1.005226  0  0  0.113057  0  1.072616  0  0  0.116591  0  1.070863  0  0  0.101183  0.110518  0  1.073924  0
H  H14  1  0.80679359  0.37629642  0.95247067  1  0  0.108481  0  0.945217  0  0  0.12129  0  1.001831  0  0  0.124487  0  1.000525  0  0  0.105606  0.119013  0  1.002831  0
H  H15  1  0.69320542  0.87629021  0.04753773  1  0  0.108474  0  0.945113  0  0  0.121305  0  1.001713  0  0  0.124506  0  1.000407  0  0  0.105605  0.119025  0  1.002714  0
H  H16  1  0.19321262  0.62371022  0.04752941  1  0  0.108515  0  0.945229  0  0  0.121291  0  1.001868  0  0  0.124489  0  1.000561  0  0  0.105598  0.119013  0  1.002868  0
H  H17  1  0.30678819  0.12370878  0.95246454  1  0  0.108534  0  0.945151  0  0  0.1213  0  1.00183  0  0  0.124497  0  1.000527  0  0  0.105608  0.119024  0  1.002826  0
H  H18  1  0.94057636  0.80214393  0.28588208  1  0  0.083285  0  0.961805  0  0  0.098489  0  1.028914  0  0  0.099695  0  1.028513  0  0  0.096934  0.097427  0  1.029456  0
H  H19  1  0.55941596  0.30215131  0.71412263  1  0  0.083258  0  0.961761  0  0  0.098492  0  1.028816  0  0  0.099754  0  1.028351  0  0  0.096966  0.097428  0  1.029358  0
H  H20  1  0.05942142  0.19785634  0.71411862  1  0  0.083334  0  0.961754  0  0  0.098537  0  1.028855  0  0  0.099743  0  1.028455  0  0  0.096951  0.097473  0  1.029399  0
H  H21  1  0.44058597  0.69784641  0.28587567  1  0  0.083245  0  0.961783  0  0  0.098451  0  1.02886  0  0  0.099722  0  1.028386  0  0  0.096963  0.097389  0  1.029401  0
H  H22  1  0.77556083  0.67761661  0.20155113  1  0  0.065935  0  0.962488  0  0  0.081489  0  1.035611  0  0  0.081035  0  1.037297  0  0  0.088371  0.081695  0  1.034536  0
H  H23  1  0.72443363  0.17762106  0.79845168  1  0  0.065912  0  0.962487  0  0  0.081472  0  1.035594  0  0  0.081016  0  1.03729  0  0  0.088382  0.08168  0  1.034517  0
H  H24  1  0.22443977  0.32238366  0.79844965  1  0  0.065937  0  0.962489  0  0  0.08149  0  1.035613  0  0  0.081036  0  1.037297  0  0  0.088374  0.081695  0  1.034538  0
H  H25  1  0.27556833  0.82237538  0.20154745  1  0  0.06589  0  0.962523  0  0  0.08149  0  1.035583  0  0  0.081035  0  1.037277  0  0  0.088389  0.081699  0  1.034505  0
H  H26  1  0.00419593  0.59297639  0.24214874  1  0  0.087907  0  0.951771  0  0  0.101749  0  1.023496  0  0  0.103098  0  1.021955  0  0  0.100504  0.100652  0  1.024719  0
H  H27  1  0.49580109  0.09298046  0.75785260  1  0  0.08803  0  0.951601  0  0  0.101829  0  1.023368  0  0  0.103185  0  1.021832  0  0  0.100545  0.100734  0  1.02459  0
H  H28  1  0.99580462  0.40702515  0.75785036  1  0  0.087904  0  0.951786  0  0  0.10175  0  1.0235  0  0  0.1031  0  1.021959  0  0  0.100501  0.100652  0  1.024723  0
H  H29  1  0.50420088  0.90701853  0.24214654  1  0  0.088006  0  0.951592  0  0  0.101798  0  1.023367  0  0  0.103153  0  1.021835  0  0  0.100545  0.100705  0  1.024587  0
H  H30  1  0.73829708  0.67676601  0.40795378  1  0  0.383691  0  0.880383  0  0  0.358008  0  0.950172  0  0  0.369032  0  0.937718  0  0  0.310956  0.350166  0  0.959074  0
H  H31  1  0.76170026  0.17677925  0.59205078  1  0  0.383626  0  0.880419  0  0  0.357905  0  0.950254  0  0  0.368931  0  0.937795  0  0  0.31094  0.350072  0  0.959127  0
H  H32  1  0.26170212  0.32323299  0.59204696  1  0  0.383662  0  0.880423  0  0  0.357982  0  0.950208  0  0  0.369006  0  0.937756  0  0  0.310949  0.350141  0  0.959106  0
H  H33  1  0.23830026  0.82321719  0.40794748  1  0  0.383588  0  0.880429  0  0  0.357877  0  0.950251  0  0  0.368903  0  0.937794  0  0  0.31093  0.350045  0  0.959118  0
C  C34  1  0.66044941  0.65156155  0.60544277  1  0  0.728481  0  3.815281  0  0  0.674083  0  4.121848  0  0  0.707141  0  4.111995  0  0  0.233116  0.651639  0  4.128006  0
C  C35  1  0.83957219  0.15157960  0.39456658  1  0  0.728557  0  3.815294  0  0  0.674081  0  4.122031  0  0  0.707144  0  4.112175  0  0  0.233119  0.651638  0  4.12819  0
C  C36  1  0.33955253  0.34843745  0.39455553  1  0  0.728442  0  3.815201  0  0  0.674067  0  4.121768  0  0  0.707116  0  4.111918  0  0  0.233116  0.651622  0  4.127927  0
C  C37  1  0.16042850  0.84842067  0.60543672  1  0  0.728479  0  3.815293  0  0  0.674013  0  4.122004  0  0  0.707081  0  4.112153  0  0  0.233072  0.651567  0  4.128162  0
C  C38  1  0.55720265  0.66568003  0.71328718  1  0  -0.086389  0  3.613271  0  0  -0.144787  0  3.876182  0  0  -0.141503  0  3.875642  0  0  -0.067156  -0.147206  0  3.876728  0
C  C39  1  0.94280040  0.16568033  0.28671752  1  0  -0.086525  0  3.612797  0  0  -0.144956  0  3.876086  0  0  -0.141676  0  3.875539  0  0  -0.067218  -0.147373  0  3.876635  0
C  C40  1  0.44279790  0.33432151  0.28671192  1  0  -0.086245  0  3.613186  0  0  -0.144676  0  3.876201  0  0  -0.141361  0  3.875618  0  0  -0.067105  -0.147095  0  3.876747  0
C  C41  1  0.05719603  0.83431738  0.71328483  1  0  -0.086449  0  3.612785  0  0  -0.144875  0  3.876064  0  0  -0.141616  0  3.875543  0  0  -0.067173  -0.147287  0  3.876606  0
C  C42  1  0.57597561  0.54134417  0.89802650  1  0  0.238533  0  3.826656  0  0  0.22898  0  4.086432  0  0  0.23769  0  4.104152  0  0  0.068547  0.222846  0  4.074427  0
C  C43  1  0.92403383  0.04134222  0.10197725  1  0  0.238556  0  3.826436  0  0  0.229032  0  4.086241  0  0  0.237735  0  4.103966  0  0  0.068548  0.222909  0  4.074227  0
C  C44  1  0.42402917  0.45865609  0.10197271  1  0  0.238607  0  3.82673  0  0  0.229075  0  4.086484  0  0  0.237778  0  4.104216  0  0  0.068579  0.222942  0  4.07448  0
C  C45  1  0.07596677  0.95865422  0.89802353  1  0  0.238501  0  3.826587  0  0  0.22908  0  4.086242  0  0  0.23779  0  4.103959  0  0  0.068622  0.222947  0  4.074237  0
C  C46  1  0.40328699  0.61128677  0.92497160  1  0  -0.190741  0  3.790087  0  0  -0.20776  0  4.040594  0  0  -0.211513  0  4.060451  0  0  -0.114102  -0.20512  0  4.027183  0
C  C47  1  0.09671403  0.11128128  0.07502653  1  0  -0.19078  0  3.790258  0  0  -0.207717  0  4.040789  0  0  -0.211466  0  4.060648  0  0  -0.114097  -0.205095  0  4.027383  0
C  C48  1  0.59671210  0.38871605  0.07502579  1  0  -0.190831  0  3.790209  0  0  -0.207814  0  4.04075  0  0  -0.211565  0  4.060608  0  0  -0.114135  -0.205188  0  4.027347  0
C  C49  1  0.90327535  0.88871517  0.92497563  1  0  -0.190853  0  3.790234  0  0  -0.207895  0  4.040718  0  0  -0.211649  0  4.060584  0  0  -0.114169  -0.205261  0  4.027308  0
C  C50  1  0.67231017  0.43057514  0.97354913  1  0  -0.154834  0  3.766043  0  0  -0.174754  0  4.016884  0  0  -0.177461  0  4.035667  0  0  -0.103052  -0.172857  0  4.004233  0
C  C51  1  0.82770100  0.93057958  0.02645384  1  0  -0.154769  0  3.765879  0  0  -0.174697  0  4.016752  0  0  -0.177408  0  4.035545  0  0  -0.103002  -0.172798  0  4.004088  0
C  C52  1  0.32769458  0.56942767  0.02644924  1  0  -0.154939  0  3.766079  0  0  -0.174822  0  4.016947  0  0  -0.177527  0  4.035732  0  0  -0.103087  -0.172924  0  4.004289  0
C  C53  1  0.17229827  0.06942451  0.97354941  1  0  -0.154937  0  3.766058  0  0  -0.17485  0  4.016891  0  0  -0.177558  0  4.035677  0  0  -0.103096  -0.172952  0  4.004239  0
C  C54  1  0.88851448  0.67284003  0.26860630  1  0  -0.013912  0  3.619968  0  0  -0.111128  0  3.892035  0  0  -0.104648  0  3.89506  0  0  -0.152626  -0.115314  0  3.890068  0
C  C55  1  0.61148147  0.17284723  0.73139822  1  0  -0.013938  0  3.619596  0  0  -0.111113  0  3.891606  0  0  -0.104685  0  3.894611  0  0  -0.152631  -0.115302  0  3.889639  0
C  C56  1  0.11148471  0.32716024  0.73139444  1  0  -0.013966  0  3.619924  0  0  -0.111175  0  3.891972  0  0  -0.104696  0  3.894998  0  0  -0.15264  -0.11536  0  3.890006  0
C  C57  1  0.38852049  0.82714921  0.26860092  1  0  -0.013893  0  3.619618  0  0  -0.111047  0  3.891578  0  0  -0.104628  0  3.89458  0  0  -0.152622  -0.115236  0  3.889608  0
O  O58  1  0.78678679  0.53927694  0.60188132  1  0  -0.696371  0  2.038945  0  0  -0.639039  0  2.283605  0  0  -0.662139  0  2.272438  0  0  -0.351189  -0.623061  0  2.290912  0
O  O59  1  0.71322001  0.03928038  0.39812738  1  0  -0.696493  0  2.038674  0  0  -0.639003  0  2.283185  0  0  -0.66211  0  2.272018  0  0  -0.351218  -0.62302  0  2.290494  0
O  O60  1  0.21321522  0.46072588  0.39811949  1  0  -0.696368  0  2.038904  0  0  -0.639013  0  2.283521  0  0  -0.662114  0  2.272361  0  0  -0.35118  -0.623035  0  2.290829  0
O  O61  1  0.28677640  0.96072371  0.60187412  1  0  -0.696463  0  2.038591  0  0  -0.639011  0  2.28316  0  0  -0.662114  0  2.271991  0  0  -0.351226  -0.623029  0  2.29047  0
O  O62  1  0.61005137  0.75132720  0.52456105  1  0  -0.710577  0  2.018773  0  0  -0.652456  0  2.257682  0  0  -0.67694  0  2.246206  0  0  -0.334601  -0.635395  0  2.265159  0
O  O63  1  0.88995685  0.25133017  0.47544648  1  0  -0.710674  0  2.019425  0  0  -0.652442  0  2.258292  0  0  -0.676935  0  2.24682  0  0  -0.334601  -0.63539  0  2.265766  0
O  O64  1  0.38994779  0.24867052  0.47543885  1  0  -0.710578  0  2.01875  0  0  -0.652471  0  2.257678  0  0  -0.676953  0  2.246203  0  0  -0.334616  -0.635409  0  2.265153  0
O  O65  1  0.11004665  0.74866628  0.52455689  1  0  -0.710583  0  2.01933  0  0  -0.652396  0  2.258251  0  0  -0.676889  0  2.246779  0  0  -0.334543  -0.635342  0  2.265722  0
O  O66  1  0.66243648  0.57578964  0.80039252  1  0  -0.275254  0  2.391464  0  0  -0.204456  0  2.629075  0  0  -0.221826  0  2.632857  0  0  -0.184509  -0.192095  0  2.626121  0
O  O67  1  0.83757139  0.07578871  0.19961294  1  0  -0.275234  0  2.391218  0  0  -0.204513  0  2.628932  0  0  -0.221874  0  2.632704  0  0  -0.184535  -0.19216  0  2.62598  0
O  O68  1  0.33756687  0.42421063  0.19960582  1  0  -0.27524  0  2.39144  0  0  -0.20449  0  2.629092  0  0  -0.221868  0  2.632869  0  0  -0.184502  -0.192126  0  2.626134  0
O  O69  1  0.16242650  0.92421156  0.80039112  1  0  -0.275204  0  2.391373  0  0  -0.204501  0  2.629037  0  0  -0.22186  0  2.632817  0  0  -0.184543  -0.192142  0  2.62608  0
O  O70  1  0.82125612  0.59696224  0.36847369  1  0  -0.607158  0  2.19743  0  0  -0.537238  0  2.439694  0  0  -0.554064  0  2.426493  0  0  -0.435444  -0.525392  0  2.448591  0
O  O71  1  0.67873742  0.09697105  0.63152809  1  0  -0.607154  0  2.197249  0  0  -0.53723  0  2.439581  0  0  -0.554044  0  2.426378  0  0  -0.435512  -0.525418  0  2.448546  0
O  O72  1  0.17874587  0.40303803  0.63152629  1  0  -0.607103  0  2.197397  0  0  -0.53719  0  2.439662  0  0  -0.554015  0  2.426462  0  0  -0.435445  -0.525343  0  2.448558  0
O  O73  1  0.32126170  0.90302539  0.36847013  1  0  -0.60709  0  2.197185  0  0  -0.537199  0  2.439527  0  0  -0.554011  0  2.42633  0  0  -0.435517  -0.5254  0  2.448526  0
