# generated using pymatgen
data_CuH11C12(NO3)2
_symmetry_space_group_name_H-M   'P 1'
_cell_length_a   8.60047466
_cell_length_b   13.21278746
_cell_length_c   15.25954926
_cell_angle_alpha   115.64508664
_cell_angle_beta   95.83172523
_cell_angle_gamma   90.00173644
_symmetry_Int_Tables_number   1
_chemical_formula_structural   CuH11C12(NO3)2
_chemical_formula_sum   'Cu4 H44 C48 N8 O24'
_cell_volume   1553.25812718
_cell_formula_units_Z   4
loop_
 _symmetry_equiv_pos_site_id
 _symmetry_equiv_pos_as_xyz
  1  'x, y, z'
loop_
 _atom_site_type_symbol
 _atom_site_label
 _atom_site_symmetry_multiplicity
 _atom_site_fract_x
 _atom_site_fract_y
 _atom_site_fract_z
 _atom_site_occupancy
 _atom_site_hle17_ddec_charge
 _atom_site_hle17_ddec_spin_density
 _atom_site_hle17_ddec_sum_bond_order
 _atom_site_hle17_magmom
 _atom_site_hse06_10hf_ddec_charge
 _atom_site_hse06_10hf_ddec_spin_density
 _atom_site_hse06_10hf_ddec_sum_bond_order
 _atom_site_hse06_10hf_magmom
 _atom_site_hse06_ddec_charge
 _atom_site_hse06_ddec_spin_density
 _atom_site_hse06_ddec_sum_bond_order
 _atom_site_hse06_magmom
 _atom_site_pbe_cm5_charge
 _atom_site_pbe_ddec_charge
 _atom_site_pbe_ddec_spin_density
 _atom_site_pbe_ddec_sum_bond_order
 _atom_site_pbe_magmom
Cu  Cu0  1  0.46252285  0.99531266  0.57885935  1  0.827586  0.661939  1.905935  0.477  0.814422  0.794512  2.317755  0.63  0.92059  0.886867  2.232717  0.733  0.674324  0.74741  0.687982  2.376746  0.534
Cu  Cu1  1  0.03744875  0.41647240  0.42111908  1  0.828367  0.66166  1.904171  0.477  0.814523  0.794513  2.317376  0.63  0.92144  0.886874  2.230994  0.733  0.674182  0.747068  0.687952  2.3771  0.534
Cu  Cu2  1  0.53747596  0.00468971  0.42114361  1  0.827503  -0.661899  1.905842  -0.477  0.814208  -0.794488  2.317808  -0.63  0.920389  -0.886845  2.232713  -0.733  0.674226  0.747099  -0.687953  2.376958  -0.534
Cu  Cu3  1  0.96256105  0.58351988  0.57887614  1  0.828159  -0.661665  1.904474  -0.477  0.814354  -0.794508  2.317556  -0.63  0.921299  -0.886863  2.231134  -0.733  0.674153  0.746924  -0.687968  2.377284  -0.534
H  H4  1  0.05273306  0.86172809  0.28982674  1  0.093533  0.001113  0.928274  0.001  0.108244  0.000826  0.984971  0.001  0.108919  0.000582  0.985974  0.001  0.093895  0.107713  0.000919  0.984202  0.001
H  H5  1  0.44711359  0.57173562  0.71018480  1  0.093353  0.001111  0.927514  0.001  0.1082  0.000824  0.984509  0.001  0.108906  0.00058  0.985482  0.001  0.093956  0.107653  0.000916  0.983734  0.001
H  H6  1  0.94726482  0.13827766  0.71018005  1  0.093409  -0.001114  0.928346  -0.001  0.108224  -0.000827  0.984943  -0.001  0.1089  -0.000582  0.985943  -0.001  0.093892  0.107692  -0.000919  0.984175  -0.001
H  H7  1  0.55288027  0.42826254  0.28981633  1  0.093353  -0.00111  0.927503  -0.001  0.108182  -0.000824  0.984511  -0.001  0.108885  -0.00058  0.985488  -0.001  0.093966  0.107623  -0.000917  0.983752  -0.001
H  H8  1  0.97449628  0.96940496  0.38952572  1  0.122975  -0.00011  0.929236  0.0  0.135339  -5.5e-05  0.990052  0.0  0.137471  -2.9e-05  0.989856  0.0  0.106253  0.13395  -7e-05  0.99008  0.0
H  H9  1  0.52547835  0.57989611  0.61056608  1  0.122966  -0.000109  0.929233  0.0  0.135588  -5.4e-05  0.99015  0.0  0.137744  -2.8e-05  0.989897  0.0  0.106671  0.134187  -6.9e-05  0.990183  0.0
H  H10  1  0.02550989  0.03060248  0.61048149  1  0.123045  0.000108  0.929195  0.0  0.135357  5.5e-05  0.990082  0.0  0.137486  2.9e-05  0.98989  0.0  0.106252  0.13397  7e-05  0.990105  0.0
H  H11  1  0.47452399  0.42010627  0.38943905  1  0.122967  0.000109  0.929208  0.0  0.135586  5.4e-05  0.990125  0.0  0.137741  2.8e-05  0.989875  0.0  0.106677  0.134183  6.8e-05  0.99016  0.0
H  H12  1  0.17258754  0.13211752  0.89491428  1  0.10905  -2.6e-05  0.943168  0.0  0.118076  -1.8e-05  1.002031  0.0  0.122749  -1.3e-05  0.998891  0.0  0.108859  0.11468  -2.1e-05  1.004544  0.0
H  H13  1  0.32744174  0.23741157  0.10499263  1  0.109064  -2.5e-05  0.941961  0.0  0.117514  -1.8e-05  1.001472  0.0  0.122153  -1.3e-05  0.99836  0.0  0.108639  0.114136  -2.1e-05  1.003969  0.0
H  H14  1  0.82740698  0.86787306  0.10508210  1  0.109088  2.3e-05  0.943125  0.0  0.118078  1.8e-05  1.00203  0.0  0.122751  1.3e-05  0.99889  0.0  0.108852  0.114687  2.1e-05  1.004536  0.0
H  H15  1  0.67256262  0.76258742  0.89500283  1  0.109146  2.3e-05  0.941958  0.0  0.117561  1.8e-05  1.001504  0.0  0.1222  1.3e-05  0.998393  0.0  0.108688  0.114181  2.1e-05  1.004002  0.0
H  H16  1  0.21466036  0.74594167  0.41284586  1  0.114458  0.000127  0.930697  0.0  0.130728  8.4e-05  0.986173  0.0  0.132128  3.1e-05  0.986728  0.0  0.105702  0.129824  0.00012  0.985686  0.0
H  H17  1  0.28532240  0.33307744  0.58717202  1  0.11406  0.000122  0.930378  0.0  0.130063  8.2e-05  0.986317  0.0  0.131435  3e-05  0.986936  0.0  0.105572  0.129174  0.000118  0.985777  0.0
H  H18  1  0.78534663  0.25406072  0.58715821  1  0.114461  -0.000126  0.930717  0.0  0.130678  -8.4e-05  0.986279  0.0  0.132064  -3.1e-05  0.986845  0.0  0.10571  0.129776  -0.00012  0.985798  0.0
H  H19  1  0.71466731  0.66692993  0.41282641  1  0.114128  -0.000123  0.930382  0.0  0.130082  -8.2e-05  0.986311  0.0  0.131451  -3e-05  0.986936  0.0  0.105578  0.129197  -0.000118  0.985777  0.0
H  H20  1  0.09694805  0.66484221  0.30160444  1  0.093623  -0.000862  0.94963  -0.001  0.104809  -0.000541  1.014278  -0.001  0.106592  -0.00038  1.013498  0.0  0.090801  0.103466  -0.000608  1.014863  -0.001
H  H21  1  0.40301057  0.36318434  0.69840768  1  0.093643  -0.000866  0.949306  -0.001  0.104675  -0.000541  1.014276  -0.001  0.106464  -0.00038  1.013505  0.0  0.090873  0.103315  -0.000608  1.014852  -0.001
H  H22  1  0.90304979  0.33516351  0.69839841  1  0.093624  0.000861  0.949664  0.001  0.104895  0.00054  1.014243  0.001  0.106673  0.00038  1.013456  0.0  0.09084  0.103558  0.000607  1.014828  0.001
H  H23  1  0.59697739  0.63681296  0.30159281  1  0.09367  0.000863  0.949376  0.001  0.104667  0.00054  1.014332  0.001  0.106458  0.00038  1.013558  0.0  0.090897  0.103313  0.000608  1.014911  0.001
H  H24  1  0.98010606  0.85528549  0.48145083  1  0.077102  -5.9e-05  0.937978  0.0  0.092634  -7.6e-05  1.000739  0.0  0.094102  -4.6e-05  0.999559  0.0  0.092706  0.091615  -9.7e-05  1.001674  0.0
H  H25  1  0.51985652  0.37383960  0.51855574  1  0.077442  -5.7e-05  0.937644  0.0  0.092869  -7.6e-05  1.000521  0.0  0.094345  -4.5e-05  0.999286  0.0  0.092811  0.091848  -9.7e-05  1.001479  0.0
H  H26  1  0.01990356  0.14472111  0.51855560  1  0.077055  6e-05  0.937941  0.0  0.092535  7.6e-05  1.000791  0.0  0.093999  4.6e-05  0.999617  0.0  0.092632  0.091512  9.7e-05  1.00173  0.0
H  H27  1  0.48014707  0.62616446  0.48144812  1  0.077444  5.7e-05  0.937773  0.0  0.092895  7.6e-05  1.000604  0.0  0.094371  4.5e-05  0.999372  0.0  0.092819  0.091876  9.7e-05  1.001557  0.0
H  H28  1  0.86987523  0.78444925  0.36575260  1  0.075477  -0.000624  0.938626  -0.001  0.092738  -0.000394  0.99877  0.0  0.092456  -0.00023  1.000459  0.0  0.09143  0.093042  -0.00049  0.99756  -0.001
H  H29  1  0.63010994  0.41862629  0.63423818  1  0.074974  -0.000624  0.939526  -0.001  0.092863  -0.000395  0.998805  0.0  0.092568  -0.000231  1.0005  0.0  0.091585  0.093167  -0.000491  0.99762  -0.001
H  H30  1  0.13012397  0.21555901  0.63425389  1  0.075399  0.000625  0.938672  0.001  0.092684  0.000395  0.998814  0.0  0.0924  0.000231  1.000505  0.0  0.091428  0.092989  0.00049  0.997602  0.001
H  H31  1  0.36988275  0.58137105  0.36576783  1  0.074958  0.000624  0.939581  0.001  0.092844  0.000395  0.998887  0.0  0.092552  0.000231  1.000578  0.0  0.091575  0.093148  0.00049  0.997703  0.001
H  H32  1  0.32810290  0.14828363  0.76970493  1  0.077584  -3.1e-05  0.942889  0.0  0.088828  -4.3e-05  1.001311  0.0  0.092278  -5.3e-05  0.998539  0.0  0.112593  0.086173  -2.8e-05  1.003577  0.0
H  H33  1  0.17183949  0.37871503  0.23016464  1  0.077622  -3.2e-05  0.942479  0.0  0.088543  -4.3e-05  1.001426  0.0  0.092078  -5.2e-05  0.998519  0.0  0.112501  0.085842  -2.8e-05  1.003735  0.0
H  H34  1  0.67189658  0.85171117  0.23029460  1  0.077632  3.5e-05  0.942943  0.0  0.088871  4.3e-05  1.00136  0.0  0.092325  5.3e-05  0.998585  0.0  0.112608  0.086215  2.8e-05  1.003622  0.0
H  H35  1  0.82816368  0.62128312  0.76983306  1  0.077553  3.4e-05  0.942511  0.0  0.088499  4.3e-05  1.001436  0.0  0.092034  5.3e-05  0.998529  0.0  0.112467  0.085794  2.7e-05  1.003745  0.0
H  H36  1  0.37496295  0.80499441  0.63236479  1  0.086754  3e-06  0.929633  0.0  0.097344  -1.1e-05  0.988971  0.0  0.100961  -2.4e-05  0.985856  0.0  0.117668  0.094543  3e-06  0.991484  0.0
H  H37  1  0.12475033  0.17268011  0.36745962  1  0.087077  2e-06  0.931147  0.0  0.09791  -1.1e-05  0.990075  0.0  0.101464  -2.4e-05  0.98703  0.0  0.117644  0.095144  2e-06  0.992556  0.0
H  H38  1  0.62504821  0.19500041  0.36763473  1  0.086777  0.0  0.929645  0.0  0.097337  1.1e-05  0.989003  0.0  0.100951  2.4e-05  0.985897  0.0  0.117639  0.094543  -3e-06  0.991508  0.0
H  H39  1  0.87526695  0.82731893  0.63254180  1  0.087169  2e-06  0.931105  0.0  0.097907  1.1e-05  0.990157  0.0  0.101454  2.4e-05  0.987112  0.0  0.117646  0.09514  -3e-06  0.992633  0.0
H  H40  1  0.22102956  0.77285503  0.74883538  1  0.122431  -6.4e-05  0.971583  0.0  0.129878  -5.1e-05  1.037116  0.0  0.134581  -1.2e-05  1.034627  0.0  0.107847  0.126426  -8.2e-05  1.039217  0.0
H  H41  1  0.27886798  0.02418330  0.25106147  1  0.12124  -6.4e-05  0.970873  0.0  0.12896  -5.1e-05  1.036387  0.0  0.133601  -1.3e-05  1.03397  0.0  0.107472  0.125557  -8.2e-05  1.038441  0.0
H  H42  1  0.77897576  0.22713978  0.25116382  1  0.122539  6.2e-05  0.971539  0.0  0.129978  5.1e-05  1.037072  0.0  0.134674  1.2e-05  1.03459  0.0  0.10787  0.126532  8.2e-05  1.039175  0.0
H  H43  1  0.72113978  0.97581402  0.74893355  1  0.121238  6.2e-05  0.97085  0.0  0.12897  5.1e-05  1.03634  0.0  0.13361  1.2e-05  1.033924  0.0  0.107464  0.125564  8.2e-05  1.038397  0.0
H  H44  1  0.08642775  0.84854042  0.89671633  1  0.080864  -1.1e-05  0.936421  0.0  0.089132  -0.0  1.005643  0.0  0.093038  -2e-06  1.001102  0.0  0.115794  0.086272  2e-06  1.008996  0.0
H  H45  1  0.41332573  0.95198713  0.10329597  1  0.080756  -1.1e-05  0.936297  0.0  0.089375  -0.0  1.005364  0.0  0.093311  -2e-06  1.000802  0.0  0.115635  0.086499  2e-06  1.008715  0.0
H  H46  1  0.91356703  0.15145436  0.10328032  1  0.080927  1.2e-05  0.936287  0.0  0.089159  0.0  1.005513  0.0  0.093066  2e-06  1.000971  0.0  0.115807  0.086302  -2e-06  1.008868  0.0
H  H47  1  0.58667611  0.04800932  0.89669644  1  0.080799  1.1e-05  0.936295  0.0  0.089407  0.0  1.005346  0.0  0.093343  2e-06  1.000791  0.0  0.115665  0.086532  -2e-06  1.008699  0.0
C  C48  1  0.05382504  0.63427800  0.42342401  1  0.69248  -0.00044  3.800974  -0.001  0.659012  -0.000186  4.103877  0.0  0.700581  -0.000232  4.096777  0.0  0.216153  0.630673  -0.00012  4.108305  0.0
C  C49  1  0.44613251  0.21081563  0.57660352  1  0.693421  -0.00045  3.799875  -0.001  0.659152  -0.000186  4.104041  0.0  0.700712  -0.000231  4.096882  0.0  0.216511  0.630813  -0.000118  4.108478  0.0
C  C50  1  0.94617927  0.36571934  0.57657606  1  0.692938  0.000443  3.800338  0.001  0.659299  0.000187  4.103466  0.0  0.700853  0.000232  4.096362  0.0  0.21622  0.630961  0.000116  4.107904  0.0
C  C51  1  0.55385315  0.78918251  0.42339585  1  0.693301  0.00045  3.800255  0.001  0.659065  0.000188  4.104302  0.0  0.700628  0.000232  4.097138  0.0  0.216501  0.630732  0.000119  4.108739  0.0
C  C52  1  0.05171941  0.89819678  0.36955161  1  -0.25575  0.000518  3.645238  0.0  -0.296152  0.000311  3.898667  0.0  -0.304857  0.000226  3.908697  0.0  -0.16111  -0.288858  0.000345  3.890668  0.0
C  C53  1  0.44823507  0.52856413  0.63046850  1  -0.254899  0.000503  3.646203  0.0  -0.296852  0.000301  3.900872  0.0  -0.30559  0.000218  3.91085  0.0  -0.161682  -0.289484  0.000335  3.892833  0.0
C  C54  1  0.94828393  0.10180309  0.63045329  1  -0.255773  -0.000504  3.645192  0.0  -0.296233  -0.00031  3.898683  0.0  -0.304935  -0.000225  3.908707  0.0  -0.161153  -0.288942  -0.000344  3.890681  0.0
C  C55  1  0.55176971  0.47143994  0.36953673  1  -0.254821  -0.000507  3.646318  0.0  -0.296801  -0.0003  3.900909  0.0  -0.305537  -0.000219  3.910894  0.0  -0.161682  -0.289422  -0.000333  3.892876  0.0
C  C56  1  0.21561924  0.05808272  0.83747106  1  -0.144071  0.000397  3.710881  0.0  -0.163565  0.000141  3.952682  0.0  -0.169719  0.000172  3.971799  0.0  -0.077164  -0.159651  0.000131  3.939915  0.0
C  C57  1  0.28433931  0.22079011  0.16242758  1  -0.142953  0.000375  3.709685  0.0  -0.162126  0.000141  3.951565  0.0  -0.168248  0.000172  3.970647  0.0  -0.076881  -0.158234  0.00013  3.938845  0.0
C  C58  1  0.78438131  0.94191041  0.16252857  1  -0.144183  -0.000321  3.71093  0.0  -0.163683  -0.000142  3.952799  0.0  -0.169834  -0.000172  3.97191  0.0  -0.077256  -0.159763  -0.000131  3.940036  0.0
C  C59  1  0.71566849  0.77920722  0.83757072  1  -0.14305  -0.000328  3.709694  0.0  -0.16215  -0.000143  3.951661  0.0  -0.168305  -0.000172  3.97071  0.0  -0.076876  -0.158258  -0.000131  3.938939  0.0
C  C60  1  0.21641308  0.94388631  0.41774218  1  0.684089  0.000471  3.811022  0.0  0.650741  0.000483  4.112349  0.001  0.691509  0.000457  4.106603  0.001  0.213282  0.622957  0.000449  4.115859  0.001
C  C61  1  0.28356533  0.52608421  0.58223848  1  0.682636  0.000468  3.81226  0.0  0.650414  0.000478  4.112302  0.001  0.691186  0.000453  4.106664  0.001  0.21353  0.622613  0.000441  4.115769  0.001
C  C62  1  0.78358342  0.05611607  0.58226328  1  0.683901  -0.000478  3.811236  0.0  0.650539  -0.00048  4.112572  -0.001  0.691307  -0.000455  4.106825  -0.001  0.213187  0.622759  -0.000447  4.116078  -0.001
C  C63  1  0.71643451  0.47391647  0.41776129  1  0.682472  -0.000466  3.81255  0.0  0.650449  -0.000475  4.112269  -0.001  0.691227  -0.000452  4.10663  -0.001  0.213523  0.622649  -0.000443  4.115739  -0.001
C  C64  1  0.09388018  0.71406097  0.38051474  1  -0.263437  0.001079  3.666911  0.001  -0.301591  0.000555  3.914225  0.001  -0.309993  0.000286  3.923054  0.0  -0.166811  -0.294637  0.00068  3.907317  0.001
C  C65  1  0.40608461  0.33349500  0.61950284  1  -0.262338  0.001092  3.663858  0.001  -0.300379  0.000548  3.912279  0.001  -0.308805  0.000281  3.921178  0.0  -0.167039  -0.293344  0.00067  3.905237  0.001
C  C66  1  0.90612114  0.28594393  0.61949061  1  -0.263496  -0.001076  3.666833  -0.001  -0.3017  -0.000554  3.91434  -0.001  -0.310064  -0.000283  3.92314  0.0  -0.166822  -0.294755  -0.000678  3.907443  -0.001
C  C67  1  0.59390013  0.66650732  0.38049541  1  -0.262432  -0.001075  3.664099  -0.001  -0.300329  -0.000546  3.912357  -0.001  -0.308754  -0.000279  3.921257  0.0  -0.167086  -0.293336  -0.000669  3.905369  -0.001
C  C68  1  0.98878106  0.81338949  0.40256507  1  -0.055527  -7e-06  3.669086  0.0  -0.097955  -0.000135  3.929007  0.0  -0.096057  -8.9e-05  3.941484  0.0  -0.16569  -0.099436  -0.000141  3.920274  0.0
C  C69  1  0.51119496  0.41079183  0.59744202  1  -0.056051  -1.6e-05  3.670319  0.0  -0.098086  -0.000133  3.929959  0.0  -0.096132  -8.7e-05  3.94241  0.0  -0.165781  -0.099638  -0.000139  3.92123  0.0
C  C70  1  0.01122126  0.18661289  0.59743875  1  -0.055335  -2e-06  3.668991  0.0  -0.097751  0.000134  3.928945  0.0  -0.095864  8.8e-05  3.941419  0.0  -0.165599  -0.099216  0.000141  3.920211  0.0
C  C71  1  0.48879662  0.58920716  0.40255930  1  -0.056013  1.2e-05  3.670426  0.0  -0.098116  0.000133  3.930019  0.0  -0.096168  8.7e-05  3.942477  0.0  -0.16577  -0.099657  0.000141  3.921296  0.0
C  C72  1  0.30249067  0.06716138  0.76922107  1  0.111317  -0.000581  3.733449  -0.001  0.089644  -0.000385  3.986419  0.0  0.095827  -0.000357  4.005608  0.0  0.040346  0.085713  -0.000403  3.973742  0.0
C  C73  1  0.19743632  0.29808218  0.23066021  1  0.10928  -0.000559  3.73213  -0.001  0.087796  -0.000385  3.985193  0.0  0.093948  -0.000357  4.004352  0.0  0.039117  0.083902  -0.000403  3.972536  0.0
C  C74  1  0.69751335  0.93283174  0.23077480  1  0.111225  0.000505  3.73356  0.0  0.08958  0.000386  3.986495  0.0  0.095753  0.000357  4.005694  0.0  0.040272  0.08566  0.000403  3.973799  0.0
C  C75  1  0.80256690  0.70191682  0.76933781  1  0.109375  0.000513  3.732137  0.0  0.087864  0.000386  3.985167  0.0  0.094014  0.000356  4.004334  0.0  0.039093  0.083971  0.000403  3.972508  0.0
C  C76  1  0.32878356  0.87523331  0.69202538  1  0.138735  -0.000534  3.682438  -0.001  0.11522  -0.000367  3.935006  0.0  0.123309  -0.000338  3.95129  0.0  0.049374  0.110004  -0.000402  3.924359  0.0
C  C77  1  0.17106326  0.18333188  0.30785761  1  0.136672  -0.000515  3.684622  0.0  0.112988  -0.000369  3.937129  0.0  0.121124  -0.00034  3.953555  0.0  0.048872  0.107745  -0.000404  3.926393  0.0
C  C78  1  0.67122293  0.12476150  0.30797388  1  0.138701  0.000468  3.682508  0.0  0.115199  0.000368  3.935055  0.0  0.123286  0.000338  3.951341  0.0  0.049388  0.109983  0.000403  3.924415  0.0
C  C79  1  0.82894453  0.81666545  0.69214003  1  0.136674  0.000459  3.684786  0.0  0.113046  0.00037  3.937269  0.0  0.121194  0.000339  3.953689  0.0  0.048844  0.107798  0.000404  3.926531  0.0
C  C80  1  0.24305255  0.85807584  0.75745031  1  -0.14685  0.000297  3.67098  0.0  -0.166249  0.000118  3.912139  0.0  -0.173946  0.000178  3.932039  0.0  -0.076666  -0.161311  8.1e-05  3.898974  0.0
C  C81  1  0.25683478  0.10079314  0.24245303  1  -0.144165  0.000282  3.668832  0.0  -0.163927  0.000118  3.909802  0.0  -0.171577  0.000177  3.929715  0.0  -0.075981  -0.159019  8.1e-05  3.896607  0.0
C  C82  1  0.75695136  0.14191560  0.24254559  1  -0.147025  -0.000237  3.671229  0.0  -0.166388  -0.000118  3.91233  0.0  -0.174085  -0.000177  3.932243  0.0  -0.076702  -0.161437  -8.1e-05  3.89917  0.0
C  C83  1  0.74317405  0.89920249  0.75754142  1  -0.144227  -0.000227  3.668842  0.0  -0.163937  -0.000118  3.909821  0.0  -0.171622  -0.000178  3.929701  0.0  -0.075983  -0.159027  -8.1e-05  3.896618  0.0
C  C84  1  0.18524714  0.95108798  0.83248773  1  0.089792  -0.000455  3.797505  0.0  0.10578  -0.000317  4.027084  0.0  0.10856  -0.000274  4.050239  0.0  0.006201  0.104135  -0.000392  4.011253  0.0
C  C85  1  0.31466252  0.11878201  0.16742627  1  0.088729  -0.000444  3.798219  0.0  0.10525  -0.000317  4.027618  0.0  0.108052  -0.000274  4.050746  0.0  0.006601  0.103573  -0.000392  4.01185  0.0
C  C86  1  0.81475473  0.04890767  0.16751225  1  0.089897  0.000407  3.7975  0.0  0.10584  0.000318  4.027011  0.0  0.108623  0.000275  4.050167  0.0  0.006288  0.104174  0.000392  4.011227  0.0
C  C87  1  0.68534648  0.88121615  0.83257043  1  0.088871  0.000406  3.797964  0.0  0.105226  0.000319  4.02755  0.0  0.108134  0.000275  4.050536  0.0  0.006637  0.103548  0.000393  4.01177  0.0
C  C88  1  0.09863312  0.93398656  0.90253214  1  0.097847  0.000421  3.649124  0.0  0.063193  0.00021  3.911409  0.0  0.069243  0.000222  3.923707  0.0  0.078326  0.059003  0.000226  3.90316  0.0
C  C89  1  0.40131499  0.03161368  0.09746229  1  0.098251  0.000415  3.649698  0.0  0.062738  0.000211  3.912465  0.0  0.068742  0.000222  3.924817  0.0  0.077962  0.058586  0.000228  3.904176  0.0
C  C90  1  0.90136840  0.06600403  0.09746266  1  0.097656  -0.000426  3.649472  0.0  0.063136  -0.000209  3.911602  0.0  0.069188  -0.000222  3.923893  0.0  0.078283  0.058948  -0.000226  3.903361  0.0
C  C91  1  0.59869184  0.96838700  0.90253524  1  0.098134  -0.000406  3.649629  0.0  0.062706  -0.00021  3.912402  0.0  0.068674  -0.000222  3.924735  0.0  0.077965  0.058551  -0.000228  3.904127  0.0
C  C92  1  0.66300327  0.27446397  0.83031602  1  0.809481  -2.1e-05  3.795369  0.0  0.747561  -6e-06  4.112931  0.0  0.792488  -1.9e-05  4.096699  0.0  0.371224  0.716929  1.3e-05  4.123787  0.0
C  C93  1  0.83683988  0.44447847  0.16985063  1  0.811207  -2.1e-05  3.795113  0.0  0.749337  -6e-06  4.112597  0.0  0.794259  -1.9e-05  4.096298  0.0  0.371392  0.718707  1.3e-05  4.123495  0.0
C  C94  1  0.33698057  0.72554174  0.16968934  1  0.809408  1.9e-05  3.795672  0.0  0.747483  6e-06  4.113235  0.0  0.79241  1.9e-05  4.096998  0.0  0.371105  0.716851  -1.3e-05  4.124095  0.0
C  C95  1  0.16314414  0.55553221  0.83014152  1  0.811114  2e-05  3.794908  0.0  0.749197  6e-06  4.112435  0.0  0.794122  1.9e-05  4.096129  0.0  0.371169  0.718565  -1.3e-05  4.123335  0.0
N  N96  1  0.35997766  0.97778714  0.69786679  1  -0.307151  -0.000991  3.221224  0.0  -0.261564  -0.000647  3.508562  0.0  -0.282837  -0.000666  3.524944  0.0  -0.334813  -0.248239  -0.000562  3.498958  0.0
N  N97  1  0.13986294  0.28003309  0.30199201  1  -0.305084  -0.00101  3.219009  0.0  -0.258898  -0.000646  3.505515  0.0  -0.280328  -0.000666  3.521944  0.0  -0.333265  -0.245485  -0.000562  3.495905  0.0
N  N98  1  0.64002906  0.02221105  0.30213504  1  -0.307006  0.001046  3.221023  0.0  -0.261402  0.000645  3.508324  0.0  -0.282672  0.000667  3.524701  0.0  -0.334696  -0.248065  0.000562  3.498728  0.0
N  N99  1  0.86014841  0.71996508  0.69800548  1  -0.305262  0.001051  3.219067  0.0  -0.259025  0.000645  3.505488  0.0  -0.28046  0.000668  3.521913  0.0  -0.333285  -0.24562  0.000563  3.495883  0.0
N  N100  1  0.03786467  0.01710513  0.97024940  1  -0.21101  -0.000413  3.039475  -0.001  -0.183031  -0.000236  3.331073  0.0  -0.19129  -0.00023  3.347283  0.0  -0.213917  -0.177422  -0.000289  3.320167  0.0
N  N101  1  0.46219054  0.04690307  0.02970666  1  -0.211285  -0.000406  3.040497  -0.001  -0.183051  -0.000237  3.332153  0.0  -0.191305  -0.00023  3.348371  0.0  -0.213775  -0.177441  -0.00029  3.321235  0.0
N  N102  1  0.96212906  0.98289133  0.02974913  1  -0.210949  0.000408  3.039866  0.001  -0.183011  0.000236  3.33139  0.0  -0.19127  0.00023  3.3476  0.0  -0.213951  -0.177393  0.000289  3.320479  0.0
N  N103  1  0.53783050  0.95310017  0.97029521  1  -0.211185  0.000389  3.040513  0.0  -0.182954  0.000237  3.332138  0.0  -0.191207  0.000229  3.348366  0.0  -0.213815  -0.17735  0.000291  3.321222  0.0
O  O104  1  0.01027774  0.67648780  0.50890547  1  -0.577593  -0.069665  2.065038  -0.092  -0.554259  -0.048491  2.342491  -0.07  -0.598972  -0.038274  2.334543  -0.058  -0.312224  -0.524828  -0.050929  2.348292  -0.07
O  O105  1  0.48982779  0.16761127  0.49115394  1  -0.578305  -0.069641  2.063879  -0.092  -0.554422  -0.048528  2.341157  -0.07  -0.59902  -0.038304  2.33337  -0.058  -0.312281  -0.525065  -0.050974  2.346907  -0.071
O  O106  1  0.98976056  0.32351046  0.49110007  1  -0.577853  0.069666  2.064748  0.092  -0.554392  0.048489  2.342259  0.07  -0.5991  0.038271  2.334313  0.058  -0.312222  -0.524978  0.050929  2.348104  0.07
O  O107  1  0.51015837  0.83239525  0.50884398  1  -0.578282  0.069634  2.0642  0.092  -0.554447  0.048521  2.341473  0.07  -0.599045  0.038297  2.333694  0.058  -0.312297  -0.525104  0.050971  2.347202  0.071
O  O108  1  0.24648716  0.96068953  0.50641331  1  -0.573488  0.07149  2.102825  0.094  -0.545521  0.049307  2.377506  0.071  -0.591099  0.039009  2.373467  0.06  -0.307997  -0.515958  0.050666  2.381018  0.07
O  O109  1  0.25350451  0.45424152  0.49356084  1  -0.57301  0.071273  2.102584  0.094  -0.545398  0.049172  2.377002  0.071  -0.591138  0.038901  2.372918  0.06  -0.308322  -0.515744  0.050536  2.38057  0.07
O  O110  1  0.75351925  0.03932210  0.49359285  1  -0.57341  -0.071486  2.102958  -0.094  -0.545372  -0.049307  2.377581  -0.071  -0.590948  -0.039009  2.373534  -0.06  -0.307928  -0.515796  -0.050664  2.381108  -0.07
O  O111  1  0.74650899  0.54577342  0.50643383  1  -0.572915  -0.071277  2.102741  -0.094  -0.54534  -0.049177  2.377003  -0.071  -0.591091  -0.038905  2.372919  -0.06  -0.308263  -0.515687  -0.050536  2.380571  -0.07
O  O112  1  0.07231465  0.53025315  0.37058656  1  -0.591811  0.080854  2.091152  0.107  -0.571268  0.055937  2.37422  0.081  -0.618097  0.043518  2.368023  0.067  -0.317798  -0.540777  0.058841  2.378994  0.082
O  O113  1  0.42751704  0.15957903  0.62939762  1  -0.591739  0.080806  2.092228  0.107  -0.57101  0.055864  2.375659  0.081  -0.617604  0.043459  2.36937  0.067  -0.317926  -0.540637  0.058767  2.380442  0.082
O  O114  1  0.92766019  0.46974156  0.62940243  1  -0.591929  -0.08086  2.091082  -0.107  -0.57139  -0.055944  2.374356  -0.081  -0.618221  -0.043524  2.36816  -0.067  -0.317881  -0.5409  -0.058841  2.379137  -0.082
O  O115  1  0.57247443  0.84041909  0.37059747  1  -0.591664  -0.080818  2.092229  -0.107  -0.570971  -0.055871  2.375655  -0.081  -0.617578  -0.043465  2.369381  -0.067  -0.3179  -0.540576  -0.058776  2.38044  -0.082
O  O116  1  0.31213700  0.95984346  0.36577226  1  -0.591605  -0.074313  2.090884  -0.098  -0.569419  -0.051503  2.372182  -0.075  -0.615181  -0.040565  2.36587  -0.063  -0.316413  -0.5395  -0.053045  2.377033  -0.074
O  O117  1  0.18782604  0.59396523  0.63421971  1  -0.591619  -0.074395  2.091528  -0.098  -0.569489  -0.051599  2.372523  -0.075  -0.615437  -0.040646  2.366184  -0.063  -0.316426  -0.539475  -0.053142  2.377378  -0.074
O  O118  1  0.68785331  0.04015467  0.63422474  1  -0.591478  0.0743  2.091005  0.098  -0.569313  0.051492  2.372332  0.075  -0.615075  0.040557  2.366028  0.063  -0.316363  -0.539412  0.053037  2.377168  0.074
O  O119  1  0.81216809  0.40601701  0.36578731  1  -0.591718  0.074396  2.091678  0.098  -0.569615  0.051599  2.372517  0.075  -0.615528  0.040644  2.366098  0.063  -0.316449  -0.539604  0.053142  2.377382  0.074
O  O120  1  0.67542602  0.34404292  0.80246883  1  -0.396934  1.6e-05  1.982937  0.0  -0.360678  3.9e-05  2.171874  0.0  -0.38184  1.2e-05  2.161789  0.0  -0.17372  -0.346511  6.2e-05  2.178663  0.0
O  O121  1  0.82426242  0.54188558  0.19779838  1  -0.397736  1.7e-05  1.982381  0.0  -0.361524  3.9e-05  2.171475  0.0  -0.382681  1.2e-05  2.161364  0.0  -0.173983  -0.347358  6.3e-05  2.178284  0.0
O  O122  1  0.32454743  0.65596445  0.19753791  1  -0.3969  -1.5e-05  1.98307  0.0  -0.360645  -3.9e-05  2.171999  0.0  -0.381806  -1.2e-05  2.161907  0.0  -0.173574  -0.346482  -6.3e-05  2.178794  0.0
O  O123  1  0.17569437  0.45812081  0.80218349  1  -0.397611  -1.6e-05  1.9823  0.0  -0.361362  -3.9e-05  2.17143  0.0  -0.382518  -1.2e-05  2.161316  0.0  -0.173789  -0.347203  -6.3e-05  2.178244  0.0
O  O124  1  0.65200103  0.20717421  0.86072671  1  -0.390179  1.6e-05  1.999686  0.0  -0.362252  2e-05  2.19915  0.0  -0.384002  4e-06  2.187467  0.0  -0.16833  -0.347397  3.5e-05  2.207021  0.0
O  O125  1  0.84792946  0.34677936  0.13930410  1  -0.391177  1.6e-05  2.000455  0.0  -0.363226  2e-05  2.199706  0.0  -0.384993  4e-06  2.188017  0.0  -0.168221  -0.348374  3.5e-05  2.207603  0.0
O  O126  1  0.34799401  0.79282396  0.13927580  1  -0.390142  -1.5e-05  1.999878  0.0  -0.362212  -2e-05  2.199352  0.0  -0.383964  -5e-06  2.18767  0.0  -0.168371  -0.347363  -3.4e-05  2.207225  0.0
O  O127  1  0.15207946  0.65323561  0.86069886  1  -0.39122  -1.6e-05  2.00036  0.0  -0.363237  -2e-05  2.199611  0.0  -0.385003  -4e-06  2.187924  0.0  -0.168201  -0.348387  -3.5e-05  2.207504  0.0
