# generated using pymatgen
data_CuH7C9N7
_symmetry_space_group_name_H-M   'P 1'
_cell_length_a   5.66924731
_cell_length_b   12.74560053
_cell_length_c   14.57011333
_cell_angle_alpha   89.99995962
_cell_angle_beta   90.00039458
_cell_angle_gamma   92.80546507
_symmetry_Int_Tables_number   1
_chemical_formula_structural   CuH7C9N7
_chemical_formula_sum   'Cu4 H28 C36 N28'
_cell_volume   1051.54487049
_cell_formula_units_Z   4
loop_
 _symmetry_equiv_pos_site_id
 _symmetry_equiv_pos_as_xyz
  1  'x, y, z'
loop_
 _atom_site_type_symbol
 _atom_site_label
 _atom_site_symmetry_multiplicity
 _atom_site_fract_x
 _atom_site_fract_y
 _atom_site_fract_z
 _atom_site_occupancy
 _atom_site_hle17_ddec_charge
 _atom_site_hle17_ddec_spin_density
 _atom_site_hle17_ddec_sum_bond_order
 _atom_site_hle17_magmom
 _atom_site_hse06_10hf_ddec_charge
 _atom_site_hse06_10hf_ddec_spin_density
 _atom_site_hse06_10hf_ddec_sum_bond_order
 _atom_site_hse06_10hf_magmom
 _atom_site_hse06_ddec_charge
 _atom_site_hse06_ddec_spin_density
 _atom_site_hse06_ddec_sum_bond_order
 _atom_site_hse06_magmom
 _atom_site_pbe_cm5_charge
 _atom_site_pbe_ddec_charge
 _atom_site_pbe_ddec_spin_density
 _atom_site_pbe_ddec_sum_bond_order
 _atom_site_pbe_magmom
Cu  Cu0  1  0.22777751  0.78982731  0.30280906  1  0.756032  -0.521344  2.018703  -0.345  0.773864  -0.697208  2.431558  -0.522  0.873006  -0.820004  2.35345  -0.637  0.762995  0.722743  -0.591224  2.47812  -0.435
Cu  Cu1  1  0.27221128  0.21017745  0.80281137  1  0.75605  -0.521439  2.018898  -0.345  0.773823  -0.697242  2.431772  -0.522  0.873025  -0.820058  2.353649  -0.637  0.762957  0.722683  -0.591244  2.478354  -0.435
Cu  Cu2  1  0.77220884  0.21016608  0.69718917  1  0.756123  0.521374  2.018675  0.345  0.773983  0.697237  2.431485  0.522  0.873152  0.820038  2.353363  0.637  0.762977  0.722831  0.591259  2.478047  0.434
Cu  Cu3  1  0.72777959  0.78982379  0.19718960  1  0.755962  0.521326  2.01882  0.345  0.773866  0.697197  2.43165  0.522  0.873052  0.820022  2.353537  0.637  0.762992  0.722746  0.591232  2.478202  0.434
H  H4  1  0.84732287  0.66253641  0.39242992  1  0.076937  -0.001159  0.960926  -0.002  0.084737  -0.001009  1.029708  -0.001  0.086813  -0.000719  1.0278  -0.001  0.114096  0.083052  -0.001151  1.0312  -0.002
H  H5  1  0.65267443  0.33747756  0.89242969  1  0.076819  -0.00116  0.961026  -0.002  0.084659  -0.00101  1.029748  -0.001  0.086729  -0.000719  1.027849  -0.001  0.114088  0.082983  -0.001152  1.031245  -0.002
H  H6  1  0.15267141  0.33744989  0.60756419  1  0.076958  0.001159  0.960952  0.002  0.084754  0.00101  1.029751  0.001  0.086833  0.000719  1.02783  0.001  0.114091  0.083061  0.001151  1.031274  0.002
H  H7  1  0.34732594  0.66252915  0.10755962  1  0.076877  0.001159  0.960863  0.002  0.084692  0.001009  1.029618  0.001  0.086769  0.000719  1.027704  0.001  0.114096  0.083013  0.001152  1.031113  0.002
H  H8  1  0.79536589  0.56886142  0.54359720  1  0.106778  9.3e-05  0.967416  0.0  0.115004  2.3e-05  1.02999  0.0  0.118479  5.3e-05  1.029398  0.0  0.104059  0.11251  1e-05  1.030556  0.0
H  H9  1  0.70463945  0.43114513  0.04359796  1  0.106751  9.3e-05  0.967554  0.0  0.1151  2.3e-05  1.030022  0.0  0.118581  5.3e-05  1.029422  0.0  0.104046  0.112607  1e-05  1.030588  0.0
H  H10  1  0.20462622  0.43112174  0.45639760  1  0.106766  -9.3e-05  0.967625  0.0  0.114915  -2.2e-05  1.030258  0.0  0.118385  -5.2e-05  1.029673  0.0  0.104001  0.11242  -1e-05  1.030823  0.0
H  H11  1  0.29538238  0.56886386  0.95638929  1  0.106781  -9.2e-05  0.967552  0.0  0.114962  -2.2e-05  1.030153  0.0  0.118433  -5.3e-05  1.029567  0.0  0.104052  0.11247  -1e-05  1.030722  0.0
H  H12  1  0.09821844  0.60169404  0.66633164  1  0.096632  1.5e-05  0.955184  0.0  0.104492  0.000193  1.024934  0.0  0.107907  0.000208  1.021492  0.0  0.106217  0.101959  0.000147  1.027589  0.0
H  H13  1  0.40180318  0.39831275  0.16633690  1  0.096627  1.5e-05  0.955175  0.0  0.104528  0.000193  1.024861  0.0  0.10796  0.000208  1.021372  0.0  0.106224  0.101998  0.000147  1.027515  0.0
H  H14  1  0.90176751  0.39829621  0.33366453  1  0.09663  -1.4e-05  0.955115  0.0  0.104532  -0.000193  1.024838  0.0  0.107952  -0.000207  1.021389  0.0  0.106179  0.101996  -0.000147  1.027495  0.0
H  H15  1  0.59824167  0.60169696  0.83365996  1  0.096595  -1.5e-05  0.955258  0.0  0.104497  -0.000193  1.024962  0.0  0.107935  -0.000208  1.021455  0.0  0.106182  0.101962  -0.000147  1.027623  0.0
H  H16  1  0.45966581  0.70646943  0.71987268  1  0.093056  -0.000331  0.958548  0.0  0.105772  -0.0002  1.019576  0.0  0.107812  -0.000129  1.019086  0.0  0.103953  0.104341  -0.000243  1.019921  0.0
H  H17  1  0.04034539  0.29353762  0.21987532  1  0.0931  -0.00033  0.958444  0.0  0.105789  -0.0002  1.019513  0.0  0.107829  -0.000128  1.019024  0.0  0.103932  0.104356  -0.000242  1.019867  0.0
H  H18  1  0.54032720  0.29352080  0.28012349  1  0.093109  0.000331  0.958414  0.0  0.105824  0.0002  1.019447  0.0  0.107865  0.000128  1.018957  0.0  0.103945  0.104387  0.000243  1.019797  0.0
H  H19  1  0.95968614  0.70647842  0.78012359  1  0.093118  0.00033  0.958409  0.0  0.105838  0.0002  1.019441  0.0  0.107879  0.000128  1.018952  0.0  0.103955  0.104397  0.000243  1.0198  0.0
H  H20  1  0.77748660  0.84360666  0.68862232  1  0.086429  -0.000157  0.976686  0.0  0.091876  -0.000184  1.048073  0.0  0.09406  -0.000149  1.048613  0.0  0.096643  0.090179  -0.000212  1.047991  0.0
H  H21  1  0.72251881  0.15639949  0.18862619  1  0.086333  -0.000158  0.976524  0.0  0.091778  -0.000185  1.04792  0.0  0.093962  -0.00015  1.048462  0.0  0.096554  0.090056  -0.000212  1.047859  0.0
H  H22  1  0.22249456  0.15638753  0.31137797  1  0.086441  0.000157  0.976768  0.0  0.091907  0.000185  1.048107  0.0  0.094092  0.00015  1.048643  0.0  0.096631  0.090215  0.000212  1.048022  0.0
H  H23  1  0.27751448  0.84361654  0.81138165  1  0.086365  0.000157  0.97654  0.0  0.091838  0.000185  1.047894  0.0  0.094025  0.00015  1.048428  0.0  0.096584  0.090142  0.000212  1.047806  0.0
H  H24  1  0.79851503  0.93299139  0.53671833  1  0.087573  8.8e-05  0.960598  0.0  0.093699  0.00018  1.028303  0.0  0.096051  0.00015  1.027442  0.0  0.097943  0.091871  0.000194  1.029085  0.0
H  H25  1  0.70148343  0.06702527  0.03671373  1  0.08739  8.9e-05  0.960669  0.0  0.093581  0.00018  1.028344  0.0  0.095934  0.00015  1.027479  0.0  0.09795  0.09176  0.000194  1.029114  0.0
H  H26  1  0.20146153  0.06700832  0.46328471  1  0.087661  -8.9e-05  0.960668  0.0  0.093757  -0.00018  1.02838  0.0  0.096086  -0.00015  1.027541  0.0  0.097993  0.09193  -0.000195  1.029163  0.0
H  H27  1  0.29852968  0.93298454  0.96329548  1  0.087673  -8.9e-05  0.960771  0.0  0.093788  -0.000179  1.028449  0.0  0.09611  -0.00015  1.027616  0.0  0.098031  0.091962  -0.000194  1.029229  0.0
H  H28  1  0.50375023  0.88750437  0.41625207  1  0.091857  0.000445  0.984987  0.0  0.091534  0.000425  1.069243  0.0  0.09419  0.000437  1.067024  0.0  0.097083  0.088735  0.000382  1.072062  0.0
H  H29  1  0.99624190  0.11251478  0.91624615  1  0.091869  0.000445  0.985039  0.0  0.091467  0.000425  1.069353  0.0  0.094165  0.000437  1.067104  0.0  0.097074  0.088705  0.000382  1.072146  0.0
H  H30  1  0.49623112  0.11249140  0.58375096  1  0.091836  -0.000445  0.984852  0.0  0.091485  -0.000426  1.069151  0.0  0.094151  -0.000437  1.066928  0.0  0.097062  0.088703  -0.000382  1.071954  0.0
H  H31  1  0.00376024  0.88749192  0.08375757  1  0.091836  -0.000445  0.985053  0.0  0.091432  -0.000426  1.069368  0.0  0.094128  -0.000437  1.067125  0.0  0.09708  0.088667  -0.000382  1.072155  0.0
C  C32  1  0.97317993  0.67643174  0.44823158  1  0.153085  0.007005  3.682673  0.007  0.124776  0.001443  3.936455  0.002  0.138005  0.002612  3.952207  0.003  0.053299  0.116637  0.000452  3.926209  0.001
C  C33  1  0.52681899  0.32358171  0.94823045  1  0.153218  0.006995  3.68287  0.007  0.124866  0.001441  3.936721  0.002  0.138095  0.002611  3.952485  0.003  0.053268  0.11671  0.000451  3.926488  0.001
C  C34  1  0.02681455  0.32355613  0.55176665  1  0.153219  -0.006994  3.682632  -0.007  0.124864  -0.001442  3.936353  -0.002  0.138094  -0.002611  3.952113  -0.003  0.053358  0.116711  -0.000452  3.926106  -0.001
C  C35  1  0.47318628  0.67642184  0.05176160  1  0.153306  -0.006992  3.682631  -0.007  0.125022  -0.001442  3.936412  -0.002  0.138254  -0.002612  3.952168  -0.003  0.053322  0.116869  -0.000452  3.926173  -0.001
C  C36  1  0.94572520  0.62390923  0.53279528  1  -0.124199  -0.00738  3.749552  -0.007  -0.134813  -0.00293  3.995957  -0.003  -0.143689  -0.002731  4.016231  -0.003  -0.087926  -0.128969  -0.002882  3.982051  -0.003
C  C37  1  0.55429047  0.37610101  0.03279264  1  -0.124304  -0.007375  3.749466  -0.007  -0.135033  -0.00293  3.99587  -0.003  -0.143914  -0.002731  4.016146  -0.003  -0.087986  -0.129189  -0.002883  3.981973  -0.003
C  C38  1  0.05426761  0.37607942  0.46720157  1  -0.124244  0.00737  3.749706  0.007  -0.134769  0.002929  3.996078  0.003  -0.143645  0.002728  4.016362  0.003  -0.087888  -0.128922  0.002881  3.98217  0.003
C  C39  1  0.44573998  0.62390639  0.96719804  1  -0.124421  0.007365  3.749838  0.007  -0.134986  0.00293  3.996269  0.003  -0.143867  0.00273  4.016555  0.003  -0.087992  -0.129141  0.002882  3.982369  0.003
C  C40  1  0.11088930  0.64348761  0.60091324  1  -0.035975  0.006825  3.679973  0.006  -0.059423  0.002286  3.922818  0.002  -0.053973  0.002794  3.937899  0.003  -0.058304  -0.062968  0.001747  3.912617  0.001
C  C41  1  0.38911624  0.35652349  0.10091418  1  -0.035903  0.006819  3.679747  0.006  -0.059322  0.002285  3.922638  0.002  -0.053881  0.002794  3.937717  0.003  -0.058203  -0.062867  0.001748  3.912437  0.001
C  C42  1  0.88910909  0.35650339  0.39908842  1  -0.035869  -0.006815  3.680007  -0.006  -0.059296  -0.002286  3.92285  -0.002  -0.053867  -0.002792  3.937925  -0.003  -0.058235  -0.06284  -0.001748  3.912647  -0.001
C  C43  1  0.61090549  0.64348472  0.89908131  1  -0.035773  -0.006809  3.680011  -0.006  -0.059252  -0.002287  3.922819  -0.002  -0.0538  -0.002793  3.9379  -0.003  -0.058183  -0.062802  -0.001749  3.912628  -0.001
C  C44  1  0.29823137  0.71920204  0.58635587  1  0.019447  -0.00627  3.773936  -0.006  0.041543  -0.003519  3.991022  -0.004  0.037267  -0.003102  4.014916  -0.004  -0.000193  0.044146  -0.0036  3.974825  -0.004
C  C45  1  0.20178319  0.28081347  0.08635440  1  0.019481  -0.006263  3.773777  -0.006  0.041311  -0.003516  3.991028  -0.004  0.037093  -0.003099  4.014875  -0.004  -0.000297  0.0439  -0.0036  3.974822  -0.004
C  C46  1  0.70175880  0.28079370  0.41364236  1  0.019418  0.006265  3.773872  0.006  0.041359  0.003518  3.991223  0.004  0.037128  0.003101  4.01506  0.004  -0.000195  0.043957  0.0036  3.975027  0.004
C  C47  1  0.79823717  0.71919789  0.91364520  1  0.019557  0.006258  3.773939  0.006  0.041553  0.003518  3.991032  0.004  0.037293  0.003101  4.014903  0.004  -0.00017  0.044152  0.0036  3.974833  0.004
C  C48  1  0.46972344  0.74699339  0.65406718  1  -0.08809  0.00266  3.72274  0.002  -0.107209  0.000341  3.967002  0.0  -0.108118  0.000654  3.988654  0.001  -0.079678  -0.106225  0.000136  3.952203  0.0
C  C49  1  0.03027592  0.25300931  0.15407101  1  -0.088032  0.002646  3.722738  0.002  -0.107076  0.00034  3.966999  0.0  -0.107995  0.000652  3.988631  0.001  -0.07957  -0.106098  0.000136  3.952196  0.0
C  C50  1  0.53026095  0.25299844  0.34593380  1  -0.08811  -0.002646  3.722656  -0.002  -0.10717  -0.000341  3.966958  0.0  -0.108092  -0.000653  3.988594  -0.001  -0.079629  -0.106189  -0.000137  3.952163  0.0
C  C51  1  0.96975551  0.74700594  0.84593477  1  -0.088084  -0.002638  3.72321  -0.002  -0.107198  -0.000339  3.967482  0.0  -0.108117  -0.000653  3.989135  -0.001  -0.079595  -0.106216  -0.000137  3.952679  0.0
C  C52  1  0.64584767  0.82269945  0.63641020  1  -0.071818  -0.002499  3.76772  -0.002  -0.089102  -0.000492  4.023524  0.0  -0.093536  -0.000787  4.047317  -0.001  -0.09055  -0.086376  -0.000247  4.0077  0.0
C  C53  1  0.85416932  0.17731668  0.13640946  1  -0.071822  -0.002484  3.7681  -0.002  -0.089078  -0.000491  4.023889  0.0  -0.093514  -0.000785  4.047682  -0.001  -0.090524  -0.086325  -0.000247  4.008078  0.0
C  C54  1  0.35412457  0.17729399  0.36358940  1  -0.071973  0.002486  3.767867  0.002  -0.089281  0.000491  4.023677  0.0  -0.093714  0.000786  4.047464  0.001  -0.09061  -0.086555  0.000247  4.00785  0.0
C  C55  1  0.14584369  0.82269234  0.86359426  1  -0.071812  0.002479  3.768408  0.002  -0.089112  0.00049  4.024209  0.0  -0.093547  0.000786  4.047999  0.001  -0.090526  -0.086379  0.000247  4.00836  0.0
C  C56  1  0.65835627  0.87335338  0.55010445  1  -0.030633  0.002643  3.748388  0.002  -0.045977  0.000852  3.999987  0.001  -0.045953  0.001095  4.022602  0.001  -0.084273  -0.045745  0.000623  3.984636  0.001
C  C57  1  0.84162819  0.12666044  0.05010984  1  -0.030444  0.002631  3.747725  0.002  -0.045893  0.000852  3.999388  0.001  -0.045868  0.001097  4.022  0.001  -0.084305  -0.045668  0.000623  3.984047  0.001
C  C58  1  0.34161793  0.12664163  0.44989790  1  -0.030821  -0.002628  3.748472  -0.002  -0.046132  -0.000853  4.000055  -0.001  -0.046089  -0.001095  4.022682  -0.001  -0.084392  -0.045906  -0.000623  3.984714  -0.001
C  C59  1  0.15838767  0.87335722  0.94989526  1  -0.030894  -0.002627  3.747795  -0.002  -0.046236  -0.000854  3.999404  -0.001  -0.046182  -0.001098  4.022025  -0.001  -0.084452  -0.046013  -0.000624  3.984065  -0.001
C  C60  1  0.49568931  0.84769558  0.48250989  1  -0.153467  -0.002878  3.738525  -0.003  -0.176832  -0.000879  4.001082  -0.001  -0.183718  -0.000948  4.024406  -0.001  -0.093867  -0.172378  -0.000782  3.986252  -0.001
C  C61  1  0.00431187  0.15232119  0.98250376  1  -0.153389  -0.002865  3.738026  -0.003  -0.176789  -0.000878  4.000592  -0.001  -0.183714  -0.000948  4.02394  -0.001  -0.093843  -0.172381  -0.000781  3.985731  -0.001
C  C62  1  0.50428293  0.15229785  0.51749314  1  -0.153347  0.002863  3.738337  0.003  -0.176661  0.000881  4.000919  0.001  -0.183564  0.000948  4.024235  0.001  -0.093841  -0.172226  0.000782  3.98607  0.001
C  C63  1  0.99569722  0.84768471  0.01749996  1  -0.153241  0.00286  3.73783  0.003  -0.176613  0.000881  4.000376  0.001  -0.183539  0.000949  4.023656  0.001  -0.093792  -0.172191  0.000782  3.985519  0.001
C  C64  1  0.31316115  0.77060753  0.49902269  1  0.202766  0.000434  3.75388  0.001  0.204223  -0.001998  3.984601  -0.001  0.211853  -0.000935  4.009083  0.0  0.107993  0.199524  -0.002624  3.968633  -0.002
C  C65  1  0.18683456  0.22940643  0.99902228  1  0.202578  0.000427  3.75417  0.001  0.204418  -0.001999  3.984461  -0.001  0.211978  -0.000935  4.009021  0.0  0.108059  0.199766  -0.002624  3.968436  -0.002
C  C66  1  0.68682364  0.22938744  0.50097829  1  0.202886  -0.000427  3.754044  -0.001  0.204279  0.001998  3.984873  0.001  0.211895  0.000936  4.009362  0.0  0.10811  0.199588  0.002625  3.968893  0.002
C  C67  1  0.81318208  0.77060337  0.00097801  1  0.202456  -0.000421  3.754413  -0.001  0.204167  0.001998  3.984841  0.001  0.211793  0.000935  4.009333  0.0  0.107931  0.199474  0.002625  3.968867  0.002
N  N68  1  0.15156692  0.74541474  0.43122224  1  -0.355491  -0.06391  3.341214  -0.074  -0.304508  -0.051446  3.628078  -0.065  -0.337313  -0.044967  3.648785  -0.06  -0.352896  -0.287007  -0.051415  3.616649  -0.063
N  N69  1  0.34844115  0.25460339  0.93121981  1  -0.355378  -0.063917  3.34129  -0.074  -0.304501  -0.051451  3.628087  -0.065  -0.337305  -0.044969  3.648835  -0.06  -0.352869  -0.28701  -0.051421  3.616651  -0.063
N  N70  1  0.84842482  0.25457942  0.56877668  1  -0.355743  0.063895  3.341632  0.074  -0.304618  0.05144  3.628427  0.065  -0.337435  0.04496  3.649143  0.06  -0.353007  -0.287112  0.051411  3.616982  0.063
N  N71  1  0.65157489  0.74540170  0.06877499  1  -0.355437  0.063904  3.341345  0.074  -0.304616  0.051447  3.628239  0.065  -0.337441  0.044966  3.648969  0.06  -0.35289  -0.287117  0.051417  3.616804  0.063
N  N72  1  0.98739405  0.68777640  0.20511341  1  -0.528132  0.076067  2.80255  0.086  -0.580944  0.043539  3.172377  0.053  -0.634514  0.029897  3.187619  0.04  -0.332263  -0.551699  0.046573  3.165094  0.054
N  N73  1  0.51258697  0.31221678  0.70510464  1  -0.528332  0.076089  2.802492  0.086  -0.581201  0.043542  3.172454  0.053  -0.634735  0.029906  3.187588  0.04  -0.332303  -0.551943  0.046576  3.165163  0.054
N  N74  1  0.01259642  0.31222169  0.79488551  1  -0.528593  -0.076148  2.801991  -0.086  -0.581374  -0.043573  3.171821  -0.053  -0.634981  -0.029934  3.187078  -0.04  -0.332456  -0.552113  -0.046608  3.164546  -0.054
N  N75  1  0.48739751  0.68777583  0.29489016  1  -0.52836  -0.0761  2.802243  -0.086  -0.581179  -0.043552  3.172115  -0.053  -0.634752  -0.029914  3.187349  -0.04  -0.33231  -0.551929  -0.046588  3.164834  -0.054
N  N76  1  0.94903061  0.59524887  0.18993550  1  0.381043  -0.029315  4.15976  -0.042  0.436317  -0.004485  4.464388  -0.012  0.45821  -0.007468  4.501244  -0.015  0.086482  0.423324  -0.001011  4.439946  -0.008
N  N77  1  0.55096458  0.40474712  0.68992383  1  0.381294  -0.029294  4.16018  -0.042  0.43655  -0.004476  4.464788  -0.012  0.458451  -0.00746  4.501647  -0.015  0.086455  0.423555  -0.001004  4.440344  -0.008
N  N78  1  0.05097388  0.40476254  0.81006616  1  0.38119  0.02927  4.159684  0.042  0.436441  0.004465  4.464288  0.012  0.458335  0.007449  4.501134  0.015  0.086516  0.423449  0.001003  4.439859  0.008
N  N79  1  0.44903058  0.59524624  0.31007715  1  0.381344  0.029304  4.159556  0.042  0.436589  0.004482  4.464191  0.012  0.458481  0.007462  4.501036  0.015  0.086464  0.423594  0.001012  4.439759  0.008
N  N80  1  0.91833307  0.50559637  0.17503905  1  -0.325571  0.124498  2.350291  0.129  -0.347562  0.064612  2.579504  0.071  -0.361075  0.05631  2.593182  0.065  -0.161976  -0.338799  0.064933  2.570009  0.069
N  N81  1  0.58167331  0.49439302  0.67502573  1  -0.325671  0.124422  2.35062  0.129  -0.347583  0.064583  2.579743  0.071  -0.361101  0.056281  2.593411  0.065  -0.161902  -0.338818  0.064904  2.570249  0.069
N  N82  1  0.08166768  0.49439933  0.82496055  1  -0.325349  -0.124298  2.350876  -0.129  -0.347289  -0.064543  2.580055  -0.071  -0.360782  -0.056245  2.593723  -0.065  -0.161755  -0.338516  -0.064877  2.570553  -0.069
N  N83  1  0.41833420  0.50560031  0.32498074  1  -0.325691  -0.124435  2.350371  -0.129  -0.347611  -0.064594  2.579497  -0.071  -0.361112  -0.05629  2.593165  -0.065  -0.161897  -0.33884  -0.06492  2.569999  -0.069
N  N84  1  0.95112410  0.87774326  0.27861596  1  -0.557339  -0.014274  2.953835  -0.016  -0.591203  -0.013287  3.339847  -0.017  -0.645843  -0.010472  3.34921  -0.014  -0.368059  -0.561358  -0.013772  3.336261  -0.016
N  N85  1  0.54886274  0.12225444  0.77862223  1  -0.557322  -0.014271  2.953713  -0.016  -0.591175  -0.013284  3.339703  -0.017  -0.645836  -0.010466  3.349073  -0.014  -0.367988  -0.561316  -0.01377  3.3361  -0.016
N  N86  1  0.04886079  0.12225249  0.72138639  1  -0.557222  0.01428  2.953924  0.016  -0.591083  0.013289  3.339867  0.017  -0.645743  0.010473  3.349253  0.014  -0.367983  -0.561232  0.013767  3.336271  0.016
N  N87  1  0.45112949  0.87774365  0.22137669  1  -0.557238  0.014275  2.954304  0.016  -0.591098  0.013288  3.340245  0.017  -0.645736  0.010468  3.349612  0.014  -0.367942  -0.561253  0.013767  3.336646  0.016
N  N88  1  0.89688315  0.95509257  0.32110171  1  0.393096  0.003698  4.126529  0.005  0.443944  0.001269  4.414641  0.003  0.464654  0.002635  4.448558  0.005  0.098568  0.431344  -6.6e-05  4.391661  0.001
N  N89  1  0.60310685  0.04490671  0.82111042  1  0.393223  0.00369  4.126781  0.005  0.444072  0.001262  4.414859  0.003  0.464789  0.002629  4.448774  0.005  0.098668  0.431471  -6.8e-05  4.391873  0.001
N  N90  1  0.10310732  0.04490552  0.67890270  1  0.393298  -0.003696  4.126922  -0.005  0.444195  -0.001267  4.414983  -0.003  0.464908  -0.002635  4.448902  -0.005  0.098733  0.431593  7.3e-05  4.391997  -0.001
N  N91  1  0.39689400  0.95508978  0.17889880  1  0.393229  -0.003695  4.127281  -0.005  0.44413  -0.001266  4.415291  -0.003  0.464842  -0.002635  4.449212  -0.005  0.098698  0.431527  7.1e-05  4.392308  -0.001
N  N92  1  0.84174510  0.02927553  0.36029153  1  -0.273985  -0.013031  2.371885  -0.013  -0.274226  -0.014357  2.587331  -0.016  -0.280617  -0.01268  2.600513  -0.014  -0.119376  -0.268858  -0.014948  2.577385  -0.016
N  N93  1  0.65824748  0.97073234  0.86029953  1  -0.274128  -0.013015  2.372249  -0.013  -0.27435  -0.014342  2.587656  -0.016  -0.280739  -0.012664  2.600826  -0.014  -0.119512  -0.268978  -0.014937  2.577716  -0.016
N  N94  1  0.15824380  0.97072414  0.63971425  1  -0.27425  0.013039  2.372138  0.013  -0.274538  0.014361  2.587593  0.016  -0.280933  0.012683  2.600772  0.014  -0.119582  -0.26916  0.014941  2.577645  0.016
N  N95  1  0.34175828  0.02927514  0.13971311  1  -0.274199  0.013035  2.372047  0.013  -0.274476  0.014362  2.58747  0.016  -0.280873  0.012682  2.60065  0.014  -0.119606  -0.2691  0.014944  2.577521  0.016
