# generated using pymatgen
data_CuH6C8N3O5
_symmetry_space_group_name_H-M   'P 1'
_cell_length_a   10.47640031
_cell_length_b   10.47641076
_cell_length_c   17.11097432
_cell_angle_alpha   90.01955833
_cell_angle_beta   89.98096775
_cell_angle_gamma   120.00696687
_symmetry_Int_Tables_number   1
_chemical_formula_structural   CuH6C8N3O5
_chemical_formula_sum   'Cu6 H36 C48 N18 O30'
_cell_volume   1626.29545487
_cell_formula_units_Z   6
loop_
 _symmetry_equiv_pos_site_id
 _symmetry_equiv_pos_as_xyz
  1  'x, y, z'
loop_
 _atom_site_type_symbol
 _atom_site_label
 _atom_site_symmetry_multiplicity
 _atom_site_fract_x
 _atom_site_fract_y
 _atom_site_fract_z
 _atom_site_occupancy
 _atom_site_pbe_bader_charge
 _atom_site_pbe_bader_spin_density
 _atom_site_pbe_cm5_charge
 _atom_site_pbe_ddec_charge
 _atom_site_pbe_ddec_spin_density
 _atom_site_pbe_ddec_sum_bond_order
 _atom_site_pbe_magmom
Cu  Cu0  1  0.70396457  0.14218554  0.96750533  1  1.037015  0.564899  0.739355  0.749146  0.722117  2.268794  0.565
Cu  Cu1  1  0.85771735  0.56129950  0.30086194  1  1.039105  0.56492  0.738916  0.748976  0.7234  2.267036  0.565
Cu  Cu2  1  0.43834251  0.29622162  0.63407301  1  1.036984  0.564894  0.739858  0.749367  0.722144  2.27035  0.565
Cu  Cu3  1  0.56130368  0.85771665  0.69914181  1  1.039137  0.564922  0.738961  0.749039  0.723402  2.266971  0.565
Cu  Cu4  1  0.29623485  0.43836124  0.36593408  1  1.036864  0.564895  0.739902  0.749451  0.722147  2.270098  0.565
Cu  Cu5  1  0.14218802  0.70398128  0.03250090  1  1.037147  0.564898  0.739378  0.749225  0.722103  2.26865  0.565
H  H6  1  0.67354057  0.26631450  0.13806307  1  0.156845  0.000653  0.137206  0.10649  0.000247  1.011124  0.0
H  H7  1  0.73371110  0.40680754  0.47164120  1  0.162503  0.000643  0.137396  0.106671  0.000246  1.010803  0.0
H  H8  1  0.59246971  0.32644882  0.80465860  1  0.15744  0.000651  0.137164  0.106101  0.000246  1.010219  0.0
H  H9  1  0.40680679  0.73371778  0.52835593  1  0.162557  0.000644  0.137365  0.106671  0.000246  1.010839  0.0
H  H10  1  0.32646931  0.59248345  0.19535192  1  0.157596  0.000651  0.137158  0.106155  0.000246  1.010187  0.0
H  H11  1  0.26631891  0.67354813  0.86194810  1  0.156899  0.000652  0.13723  0.106489  0.000247  1.011135  0.0
H  H12  1  0.59675157  0.72866383  0.94272744  1  0.064257  0.008194  0.113829  0.08093  0.004359  0.978241  0.005
H  H13  1  0.27106363  0.86777293  0.27597031  1  0.081859  0.008116  0.113819  0.081054  0.004361  0.978459  0.005
H  H14  1  0.13194421  0.40325496  0.60921791  1  0.080587  0.008131  0.113857  0.08082  0.004361  0.978  0.005
H  H15  1  0.86775701  0.27106837  0.72403909  1  0.08155  0.008115  0.113804  0.080988  0.004361  0.978531  0.005
H  H16  1  0.40326509  0.13195997  0.39079037  1  0.080438  0.008132  0.113864  0.080927  0.004361  0.977985  0.005
H  H17  1  0.72867128  0.59675972  0.05727605  1  0.063873  0.008199  0.113827  0.080893  0.00436  0.978149  0.005
H  H18  1  0.60984931  0.10644559  0.25685437  1  0.546452  0.000634  0.310943  0.285378  0.000454  0.993174  0.001
H  H19  1  0.89400680  0.50297598  0.59028336  1  0.53593  0.000644  0.310691  0.285267  0.000455  0.993232  0.001
H  H20  1  0.49655773  0.39077384  0.92334046  1  0.558233  0.000618  0.311043  0.285882  0.000453  0.992179  0.001
H  H21  1  0.50299029  0.89401955  0.40971799  1  0.535901  0.000644  0.310752  0.285385  0.000455  0.99307  0.001
H  H22  1  0.39077592  0.49655418  0.07666647  1  0.557655  0.000619  0.310967  0.285684  0.000453  0.992415  0.001
H  H23  1  0.10646039  0.60985419  0.74315033  1  0.546713  0.000634  0.310933  0.285397  0.000453  0.993225  0.001
H  H24  1  0.58212417  0.85162086  0.22518824  1  0.175437  0.001023  0.116995  0.127412  0.000545  1.046744  0.001
H  H25  1  0.14898151  0.72977898  0.55838472  1  0.165309  0.001016  0.117075  0.128172  0.000543  1.046857  0.001
H  H26  1  0.26962585  0.41876275  0.89155298  1  0.159696  0.001029  0.117276  0.127818  0.000547  1.046383  0.001
H  H27  1  0.72979380  0.14898519  0.44161985  1  0.165132  0.001016  0.11708  0.128145  0.000544  1.046771  0.001
H  H28  1  0.41874827  0.26961359  0.10845398  1  0.155335  0.001029  0.117245  0.127891  0.000547  1.046419  0.001
H  H29  1  0.85163236  0.58212528  0.77480736  1  0.175403  0.001023  0.116965  0.127431  0.000545  1.046736  0.001
H  H30  1  0.63335557  0.74198731  0.08614500  1  0.015631  0.000155  0.104789  0.114503  3.8e-05  0.988082  0.0
H  H31  1  0.25784702  0.89096559  0.41942296  1  0.057361  0.000146  0.104932  0.115226  3.8e-05  0.987902  0.0
H  H32  1  0.10865781  0.36698820  0.75272147  1  0.047888  0.00015  0.105138  0.114916  3.9e-05  0.988422  0.0
H  H33  1  0.89095950  0.25784725  0.58058822  1  0.057198  0.000146  0.104922  0.115189  3.8e-05  0.987844  0.0
H  H34  1  0.36698579  0.10865887  0.24728957  1  0.047712  0.00015  0.105139  0.114915  3.9e-05  0.988497  0.0
H  H35  1  0.74198912  0.63334923  0.91386097  1  0.015704  0.000155  0.104777  0.114548  3.7e-05  0.98819  0.0
H  H36  1  0.78304048  0.89099090  0.03776002  1  0.046275  0.000332  0.102961  0.11244  0.000147  0.973427  0.0
H  H37  1  0.10852074  0.89120700  0.37123344  1  0.048735  0.000323  0.103051  0.112738  0.000142  0.972811  0.0
H  H38  1  0.10779714  0.21716052  0.70436732  1  0.057007  0.000325  0.103034  0.112583  0.000145  0.972553  0.0
H  H39  1  0.89120529  0.10852215  0.62877556  1  0.04899  0.000322  0.103068  0.112726  0.000142  0.972843  0.0
H  H40  1  0.21715849  0.10780088  0.29564446  1  0.056888  0.000325  0.103019  0.112581  0.000145  0.972566  0.0
H  H41  1  0.89099746  0.78304421  0.96224503  1  0.04597  0.000333  0.103005  0.112492  0.000146  0.973369  0.0
C  C42  1  0.65602733  0.15522629  0.13796499  1  1.011184  0.00016  0.145607  0.168726  -0.000221  3.917394  0.001
C  C43  1  0.84488884  0.50025590  0.47144563  1  0.987705  0.00017  0.145415  0.169299  -0.000198  3.916013  0.002
C  C44  1  0.49900148  0.34410623  0.80452093  1  1.008049  0.000206  0.14609  0.171131  -0.000201  3.916287  0.002
C  C45  1  0.50025701  0.84489172  0.52855382  1  0.987664  0.000168  0.145452  0.169346  -0.000198  3.916011  0.002
C  C46  1  0.34411958  0.49900923  0.19548646  1  1.008024  0.000205  0.145994  0.170878  -0.0002  3.916164  0.002
C  C47  1  0.15523383  0.65603922  0.86203939  1  1.010697  0.000163  0.145548  0.168788  -0.00022  3.917287  0.001
C  C48  1  0.64802493  0.94888109  0.10477542  1  0.379294  0.00106  0.07129  0.173761  0.000426  3.998989  0.001
C  C49  1  0.05126980  0.69842906  0.43810951  1  0.377329  0.001037  0.071526  0.17424  0.000412  3.99941  0.001
C  C50  1  0.30079650  0.35224631  0.77124695  1  0.386235  0.001046  0.071566  0.17393  0.000422  4.000085  0.001
C  C51  1  0.69843135  0.05126875  0.56189528  1  0.37764  0.001037  0.071505  0.174039  0.000412  3.999429  0.001
C  C52  1  0.35224211  0.30079456  0.22876225  1  0.386645  0.001046  0.071427  0.173655  0.000423  4.000552  0.001
C  C53  1  0.94888380  0.64802706  0.89522708  1  0.379383  0.001059  0.07135  0.173904  0.000426  3.998981  0.001
C  C54  1  0.60345929  0.92688996  0.85435977  1  1.406869  -0.000277  0.212264  0.367012  -0.000289  4.175778  0.001
C  C55  1  0.07276379  0.67641967  0.18759445  1  1.385438  -0.000284  0.212552  0.366753  -0.000289  4.176975  0.001
C  C56  1  0.32355257  0.39649741  0.52097011  1  1.365343  -0.000116  0.21245  0.367186  -0.000301  4.176927  0.001
C  C57  1  0.67640831  0.07275901  0.81241327  1  1.385382  -0.000285  0.212419  0.366524  -0.000289  4.176854  0.001
C  C58  1  0.39649482  0.32355658  0.47903752  1  1.33429  -0.000149  0.212516  0.367456  -0.000304  4.176771  0.001
C  C59  1  0.92689493  0.60346151  0.14564546  1  1.406735  -0.000277  0.212251  0.366827  -0.000289  4.176106  0.001
C  C60  1  0.57725255  0.80664940  0.97662460  1  0.351741  0.013273  0.008008  0.042311  0.01011  3.87377  0.009
C  C61  1  0.19318727  0.77020475  0.30984395  1  0.32776  0.013388  0.007939  0.041347  0.010112  3.875268  0.009
C  C62  1  0.22940499  0.42287206  0.64315376  1  0.306615  0.013465  0.007864  0.041552  0.010093  3.875483  0.009
C  C63  1  0.77019803  0.19318368  0.69016144  1  0.327892  0.013387  0.008025  0.041489  0.010111  3.875162  0.009
C  C64  1  0.42287837  0.22941575  0.35685310  1  0.306577  0.013465  0.007656  0.041295  0.010094  3.875747  0.009
C  C65  1  0.80665775  0.57724943  0.02338021  1  0.352382  0.013269  0.008042  0.042463  0.010107  3.873794  0.009
C  C66  1  0.04779039  0.31854574  0.02871296  1  2.137097  -0.000179  0.356596  0.717857  -0.00051  4.149203  0.0
C  C67  1  0.68206250  0.72958521  0.36249531  1  2.140116  -0.000181  0.357345  0.718753  -0.000507  4.147858  0.0
C  C68  1  0.27092221  0.95254055  0.69495475  1  2.127342  -0.00018  0.356624  0.718015  -0.000513  4.150174  0.0
C  C69  1  0.72950782  0.68197801  0.63745115  1  2.142464  -0.000181  0.356822  0.718182  -0.000508  4.148695  0.0
C  C70  1  0.95254175  0.27089551  0.30502273  1  2.127201  -0.00018  0.356543  0.717752  -0.000513  4.149897  0.0
C  C71  1  0.31854373  0.04778419  0.97126854  1  2.136324  -0.000179  0.356622  0.717992  -0.00051  4.14925  0.0
C  C72  1  0.61125880  0.93829317  0.18263569  1  0.336513  0.006219  6.3e-05  -0.097252  0.004265  3.878364  0.005
C  C73  1  0.06214402  0.67221901  0.51592356  1  0.362408  0.006227  -0.000693  -0.098613  0.004285  3.878543  0.005
C  C74  1  0.32708136  0.38935744  0.84906138  1  0.35267  0.006233  -0.000612  -0.097342  0.004283  3.878654  0.005
C  C75  1  0.67222596  0.06214545  0.48408177  1  0.362331  0.006224  -0.000731  -0.098534  0.004282  3.878596  0.005
C  C76  1  0.38935090  0.32707371  0.15094683  1  0.35678  0.006235  -0.000588  -0.097444  0.004284  3.878892  0.005
C  C77  1  0.93829704  0.61126321  0.81736317  1  0.336603  0.006223  3.4e-05  -0.097342  0.004268  3.878188  0.005
C  C78  1  0.66594528  0.84395544  0.05345403  1  0.062121  0.004231  -0.146558  -0.243159  0.002664  3.948291  0.003
C  C79  1  0.15585243  0.82137893  0.38677859  1  -0.003878  0.004255  -0.147433  -0.245151  0.002655  3.949464  0.003
C  C80  1  0.17793966  0.33429679  0.72000859  1  0.003358  0.004255  -0.146778  -0.243285  0.002662  3.949407  0.003
C  C81  1  0.82137550  0.15585104  0.61323269  1  -0.003967  0.004253  -0.147447  -0.245039  0.002654  3.949478  0.003
C  C82  1  0.33429930  0.17794230  0.27999729  1  0.003455  0.004255  -0.146648  -0.243154  0.002662  3.949673  0.003
C  C83  1  0.84395470  0.66594070  0.94654764  1  0.061708  0.004235  -0.146647  -0.243438  0.002666  3.948523  0.003
C  C84  1  0.41174586  0.72318210  0.99618333  1  1.589302  -0.000419  0.209993  0.57396  -0.001207  4.147938  -0.002
C  C85  1  0.27693195  0.68845952  0.32937983  1  1.599406  -0.000464  0.210407  0.574389  -0.001215  4.146979  -0.002
C  C86  1  0.31145003  0.58839239  0.66262683  1  1.612141  -0.000552  0.210604  0.575638  -0.00124  4.14546  -0.003
C  C87  1  0.68844892  0.27692559  0.67061856  1  1.599266  -0.000464  0.210521  0.574449  -0.001215  4.147078  -0.002
C  C88  1  0.58839553  0.31146737  0.33737254  1  1.61205  -0.000553  0.210616  0.575618  -0.001241  4.145346  -0.003
C  C89  1  0.72318505  0.41174963  0.00382313  1  1.589298  -0.000419  0.209962  0.573914  -0.001208  4.147781  -0.002
N  N90  1  0.67493891  0.08511919  0.07777272  1  -1.192097  0.09679  -0.384894  -0.362971  0.063897  3.62082  0.083
N  N91  1  0.91487793  0.58917109  0.41120810  1  -1.182563  0.097098  -0.384605  -0.362868  0.063962  3.618794  0.084
N  N92  1  0.41004184  0.32512339  0.74431694  1  -1.195224  0.096857  -0.385054  -0.363538  0.063879  3.620831  0.083
N  N93  1  0.58916277  0.91487680  0.58879413  1  -1.182573  0.097099  -0.384609  -0.362855  0.063963  3.61874  0.084
N  N94  1  0.32512648  0.41004270  0.25569074  1  -1.195493  0.096872  -0.384997  -0.363425  0.063886  3.6207  0.083
N  N95  1  0.08511644  0.67494935  0.92223152  1  -1.191942  0.096783  -0.384832  -0.363006  0.063893  3.620797  0.083
N  N96  1  0.62501353  0.93911920  0.93045271  1  -1.205021  0.104557  -0.404336  -0.423731  0.067767  3.551683  0.086
N  N97  1  0.06068005  0.68534662  0.26373605  1  -1.200195  0.104093  -0.404634  -0.42255  0.067414  3.552263  0.086
N  N98  1  0.31419182  0.37507835  0.59706268  1  -1.163925  0.104197  -0.404851  -0.423158  0.067672  3.55239  0.086
N  N99  1  0.68534016  0.06067577  0.73627282  1  -1.200324  0.104091  -0.404552  -0.422456  0.067414  3.552117  0.086
N  N100  1  0.37509001  0.31420790  0.40294369  1  -1.164051  0.104198  -0.404856  -0.423284  0.067674  3.552525  0.086
N  N101  1  0.93912056  0.62501322  0.06955379  1  -1.2049  0.10456  -0.404309  -0.423546  0.06777  3.551806  0.086
N  N102  1  0.61660779  0.06862279  0.20184994  1  -1.306213  0.003788  -0.378786  -0.19622  0.001895  3.697634  0.002
N  N103  1  0.93174561  0.54738576  0.53524638  1  -1.281547  0.003798  -0.378348  -0.196854  0.001908  3.698292  0.002
N  N104  1  0.45192760  0.38385137  0.86835033  1  -1.30889  0.003807  -0.37917  -0.198919  0.001898  3.698661  0.002
N  N105  1  0.54739344  0.93174947  0.46475578  1  -1.281498  0.003799  -0.37838  -0.196956  0.001908  3.698373  0.002
N  N106  1  0.38385716  0.45192779  0.13165646  1  -1.30773  0.003805  -0.37896  -0.198411  0.001898  3.698478  0.002
N  N107  1  0.06863464  0.61661526  0.79815409  1  -1.306386  0.003787  -0.378828  -0.19637  0.001894  3.697863  0.002
O  O108  1  0.03626720  0.26046791  0.96800117  1  -1.089263  -0.000951  -0.187536  -0.377593  -0.000995  2.190147  0.0
O  O109  1  0.74061237  0.77632973  0.30189979  1  -1.093362  -0.000951  -0.187847  -0.378089  -0.000992  2.189057  0.0
O  O110  1  0.22459216  0.96379665  0.63412775  1  -1.086896  -0.000952  -0.187488  -0.377965  -0.000995  2.190194  0.0
O  O111  1  0.77626731  0.74051853  0.69804053  1  -1.09471  -0.000951  -0.18761  -0.37785  -0.000991  2.189474  0.0
O  O112  1  0.96378643  0.22457500  0.36584905  1  -1.086421  -0.000952  -0.187496  -0.377773  -0.000995  2.190631  0.0
O  O113  1  0.26043181  0.03625341  0.03197079  1  -1.088772  -0.000951  -0.18762  -0.377798  -0.000995  2.189964  0.0
O  O114  1  0.72826815  0.19202794  0.85253566  1  -1.111623  0.098402  -0.314052  -0.467771  0.062733  2.2888  0.088
O  O115  1  0.80763693  0.53563811  0.18575635  1  -1.119473  0.098617  -0.313924  -0.467926  0.06295  2.285945  0.088
O  O116  1  0.46419254  0.27203478  0.51912699  1  -1.096007  0.098342  -0.313895  -0.468281  0.062651  2.289277  0.088
O  O117  1  0.53565103  0.80763290  0.81424602  1  -1.119535  0.098621  -0.313992  -0.467973  0.062954  2.28575  0.088
O  O118  1  0.27204969  0.46421295  0.48088244  1  -1.095846  0.098326  -0.31397  -0.468257  0.062641  2.289268  0.088
O  O119  1  0.19203231  0.72829222  0.14747313  1  -1.111776  0.098406  -0.314042  -0.467813  0.062734  2.288906  0.088
O  O120  1  0.80233655  0.35128756  0.99497500  1  -1.111572  0.093595  -0.320292  -0.51799  0.059557  2.40269  0.085
O  O121  1  0.64869153  0.45102792  0.32830962  1  -1.111945  0.093626  -0.320473  -0.518552  0.059545  2.402891  0.085
O  O122  1  0.54890699  0.19779488  0.66144441  1  -1.117189  0.093673  -0.320392  -0.518179  0.059642  2.404536  0.085
O  O123  1  0.45101317  0.64869195  0.67168680  1  -1.111757  0.093624  -0.320483  -0.518625  0.059543  2.402841  0.085
O  O124  1  0.19780423  0.54892072  0.33855629  1  -1.117159  0.093671  -0.320355  -0.518194  0.05964  2.404353  0.085
O  O125  1  0.35129127  0.80233997  0.00503326  1  -1.111555  0.093581  -0.32037  -0.518068  0.059549  2.402714  0.085
O  O126  1  0.05895572  0.37331923  0.08997181  1  -1.072221  -0.000285  -0.167711  -0.346459  -0.000346  2.282343  0.0
O  O127  1  0.62671791  0.68572212  0.42359282  1  -1.071408  -0.000288  -0.167942  -0.346746  -0.000348  2.283792  0.0
O  O128  1  0.31426036  0.94160912  0.75631742  1  -1.064875  -0.000284  -0.168058  -0.3465  -0.000344  2.283218  0.0
O  O129  1  0.68566659  0.62667848  0.57633700  1  -1.072644  -0.000288  -0.16767  -0.346381  -0.000348  2.284074  0.0
O  O130  1  0.94161343  0.31424005  0.24365256  1  -1.065205  -0.000284  -0.167963  -0.346415  -0.000344  2.282446  0.0
O  O131  1  0.37333840  0.05895523  0.91002449  1  -1.071962  -0.000285  -0.167655  -0.346395  -0.000346  2.282648  0.0
O  O132  1  0.34841631  0.58527112  0.00372337  1  -1.212913  0.004147  -0.325675  -0.586553  0.001981  2.213741  0.004
O  O133  1  0.41489819  0.76311739  0.33666950  1  -1.217064  0.004143  -0.325812  -0.58647  0.001982  2.213605  0.004
O  O134  1  0.23699745  0.65189347  0.66999773  1  -1.215589  0.004136  -0.325589  -0.587022  0.001973  2.213936  0.004
O  O135  1  0.76310287  0.41488776  0.66331546  1  -1.21676  0.004141  -0.325858  -0.586465  0.001981  2.213529  0.004
O  O136  1  0.65190075  0.23701452  0.33000394  1  -1.215315  0.004138  -0.32561  -0.587028  0.001974  2.213706  0.004
O  O137  1  0.58527040  0.34842096  0.99628369  1  -1.212805  0.004148  -0.325677  -0.586544  0.001982  2.213424  0.004
