# generated using pymatgen
data_MnH4C6(NO2)2
_symmetry_space_group_name_H-M   'P 1'
_cell_length_a   9.36859192
_cell_length_b   10.45161379
_cell_length_c   9.51985330
_cell_angle_alpha   90.00038281
_cell_angle_beta   90.00008264
_cell_angle_gamma   89.99966938
_symmetry_Int_Tables_number   1
_chemical_formula_structural   MnH4C6(NO2)2
_chemical_formula_sum   'Mn4 H16 C24 N8 O16'
_cell_volume   932.15456579
_cell_formula_units_Z   4
loop_
 _symmetry_equiv_pos_site_id
 _symmetry_equiv_pos_as_xyz
  1  'x, y, z'
loop_
 _atom_site_type_symbol
 _atom_site_label
 _atom_site_symmetry_multiplicity
 _atom_site_fract_x
 _atom_site_fract_y
 _atom_site_fract_z
 _atom_site_occupancy
 _atom_site_pbe_bader_charge
 _atom_site_pbe_bader_spin_density
 _atom_site_pbe_cm5_charge
 _atom_site_pbe_ddec_charge
 _atom_site_pbe_ddec_spin_density
 _atom_site_pbe_ddec_sum_bond_order
 _atom_site_pbe_magmom
Mn  Mn0  1  0.55231525  0.53175382  0.31902398  1  1.518142  4.486911  0.606341  0.897518  4.629197  2.457554  4.414
Mn  Mn1  1  0.94768361  0.46824556  0.81902444  1  1.517987  4.486947  0.606324  0.897466  4.629212  2.457476  4.414
Mn  Mn2  1  0.44768629  0.03174857  0.18096965  1  1.518075  4.486877  0.606407  0.897592  4.629238  2.457565  4.414
Mn  Mn3  1  0.05231474  0.96825064  0.68097076  1  1.518179  4.486761  0.6064  0.89762  4.629115  2.457743  4.414
H  H4  1  0.76469422  0.42395196  0.09728403  1  0.081152  0.001588  0.110492  0.014619  0.000347  1.002481  0.0
H  H5  1  0.73529155  0.57603640  0.59730483  1  0.081189  0.001589  0.110519  0.014658  0.000347  1.002475  0.0
H  H6  1  0.23529631  0.92394987  0.40269441  1  0.081048  0.001589  0.110505  0.014671  0.000347  1.002376  0.0
H  H7  1  0.26470712  0.07604218  0.90268560  1  0.081123  0.001589  0.110517  0.014714  0.000347  1.002344  0.0
H  H8  1  0.19405440  0.31083119  0.96525559  1  0.110531  0.002337  0.127391  0.104636  0.001058  1.009286  0.001
H  H9  1  0.30594698  0.68918327  0.46527552  1  0.110471  0.002337  0.127386  0.104642  0.001058  1.009313  0.001
H  H10  1  0.80594387  0.81082942  0.53474170  1  0.11052  0.002337  0.127389  0.104642  0.001058  1.009264  0.001
H  H11  1  0.69405143  0.18917576  0.03473179  1  0.110559  0.002337  0.127397  0.104623  0.001058  1.009395  0.001
H  H12  1  0.09746984  0.69916676  0.98746200  1  0.166276  0.001805  0.130842  0.112087  0.000649  0.993882  0.001
H  H13  1  0.40249848  0.30083732  0.48742378  1  0.165976  0.001805  0.130789  0.111994  0.000649  0.993858  0.001
H  H14  1  0.90250885  0.19916853  0.51255553  1  0.166195  0.001805  0.130812  0.112076  0.000648  0.9939  0.001
H  H15  1  0.59750671  0.80082694  0.01256958  1  0.166003  0.001806  0.130793  0.112007  0.000649  0.993781  0.001
H  H16  1  0.30045170  0.73137673  0.15918061  1  0.15809  0.001641  0.12465  0.109733  0.000219  1.04487  0.001
H  H17  1  0.19955250  0.26863861  0.65916460  1  0.158096  0.00164  0.124637  0.109774  0.000219  1.045071  0.001
H  H18  1  0.69953684  0.23137406  0.34082594  1  0.158001  0.001641  0.124643  0.109777  0.000219  1.044916  0.001
H  H19  1  0.80047165  0.76862068  0.84082610  1  0.158056  0.001641  0.124628  0.109815  0.000219  1.044843  0.001
C  C20  1  0.33148398  0.42317908  0.10079213  1  0.507856  0.011179  0.119023  0.056258  0.006867  3.956329  0.004
C  C21  1  0.16852228  0.57681579  0.60080548  1  0.50879  0.011185  0.11905  0.056231  0.006874  3.956557  0.004
C  C22  1  0.66850656  0.92318041  0.39921152  1  0.50739  0.011175  0.119066  0.056349  0.006862  3.956233  0.004
C  C23  1  0.83149453  0.07682523  0.89920492  1  0.507138  0.011181  0.118959  0.056218  0.006867  3.956419  0.004
C  C24  1  0.75030324  0.52628060  0.06897826  1  1.546942  0.016019  0.156346  0.494246  0.016489  4.201692  0.014
C  C25  1  0.74968997  0.47371810  0.56898788  1  1.546697  0.016014  0.156257  0.494246  0.016483  4.201844  0.014
C  C26  1  0.24969192  0.02627803  0.43100904  1  1.546812  0.016025  0.156353  0.494306  0.016493  4.2016  0.014
C  C27  1  0.25031582  0.97371708  0.93100421  1  1.546369  0.016023  0.156282  0.494262  0.016489  4.20171  0.014
C  C28  1  0.43144813  0.31668055  0.14023258  1  1.591999  0.031466  0.223504  0.548499  0.030081  4.218438  0.024
C  C29  1  0.06855604  0.68330883  0.64023809  1  1.593122  0.031469  0.223508  0.548489  0.030092  4.218304  0.024
C  C30  1  0.56855055  0.81667929  0.35975879  1  1.593089  0.031461  0.223593  0.548529  0.030086  4.21855  0.024
C  C31  1  0.93146544  0.18332323  0.85976989  1  1.592722  0.031469  0.223453  0.548363  0.03009  4.218858  0.024
C  C32  1  0.21739746  0.40498954  0.00869287  1  0.535366  0.009109  0.069306  0.052707  0.007014  3.878764  0.005
C  C33  1  0.28259801  0.59501429  0.50869812  1  0.534584  0.009106  0.069355  0.052748  0.007011  3.878845  0.005
C  C34  1  0.78259959  0.90498896  0.49130751  1  0.53534  0.009114  0.069297  0.052716  0.007018  3.878676  0.005
C  C35  1  0.71740375  0.09501537  0.99130505  1  0.535312  0.009115  0.06928  0.052757  0.007018  3.878776  0.005
C  C36  1  0.16255078  0.61900262  0.02301415  1  0.432796  0.026586  0.070067  0.067427  0.020507  3.862141  0.015
C  C37  1  0.33742337  0.38099269  0.52299387  1  0.433466  0.026589  0.070114  0.067555  0.02051  3.862374  0.015
C  C38  1  0.83743740  0.11900393  0.47699899  1  0.433378  0.026586  0.070166  0.067582  0.020508  3.86213  0.015
C  C39  1  0.66257553  0.88100318  0.97700809  1  0.433804  0.026587  0.070055  0.067598  0.020509  3.862361  0.015
C  C40  1  0.27519524  0.63702185  0.11728046  1  0.560915  0.004035  0.065186  0.061959  0.002704  3.888226  0.001
C  C41  1  0.22480891  0.36297981  0.61727774  1  0.560924  0.004034  0.065125  0.061829  0.002704  3.888935  0.001
C  C42  1  0.72479069  0.13702123  0.38272334  1  0.561161  0.004034  0.065233  0.061879  0.002704  3.888182  0.001
C  C43  1  0.77521252  0.86298143  0.88272410  1  0.560733  0.004039  0.06528  0.061815  0.002707  3.88827  0.001
N  N44  1  0.35854855  0.53932871  0.15674299  1  -1.214507  0.069034  -0.280339  -0.223758  0.051971  3.454566  0.04
N  N45  1  0.14145672  0.46066747  0.65674395  1  -1.214555  0.069043  -0.280308  -0.223728  0.051978  3.454933  0.04
N  N46  1  0.64144227  0.03932541  0.34325280  1  -1.214532  0.069031  -0.280466  -0.223843  0.051974  3.454569  0.04
N  N47  1  0.85856623  0.96067509  0.84325436  1  -1.214184  0.069032  -0.280349  -0.22372  0.051977  3.454582  0.04
N  N48  1  0.13285463  0.50260845  0.97032980  1  -1.240539  0.056753  -0.29397  -0.208627  0.039533  3.500296  0.024
N  N49  1  0.36712647  0.49738978  0.47033382  1  -1.24122  0.056767  -0.293966  -0.2086  0.039539  3.500378  0.024
N  N50  1  0.86713490  0.00260956  0.52968115  1  -1.241155  0.056758  -0.294001  -0.208739  0.039537  3.500469  0.024
N  N51  1  0.63286467  0.99739750  0.02968189  1  -1.241131  0.056764  -0.293882  -0.208656  0.039538  3.500503  0.024
O  O52  1  0.67870427  0.59682902  0.15156795  1  -1.185112  0.072009  -0.319541  -0.514354  0.049252  2.367369  0.034
O  O53  1  0.82129438  0.40316640  0.65155725  1  -1.185005  0.072008  -0.319521  -0.514347  0.049247  2.367392  0.034
O  O54  1  0.32130113  0.09682648  0.34843243  1  -1.184929  0.071995  -0.319579  -0.514413  0.049251  2.367443  0.034
O  O55  1  0.17870971  0.90316713  0.84842386  1  -1.184601  0.071992  -0.319527  -0.514436  0.049248  2.367329  0.034
O  O56  1  0.41527631  0.20976294  0.07838461  1  -1.185184  0.061744  -0.30657  -0.542426  0.040211  2.330625  0.021
O  O57  1  0.08470217  0.79023465  0.57839507  1  -1.186018  0.061772  -0.306674  -0.542569  0.040209  2.330404  0.021
O  O58  1  0.58471770  0.70976295  0.42161863  1  -1.185613  0.061737  -0.306607  -0.542472  0.040207  2.330553  0.021
O  O59  1  0.91528662  0.29023997  0.92162308  1  -1.18538  0.061737  -0.306548  -0.542404  0.040212  2.33074  0.021
O  O60  1  0.80601642  0.56553088  0.95566227  1  -1.201809  0.075316  -0.313004  -0.502097  0.052077  2.364609  0.039
O  O61  1  0.69398581  0.43447514  0.45566348  1  -1.20176  0.075312  -0.31296  -0.50215  0.052076  2.364673  0.039
O  O62  1  0.19397379  0.06552320  0.54433335  1  -1.201723  0.07532  -0.312976  -0.502164  0.052083  2.364636  0.039
O  O63  1  0.30601853  0.93447512  0.04432764  1  -1.20159  0.075298  -0.312966  -0.502153  0.052076  2.364835  0.039
O  O64  1  0.52723092  0.34120408  0.23069107  1  -1.182903  0.0725  -0.289735  -0.528405  0.051809  2.332194  0.039
O  O65  1  0.97276570  0.65880429  0.73069077  1  -1.183054  0.072498  -0.289727  -0.528353  0.051818  2.332353  0.039
O  O66  1  0.47276654  0.84120369  0.26930362  1  -1.183026  0.072502  -0.28979  -0.528455  0.051814  2.332452  0.039
O  O67  1  0.02724634  0.15878462  0.76931389  1  -1.182837  0.072495  -0.289715  -0.528366  0.051812  2.332421  0.039
