# generated using pymatgen
data_CdH9C13N(O3F2)2
_symmetry_space_group_name_H-M   'P 1'
_cell_length_a   6.13327711
_cell_length_b   7.86526843
_cell_length_c   30.20245409
_cell_angle_alpha   89.99959455
_cell_angle_beta   90.00008348
_cell_angle_gamma   89.99985604
_symmetry_Int_Tables_number   1
_chemical_formula_structural   CdH9C13N(O3F2)2
_chemical_formula_sum   'Cd4 H36 C52 N4 O24 F16'
_cell_volume   1456.96248280
_cell_formula_units_Z   4
loop_
 _symmetry_equiv_pos_site_id
 _symmetry_equiv_pos_as_xyz
  1  'x, y, z'
loop_
 _atom_site_type_symbol
 _atom_site_label
 _atom_site_symmetry_multiplicity
 _atom_site_fract_x
 _atom_site_fract_y
 _atom_site_fract_z
 _atom_site_occupancy
 _atom_site_hle17_bader_spin_density
 _atom_site_hle17_ddec_charge
 _atom_site_hle17_ddec_spin_density
 _atom_site_hle17_ddec_sum_bond_order
 _atom_site_hle17_magmom
 _atom_site_hse06_10hf_bader_charge
 _atom_site_hse06_10hf_bader_spin_density
 _atom_site_hse06_10hf_ddec_charge
 _atom_site_hse06_10hf_ddec_spin_density
 _atom_site_hse06_10hf_ddec_sum_bond_order
 _atom_site_hse06_10hf_magmom
 _atom_site_hse06_bader_spin_density
 _atom_site_hse06_ddec_charge
 _atom_site_hse06_ddec_spin_density
 _atom_site_hse06_ddec_sum_bond_order
 _atom_site_hse06_magmom
 _atom_site_pbe_bader_spin_density
 _atom_site_pbe_cm5_charge
 _atom_site_pbe_ddec_charge
 _atom_site_pbe_ddec_spin_density
 _atom_site_pbe_ddec_sum_bond_order
 _atom_site_pbe_magmom
Cd  Cd0  1  0.11782329  0.34345394  0.30062692  1  0  1.267231  0  1.619247  0  1.386099  0  1.090667  0  2.074142  0  0  1.142778  0  2.017469  0  0  0.795923  1.05326  0  2.11335  0
Cd  Cd1  1  0.38218724  0.65654501  0.80062445  1  0  1.267238  0  1.619383  0  1.386131  0  1.090702  0  2.074293  0  0  1.142806  0  2.017627  0  0  0.795926  1.053301  0  2.113507  0
Cd  Cd2  1  0.61782843  0.15654794  0.69937226  1  0  1.267289  0  1.619156  0  1.386064  0  1.090711  0  2.074061  0  0  1.14283  0  2.017371  0  0  0.795981  1.053301  0  2.11327  0
Cd  Cd3  1  0.88218189  0.84346162  0.19937652  1  0  1.267202  0  1.619321  0  1.386123  0  1.090647  0  2.074243  0  0  1.142766  0  2.017555  0  0  0.795923  1.053247  0  2.113454  0
H  H4  1  0.83130200  0.25445321  0.38662477  1  0  0.089795  0  0.944135  0  0.129195  0  0.098502  0  1.006731  0  0  0.101363  0  1.004247  0  0  0.11529  0.096341  0  1.008674  0
H  H5  1  0.66870143  0.74553227  0.88662901  1  0  0.089786  0  0.944082  0  0.129374  0  0.09841  0  1.006743  0  0  0.10127  0  1.004259  0  0  0.115274  0.096242  0  1.008694  0
H  H6  1  0.33130744  0.24554189  0.61337216  1  0  0.089819  0  0.944176  0  0.129242  0  0.098486  0  1.006811  0  0  0.101343  0  1.004333  0  0  0.115346  0.096324  0  1.008751  0
H  H7  1  0.16870346  0.75446208  0.11337289  1  0  0.089767  0  0.944175  0  0.129185  0  0.098416  0  1.006819  0  0  0.101276  0  1.004333  0  0  0.115261  0.096256  0  1.008764  0
H  H8  1  0.82589237  0.30320950  0.46914186  1  0  0.101367  0  0.960298  0  0.07158  0  0.109887  0  1.022392  0  0  0.11236  0  1.022867  0  0  0.101525  0.108138  0  1.0222  0
H  H9  1  0.67411325  0.69677377  0.96914587  1  0  0.101238  0  0.960059  0  0.071958  0  0.10977  0  1.022179  0  0  0.112248  0  1.02265  0  0  0.101464  0.108018  0  1.021992  0
H  H10  1  0.32586643  0.19677924  0.53085706  1  0  0.101337  0  0.960155  0  0.071799  0  0.109846  0  1.022307  0  0  0.11232  0  1.022771  0  0  0.101503  0.108094  0  1.022121  0
H  H11  1  0.17410152  0.80321294  0.03085637  1  0  0.101287  0  0.96033  0  0.071644  0  0.10988  0  1.022359  0  0  0.112354  0  1.022834  0  0  0.101511  0.108131  0  1.022167  0
H  H12  1  0.13949574  0.45779949  0.50400599  1  0  0.092077  0  0.950133  0  0.066366  0  0.098206  0  1.018143  0  0  0.101924  0  1.014034  0  0  0.099677  0.095522  0  1.021084  0
H  H13  1  0.36049322  0.54218960  0.00400585  1  0  0.092094  0  0.950104  0  0.066701  0  0.098213  0  1.018122  0  0  0.101928  0  1.014012  0  0  0.099677  0.095529  0  1.02106  0
H  H14  1  0.63947052  0.04220107  0.49599121  1  0  0.09218  0  0.950026  0  0.066469  0  0.098284  0  1.018062  0  0  0.102  0  1.013947  0  0  0.099714  0.0956  0  1.021005  0
H  H15  1  0.86049127  0.95780564  0.99599347  1  0  0.092062  0  0.949994  0  0.066398  0  0.098174  0  1.018022  0  0  0.101894  0  1.013915  0  0  0.099649  0.09549  0  1.020961  0
H  H16  1  0.45100263  0.55208396  0.45544433  1  0  0.108326  0  0.954384  0  0.111692  0  0.111231  0  1.024002  0  0  0.115609  0  1.02122  0  0  0.100441  0.108136  0  1.025992  0
H  H17  1  0.04898775  0.44790577  0.95544182  1  0  0.10839  0  0.954364  0  0.111583  0  0.111246  0  1.024032  0  0  0.115622  0  1.021257  0  0  0.100465  0.108155  0  1.026017  0
H  H18  1  0.95099439  0.94791491  0.54455071  1  0  0.108387  0  0.954521  0  0.11187  0  0.111217  0  1.024143  0  0  0.115594  0  1.021366  0  0  0.100422  0.108126  0  1.026129  0
H  H19  1  0.54899206  0.05208989  0.04455767  1  0  0.108302  0  0.954443  0  0.111684  0  0.11122  0  1.02404  0  0  0.115596  0  1.02126  0  0  0.100455  0.108124  0  1.026027  0
H  H20  1  0.42940388  0.49083605  0.37374506  1  0  0.092307  0  0.953444  0  0.115509  0  0.099373  0  1.018802  0  0  0.102669  0  1.015432  0  0  0.11513  0.097298  0  1.020846  0
H  H21  1  0.07061204  0.50914823  0.87374310  1  0  0.092421  0  0.953395  0  0.115249  0  0.09947  0  1.018771  0  0  0.102757  0  1.015422  0  0  0.115168  0.097396  0  1.020814  0
H  H22  1  0.92939921  0.00914613  0.62625024  1  0  0.092205  0  0.953485  0  0.115263  0  0.099318  0  1.018792  0  0  0.102618  0  1.015418  0  0  0.115081  0.097238  0  1.020852  0
H  H23  1  0.57061388  0.99084377  0.12625612  1  0  0.092351  0  0.953444  0  0.115233  0  0.09938  0  1.018835  0  0  0.102666  0  1.015491  0  0  0.11513  0.097307  0  1.020875  0
H  H24  1  0.66709924  0.19023543  0.30420832  1  0  0.443958  0  0.840496  0  0.676556  0  0.416873  0  0.896542  0  0  0.427236  0  0.881476  0  0  0.300667  0.40944  0  0.907355  0
H  H25  1  0.83290201  0.80977260  0.80420753  1  0  0.444005  0  0.840589  0  0.676554  0  0.416923  0  0.896503  0  0  0.427286  0  0.881437  0  0  0.300728  0.409491  0  0.907315  0
H  H26  1  0.16710503  0.30976762  0.69578988  1  0  0.443623  0  0.840953  0  0.6766  0  0.416614  0  0.896833  0  0  0.426969  0  0.88179  0  0  0.300598  0.409184  0  0.907641  0
H  H27  1  0.33290154  0.69022905  0.19579244  1  0  0.443979  0  0.840483  0  0.676558  0  0.416893  0  0.896519  0  0  0.427258  0  0.881449  0  0  0.300694  0.409461  0  0.907331  0
H  H28  1  0.85418863  0.05588013  0.29544793  1  0  0.421735  0  0.89152  0  0.657285  0  0.387071  0  0.961871  0  0  0.39833  0  0.945769  0  0  0.285125  0.379102  0  0.973271  0
H  H29  1  0.64581092  0.94411924  0.79544683  1  0  0.421705  0  0.891556  0  0.657189  0  0.387026  0  0.96193  0  0  0.398286  0  0.945825  0  0  0.285117  0.379057  0  0.973329  0
H  H30  1  0.35419732  0.44412637  0.70455199  1  0  0.421799  0  0.891431  0  0.657133  0  0.387083  0  0.961859  0  0  0.398343  0  0.945755  0  0  0.285123  0.379113  0  0.97326  0
H  H31  1  0.14580604  0.55588151  0.20455341  1  0  0.421749  0  0.891491  0  0.657125  0  0.387088  0  0.961837  0  0  0.398345  0  0.945739  0  0  0.285145  0.37912  0  0.973235  0
H  H32  1  0.43167135  0.61890782  0.28953755  1  0  0.428185  0  0.868455  0  0.653749  0  0.394066  0  0.937438  0  0  0.405087  0  0.921442  0  0  0.288503  0.386291  0  0.948662  0
H  H33  1  0.06836030  0.38107617  0.78953516  1  0  0.428208  0  0.868436  0  0.653647  0  0.39407  0  0.937413  0  0  0.405113  0  0.921402  0  0  0.288523  0.386297  0  0.948633  0
H  H34  1  0.93163510  0.88108727  0.71046410  1  0  0.428199  0  0.868455  0  0.653692  0  0.394081  0  0.937415  0  0  0.405109  0  0.921416  0  0  0.288539  0.386306  0  0.948638  0
H  H35  1  0.56833454  0.11891436  0.21046400  1  0  0.428173  0  0.86846  0  0.653705  0  0.39406  0  0.937434  0  0  0.405083  0  0.921433  0  0  0.288509  0.386282  0  0.948661  0
H  H36  1  0.50317490  0.45051841  0.26400701  1  0  0.423016  0  0.876645  0  0.647742  0  0.389275  0  0.947064  0  0  0.401337  0  0.92945  0  0  0.288957  0.380727  0  0.95953  0
H  H37  1  0.99683259  0.54947289  0.76400809  1  0  0.423059  0  0.876667  0  0.647783  0  0.389293  0  0.947066  0  0  0.401355  0  0.929451  0  0  0.288956  0.38075  0  0.959526  0
H  H38  1  0.00316711  0.04947225  0.73599213  1  0  0.423098  0  0.876576  0  0.647823  0  0.389324  0  0.947016  0  0  0.401385  0  0.929403  0  0  0.288969  0.380778  0  0.95948  0
H  H39  1  0.49682668  0.95052462  0.23599392  1  0  0.423027  0  0.876598  0  0.647738  0  0.38928  0  0.947063  0  0  0.401341  0  0.92945  0  0  0.288925  0.380734  0  0.959526  0
C  C40  1  0.10165035  0.27235523  0.11567215  1  0  0.208334  0  3.79013  0  0.593823  0  0.165778  0  4.100301  0  0  0.1776  0  4.106192  0  0  0.090622  0.158646  0  4.095724  0
C  C41  1  0.39832958  0.72766011  0.61567121  1  0  0.20843  0  3.789552  0  0.593851  0  0.165986  0  4.099614  0  0  0.177815  0  4.105498  0  0  0.090615  0.15886  0  4.095031  0
C  C42  1  0.60166630  0.22764668  0.88432670  1  0  0.208409  0  3.789811  0  0.593601  0  0.165866  0  4.100023  0  0  0.177685  0  4.105918  0  0  0.09064  0.158736  0  4.095443  0
C  C43  1  0.89835669  0.77234777  0.38432978  1  0  0.208458  0  3.789457  0  0.593187  0  0.16602  0  4.099587  0  0  0.177849  0  4.105473  0  0  0.090738  0.158894  0  4.095003  0
C  C44  1  0.03951857  0.32800049  0.07376986  1  0  0.113915  0  3.827861  0  0.524127  0  0.076828  0  4.141351  0  0  0.084586  0  4.147612  0  0  0.080186  0.071581  0  4.136696  0
C  C45  1  0.46044314  0.67199563  0.57376706  1  0  0.114036  0  3.827197  0  0.524298  0  0.076754  0  4.140958  0  0  0.084518  0  4.147215  0  0  0.080174  0.071504  0  4.136303  0
C  C46  1  0.53953335  0.17199518  0.92622929  1  0  0.113985  0  3.827737  0  0.524437  0  0.076822  0  4.141286  0  0  0.084577  0  4.147556  0  0  0.080152  0.071576  0  4.13663  0
C  C47  1  0.96047198  0.82801085  0.42623527  1  0  0.113969  0  3.82732  0  0.524352  0  0.07677  0  4.140926  0  0  0.084533  0  4.147179  0  0  0.080061  0.071521  0  4.136272  0
C  C48  1  0.84592091  0.41840226  0.06896599  1  0  0.11186  0  3.827663  0  0.585313  0  0.075417  0  4.140073  0  0  0.082579  0  4.14837  0  0  0.080245  0.070218  0  4.135112  0
C  C49  1  0.65405428  0.58161079  0.56896657  1  0  0.111947  0  3.827933  0  0.585098  0  0.075442  0  4.14042  0  0  0.082586  0  4.14874  0  0  0.080157  0.07025  0  4.135451  0
C  C50  1  0.34593228  0.08161442  0.93103392  1  0  0.111774  0  3.827929  0  0.585157  0  0.07541  0  4.140237  0  0  0.082567  0  4.148542  0  0  0.080232  0.070211  0  4.135276  0
C  C51  1  0.15407425  0.91839122  0.43103566  1  0  0.111682  0  3.827578  0  0.585642  0  0.075246  0  4.140018  0  0  0.082398  0  4.148326  0  0  0.080122  0.070049  0  4.135056  0
C  C52  1  0.72082962  0.45628871  0.10620827  1  0  0.206971  0  3.786682  0  0.468732  0  0.164075  0  4.101957  0  0  0.174115  0  4.108969  0  0  0.088844  0.157035  0  4.097535  0
C  C53  1  0.77915399  0.54371318  0.60620731  1  0  0.206705  0  3.786877  0  0.468664  0  0.164034  0  4.10203  0  0  0.17408  0  4.109045  0  0  0.088831  0.156989  0  4.097605  0
C  C54  1  0.22083106  0.04371424  0.89379127  1  0  0.20688  0  3.786781  0  0.468623  0  0.164042  0  4.102005  0  0  0.174084  0  4.109019  0  0  0.088837  0.157  0  4.097583  0
C  C55  1  0.27918662  0.95629366  0.39379430  1  0  0.206882  0  3.786505  0  0.469065  0  0.164  0  4.101779  0  0  0.17405  0  4.108787  0  0  0.088822  0.156954  0  4.097357  0
C  C56  1  0.78504021  0.40520400  0.14838669  1  0  -0.133252  0  3.716384  0  0.107455  0  -0.141348  0  3.988292  0  0  -0.144803  0  4.003862  0  0  -0.017307  -0.139184  0  3.977964  0
C  C57  1  0.71496650  0.59480566  0.64838726  1  0  -0.133071  0  3.716249  0  0.107481  0  -0.141377  0  3.988309  0  0  -0.144833  0  4.003877  0  0  -0.017307  -0.139208  0  3.977976  0
C  C58  1  0.28502654  0.09481026  0.85161387  1  0  -0.133038  0  3.716203  0  0.107408  0  -0.141216  0  3.988297  0  0  -0.144672  0  4.003868  0  0  -0.017195  -0.139049  0  3.977965  0
C  C59  1  0.21497619  0.90520004  0.35161631  1  0  -0.133248  0  3.716204  0  0.107035  0  -0.14137  0  3.988222  0  0  -0.144834  0  4.003793  0  0  -0.017356  -0.139197  0  3.97789  0
C  C60  1  0.97660355  0.30786695  0.15291327  1  0  -0.133032  0  3.730053  0  0.083341  0  -0.137552  0  3.996506  0  0  -0.140868  0  4.010729  0  0  -0.015447  -0.13527  0  3.98641  0
C  C61  1  0.52339015  0.69214004  0.65291128  1  0  -0.13334  0  3.729816  0  0.083472  0  -0.137727  0  3.996295  0  0  -0.141044  0  4.010519  0  0  -0.015497  -0.13545  0  3.986188  0
C  C62  1  0.47659932  0.19214056  0.84708636  1  0  -0.133187  0  3.729811  0  0.083541  0  -0.137793  0  3.996496  0  0  -0.141112  0  4.010719  0  0  -0.015579  -0.135515  0  3.986395  0
C  C63  1  0.02341316  0.80786096  0.34709025  1  0  -0.132993  0  3.729701  0  0.083508  0  -0.137633  0  3.99631  0  0  -0.140942  0  4.010527  0  0  -0.015461  -0.135362  0  3.986208  0
C  C64  1  0.05258554  0.25078340  0.19829095  1  0  0.703097  0  3.887094  0  1.694695  0  0.641763  0  4.195082  0  0  0.677798  0  4.18426  0  0  0.221002  0.617392  0  4.201354  0
C  C65  1  0.44741778  0.74923864  0.69829097  1  0  0.703215  0  3.886847  0  1.694732  0  0.641638  0  4.195226  0  0  0.67767  0  4.184409  0  0  0.220983  0.617275  0  4.20149  0
C  C66  1  0.55259760  0.24920844  0.80170788  1  0  0.702988  0  3.887015  0  1.694792  0  0.641665  0  4.194978  0  0  0.677703  0  4.184154  0  0  0.220915  0.617297  0  4.201248  0
C  C67  1  0.94743787  0.75076914  0.30171069  1  0  0.702868  0  3.887227  0  1.695306  0  0.641579  0  4.195189  0  0  0.677611  0  4.184374  0  0  0.220948  0.617217  0  4.201452  0
C  C68  1  0.65586462  0.45887499  0.18903398  1  0  0.696262  0  3.882681  0  1.680712  0  0.636403  0  4.193275  0  0  0.671072  0  4.183731  0  0  0.218217  0.612977  0  4.198948  0
C  C69  1  0.84412932  0.54113231  0.68903271  1  0  0.696214  0  3.882915  0  1.680746  0  0.63639  0  4.193507  0  0  0.671063  0  4.183954  0  0  0.218162  0.612967  0  4.199182  0
C  C70  1  0.15586063  0.04113190  0.81096654  1  0  0.696279  0  3.882815  0  1.680956  0  0.636387  0  4.193478  0  0  0.671054  0  4.183932  0  0  0.218191  0.612969  0  4.199147  0
C  C71  1  0.34413693  0.95886805  0.31096892  1  0  0.696457  0  3.882707  0  1.680734  0  0.63663  0  4.193232  0  0  0.671305  0  4.183671  0  0  0.218263  0.613204  0  4.19891  0
C  C72  1  0.96379883  0.31989372  0.40367731  1  0  0.118169  0  3.717712  0  0.443084  0  0.088426  0  3.967935  0  0  0.094368  0  3.987926  0  0  0.041967  0.084781  0  3.954083  0
C  C73  1  0.53620309  0.68008622  0.90368032  1  0  0.118329  0  3.717822  0  0.443278  0  0.088677  0  3.968015  0  0  0.09462  0  3.988007  0  0  0.041997  0.085038  0  3.954168  0
C  C74  1  0.46379294  0.18009984  0.59632065  1  0  0.118161  0  3.717837  0  0.443522  0  0.088445  0  3.968072  0  0  0.094388  0  3.988063  0  0  0.041844  0.084799  0  3.954213  0
C  C75  1  0.03620643  0.81990076  0.09632485  1  0  0.118445  0  3.717451  0  0.443344  0  0.088758  0  3.967672  0  0  0.094704  0  3.987657  0  0  0.042085  0.085112  0  3.953824  0
C  C76  1  0.96300817  0.34673644  0.44925074  1  0  -0.123963  0  3.738008  0  0.036993  0  -0.13836  0  3.993922  0  0  -0.145729  0  4.016517  0  0  -0.091871  -0.133591  0  3.978642  0
C  C77  1  0.53697449  0.65324991  0.94925048  1  0  -0.12393  0  3.73842  0  0.036736  0  -0.13832  0  3.994226  0  0  -0.145696  0  4.016837  0  0  -0.091837  -0.133549  0  3.978939  0
C  C78  1  0.46301347  0.15325585  0.55074623  1  0  -0.123936  0  3.738187  0  0.036373  0  -0.138341  0  3.994086  0  0  -0.145706  0  4.01668  0  0  -0.091835  -0.133573  0  3.978802  0
C  C79  1  0.03698233  0.84674089  0.05074774  1  0  -0.124108  0  3.738019  0  0.036935  0  -0.138568  0  3.993893  0  0  -0.145937  0  4.016489  0  0  -0.091931  -0.133798  0  3.978612  0
C  C80  1  0.13886141  0.43154148  0.46857313  1  0  -0.007472  0  3.729592  0  -0.037743  0  -0.03234  0  3.989608  0  0  -0.028461  0  4.00784  0  0  -0.074149  -0.03455  0  3.977086  0
C  C81  1  0.36114536  0.56844535  0.96857413  1  0  -0.007484  0  3.72964  0  -0.037766  0  -0.032348  0  3.989668  0  0  -0.028444  0  4.007858  0  0  -0.074168  -0.034558  0  3.977147  0
C  C82  1  0.63885428  0.06845400  0.53142539  1  0  -0.007586  0  3.729859  0  -0.037587  0  -0.032421  0  3.989836  0  0  -0.028528  0  4.008052  0  0  -0.074179  -0.034632  0  3.977318  0
C  C83  1  0.86114512  0.93154607  0.03142750  1  0  -0.007395  0  3.729656  0  -0.037431  0  -0.032256  0  3.989696  0  0  -0.028375  0  4.007916  0  0  -0.074105  -0.034464  0  3.977169  0
C  C84  1  0.31117858  0.48480622  0.44174317  1  0  -0.133036  0  3.740313  0  -0.035019  0  -0.146867  0  3.999397  0  0  -0.155252  0  4.022511  0  0  -0.09211  -0.141275  0  3.983589  0
C  C85  1  0.18881823  0.51517878  0.94174090  1  0  -0.133014  0  3.740454  0  -0.035285  0  -0.146811  0  3.999521  0  0  -0.155189  0  4.022621  0  0  -0.092065  -0.141225  0  3.983719  0
C  C86  1  0.81117832  0.01518764  0.55825574  1  0  -0.13309  0  3.740549  0  -0.035235  0  -0.146853  0  3.999661  0  0  -0.15523  0  4.022755  0  0  -0.092054  -0.14126  0  3.983859  0
C  C87  1  0.68882452  0.98481552  0.05825704  1  0  -0.132919  0  3.740279  0  -0.035066  0  -0.14674  0  3.999324  0  0  -0.155125  0  4.022445  0  0  -0.092079  -0.141148  0  3.983515  0
C  C88  1  0.30026425  0.45225995  0.39642436  1  0  0.121457  0  3.710307  0  0.516707  0  0.090475  0  3.962178  0  0  0.096881  0  3.981989  0  0  0.044056  0.086566  0  3.948147  0
C  C89  1  0.19974041  0.54772881  0.89642502  1  0  0.121262  0  3.710661  0  0.516685  0  0.09028  0  3.962526  0  0  0.096679  0  3.982345  0  0  0.043957  0.086374  0  3.948491  0
C  C90  1  0.80025930  0.04773775  0.60357256  1  0  0.121508  0  3.710302  0  0.516757  0  0.090509  0  3.962149  0  0  0.096911  0  3.981972  0  0  0.044003  0.0866  0  3.948109  0
C  C91  1  0.69974548  0.95226675  0.10357723  1  0  0.121353  0  3.710461  0  0.517189  0  0.090393  0  3.96235  0  0  0.096792  0  3.982163  0  0  0.04403  0.086485  0  3.948324  0
N  N92  1  0.12928557  0.37246653  0.37782890  1  0  -0.355274  0  3.281382  0  -1.276221  0  -0.275278  0  3.543738  0  0  -0.295783  0  3.564298  0  0  -0.328514  -0.261141  0  3.529249  0
N  N93  1  0.37072875  0.62752019  0.87782814  1  0  -0.355351  0  3.281207  0  -1.276442  0  -0.275353  0  3.543525  0  0  -0.295855  0  3.56408  0  0  -0.328513  -0.261219  0  3.529041  0
N  N94  1  0.62926745  0.12753278  0.62216863  1  0  -0.35525  0  3.281401  0  -1.276346  0  -0.275245  0  3.543717  0  0  -0.295752  0  3.564278  0  0  -0.328431  -0.261109  0  3.529231  0
N  N95  1  0.87072278  0.87247630  0.12217217  1  0  -0.355401  0  3.281627  0  -1.277015  0  -0.275412  0  3.543954  0  0  -0.295916  0  3.564513  0  0  -0.328563  -0.261276  0  3.529467  0
O  O96  1  0.08704989  0.37252964  0.22542241  1  0  -0.650055  0  2.120761  0  -1.192736  0  -0.571272  0  2.368831  0  0  -0.602497  0  2.357423  0  0  -0.306194  -0.549401  0  2.376146  0
O  O97  1  0.41293894  0.62747260  0.72542563  1  0  -0.650102  0  2.120202  0  -1.192563  0  -0.571214  0  2.368384  0  0  -0.602444  0  2.356982  0  0  -0.306175  -0.549322  0  2.375651  0
O  O98  1  0.58706052  0.12747485  0.77457643  1  0  -0.649982  0  2.12108  0  -1.192748  0  -0.571079  0  2.369014  0  0  -0.602308  0  2.357615  0  0  -0.30606  -0.549186  0  2.376271  0
O  O99  1  0.91294705  0.87253143  0.27457834  1  0  -0.649945  0  2.120432  0  -1.192676  0  -0.571187  0  2.368499  0  0  -0.602421  0  2.357104  0  0  -0.306156  -0.549302  0  2.375781  0
O  O100  1  0.07764582  0.09645032  0.20637520  1  0  -0.60982  0  2.035069  0  -1.172775  0  -0.557253  0  2.300675  0  0  -0.582914  0  2.28651  0  0  -0.310341  -0.538954  0  2.309395  0
O  O101  1  0.42237549  0.90353844  0.70637427  1  0  -0.609792  0  2.035756  0  -1.172908  0  -0.557156  0  2.301502  0  0  -0.582806  0  2.287333  0  0  -0.310292  -0.538866  0  2.310217  0
O  O102  1  0.57764430  0.40356054  0.79362463  1  0  -0.609863  0  2.034852  0  -1.172806  0  -0.55733  0  2.300474  0  0  -0.582993  0  2.286308  0  0  -0.310362  -0.539031  0  2.309189  0
O  O103  1  0.92236992  0.59645795  0.29362804  1  0  -0.609797  0  2.035616  0  -1.173311  0  -0.557203  0  2.30116  0  0  -0.582857  0  2.286995  0  0  -0.31033  -0.538909  0  2.309876  0
O  O104  1  0.62677228  0.61792864  0.19430194  1  0  -0.665387  0  2.011228  0  -1.205997  0  -0.60349  0  2.267373  0  0  -0.630529  0  2.252891  0  0  -0.325756  -0.584283  0  2.276726  0
O  O105  1  0.87323149  0.38207597  0.69430131  1  0  -0.665343  0  2.011247  0  -1.205871  0  -0.603533  0  2.267484  0  0  -0.630573  0  2.253004  0  0  -0.325759  -0.584325  0  2.276834  0
O  O106  1  0.12677369  0.88207469  0.80569730  1  0  -0.665384  0  2.011232  0  -1.205915  0  -0.603523  0  2.267495  0  0  -0.630562  0  2.253017  0  0  -0.325728  -0.584313  0  2.276841  0
O  O107  1  0.37322546  0.11792031  0.30569895  1  0  -0.665467  0  2.011307  0  -1.205838  0  -0.603614  0  2.267529  0  0  -0.630657  0  2.253042  0  0  -0.325762  -0.584404  0  2.276881  0
O  O108  1  0.58624958  0.34426070  0.21451379  1  0  -0.599119  0  1.982065  0  -1.195117  0  -0.534852  0  2.195649  0  0  -0.561015  0  2.186437  0  0  -0.288014  -0.516729  0  2.201657  0
O  O109  1  0.91373639  0.65573828  0.71451498  1  0  -0.599082  0  1.982189  0  -1.195198  0  -0.534778  0  2.19573  0  0  -0.560935  0  2.186519  0  0  -0.287969  -0.516684  0  2.201757  0
O  O110  1  0.08626461  0.15573743  0.78548471  1  0  -0.599199  0  1.982263  0  -1.195426  0  -0.534855  0  2.195836  0  0  -0.561005  0  2.186625  0  0  -0.288047  -0.516768  0  2.20187  0
O  O111  1  0.41375397  0.84425939  0.28548833  1  0  -0.59923  0  1.982018  0  -1.195178  0  -0.534955  0  2.195606  0  0  -0.561115  0  2.186381  0  0  -0.288047  -0.516851  0  2.201632  0
O  O112  1  0.82265398  0.16818637  0.31000359  1  0  -0.855447  0  1.859379  0  -1.305176  0  -0.792257  0  2.060613  0  0  -0.815309  0  2.026297  0  0  -0.591412  -0.775806  0  2.084549  0
O  O113  1  0.67735057  0.83181134  0.81000337  1  0  -0.855424  0  1.859489  0  -1.305172  0  -0.792247  0  2.06062  0  0  -0.8153  0  2.026311  0  0  -0.591462  -0.7758  0  2.084556  0
O  O114  1  0.32265966  0.33182400  0.68999499  1  0  -0.855177  0  1.859614  0  -1.305137  0  -0.791991  0  2.060945  0  0  -0.815037  0  2.026618  0  0  -0.591362  -0.775543  0  2.08488  0
O  O115  1  0.17734524  0.66819062  0.18999688  1  0  -0.855457  0  1.859331  0  -1.305017  0  -0.792286  0  2.060546  0  0  -0.81534  0  2.026233  0  0  -0.591462  -0.775837  0  2.084483  0
O  O116  1  0.43911782  0.49322612  0.29222189  1  0  -0.840763  0  1.877457  0  -1.272425  0  -0.779454  0  2.08048  0  0  -0.802386  0  2.044635  0  0  -0.591543  -0.762911  0  2.105101  0
O  O117  1  0.06089918  0.50676416  0.79222059  1  0  -0.840883  0  1.877536  0  -1.272323  0  -0.779536  0  2.080631  0  0  -0.802501  0  2.04472  0  0  -0.591581  -0.762992  0  2.105239  0
O  O118  1  0.93910393  0.00676622  0.70777739  1  0  -0.840886  0  1.8775  0  -1.272412  0  -0.779572  0  2.08058  0  0  -0.802518  0  2.044712  0  0  -0.5916  -0.763027  0  2.105197  0
O  O119  1  0.56089015  0.99323294  0.20777996  1  0  -0.840764  0  1.877481  0  -1.272352  0  -0.779463  0  2.080505  0  0  -0.802398  0  2.04466  0  0  -0.591496  -0.762921  0  2.105128  0
F  F120  1  0.29262670  0.18651305  0.11910311  1  0  -0.168137  0  1.254908  0  -0.644  0  -0.108027  0  1.418067  0  0  -0.12278  0  1.415218  0  0  -0.077112  -0.101583  0  1.424139  0
F  F121  1  0.20736467  0.81350475  0.61910227  1  0  -0.168188  0  1.25482  0  -0.644228  0  -0.10809  0  1.41793  0  0  -0.122867  0  1.415099  0  0  -0.077092  -0.101648  0  1.424002  0
F  F122  1  0.79263910  0.31348086  0.88089547  1  0  -0.168178  0  1.254988  0  -0.644123  0  -0.108031  0  1.418135  0  0  -0.12277  0  1.41527  0  0  -0.077093  -0.101587  0  1.424206  0
F  F123  1  0.70737571  0.68651876  0.38089997  1  0  -0.168128  0  1.254725  0  -0.643971  0  -0.108056  0  1.417865  0  0  -0.122832  0  1.415033  0  0  -0.077126  -0.101614  0  1.423934  0
F  F124  1  0.16462943  0.29444065  0.03791687  1  0  -0.149099  0  1.257384  0  -0.636634  0  -0.09873  0  1.421979  0  0  -0.105928  0  1.411351  0  0  -0.07916  -0.093313  0  1.428955  0
F  F125  1  0.33533693  0.70556406  0.53791628  1  0  -0.149114  0  1.257363  0  -0.636846  0  -0.09865  0  1.421996  0  0  -0.105847  0  1.411366  0  0  -0.079094  -0.093234  0  1.428974  0
F  F126  1  0.66464924  0.20555605  0.96208067  1  0  -0.149159  0  1.257405  0  -0.636687  0  -0.098751  0  1.422003  0  0  -0.10595  0  1.41138  0  0  -0.07916  -0.093335  0  1.428979  0
F  F127  1  0.83535634  0.79444521  0.46208568  1  0  -0.149164  0  1.257323  0  -0.636793  0  -0.098736  0  1.421926  0  0  -0.105933  0  1.411294  0  0  -0.079118  -0.093319  0  1.428904  0
F  F128  1  0.78202500  0.46957595  0.02820865  1  0  -0.151199  0  1.269095  0  -0.635707  0  -0.099799  0  1.436749  0  0  -0.107966  0  1.427937  0  0  -0.07797  -0.093894  0  1.442854  0
F  F129  1  0.71794014  0.53042039  0.52820967  1  0  -0.151337  0  1.269381  0  -0.635588  0  -0.099875  0  1.437019  0  0  -0.108034  0  1.428214  0  0  -0.07797  -0.09397  0  1.443121  0
F  F130  1  0.28203843  0.03042179  0.97178992  1  0  -0.151185  0  1.269283  0  -0.63566  0  -0.099774  0  1.436891  0  0  -0.107938  0  1.428081  0  0  -0.077936  -0.093869  0  1.442994  0
F  F131  1  0.21795858  0.96958784  0.47179258  1  0  -0.151181  0  1.26917  0  -0.635797  0  -0.099733  0  1.436774  0  0  -0.107897  0  1.427967  0  0  -0.077883  -0.093825  0  1.442877  0
F  F132  1  0.53315654  0.54466486  0.09967724  1  0  -0.172973  0  1.220107  0  -0.641191  0  -0.117388  0  1.379966  0  0  -0.125423  0  1.37038  0  0  -0.089477  -0.111518  0  1.386413  0
F  F133  1  0.96684822  0.45535373  0.59967649  1  0  -0.172773  0  1.220055  0  -0.64098  0  -0.117292  0  1.379916  0  0  -0.125328  0  1.370328  0  0  -0.089395  -0.111423  0  1.386363  0
F  F134  1  0.03314532  0.95534883  0.90032231  1  0  -0.172885  0  1.220011  0  -0.641078  0  -0.117364  0  1.379904  0  0  -0.125399  0  1.370318  0  0  -0.089479  -0.111492  0  1.386351  0
F  F135  1  0.46685611  0.04466144  0.40032578  1  0  -0.172838  0  1.22018  0  -0.641272  0  -0.117257  0  1.380046  0  0  -0.125293  0  1.370459  0  0  -0.089381  -0.111388  0  1.386493  0
