# generated using pymatgen
data_LiH13C11N2O
_symmetry_space_group_name_H-M   'P 1'
_cell_length_a   8.24661602
_cell_length_b   10.66135379
_cell_length_c   12.66700000
_cell_angle_alpha   99.36042834
_cell_angle_beta   90.00000000
_cell_angle_gamma   90.00000000
_symmetry_Int_Tables_number   1
_chemical_formula_structural   LiH13C11N2O
_chemical_formula_sum   'Li4 H52 C44 N8 O4'
_cell_volume   1098.85478978
_cell_formula_units_Z   4
loop_
 _symmetry_equiv_pos_site_id
 _symmetry_equiv_pos_as_xyz
  1  'x, y, z'
loop_
 _atom_site_type_symbol
 _atom_site_label
 _atom_site_symmetry_multiplicity
 _atom_site_fract_x
 _atom_site_fract_y
 _atom_site_fract_z
 _atom_site_occupancy
 _atom_site_hle17_bader_spin_density
 _atom_site_hle17_ddec_charge
 _atom_site_hle17_ddec_spin_density
 _atom_site_hle17_ddec_sum_bond_order
 _atom_site_hle17_magmom
 _atom_site_hse06_10hf_bader_spin_density
 _atom_site_hse06_10hf_ddec_charge
 _atom_site_hse06_10hf_ddec_spin_density
 _atom_site_hse06_10hf_ddec_sum_bond_order
 _atom_site_hse06_10hf_magmom
 _atom_site_hse06_bader_spin_density
 _atom_site_hse06_ddec_charge
 _atom_site_hse06_ddec_spin_density
 _atom_site_hse06_ddec_sum_bond_order
 _atom_site_hse06_magmom
 _atom_site_pbe_bader_charge
 _atom_site_pbe_bader_spin_density
 _atom_site_pbe_cm5_charge
 _atom_site_pbe_ddec_charge
 _atom_site_pbe_ddec_spin_density
 _atom_site_pbe_ddec_sum_bond_order
 _atom_site_pbe_magmom
Li  Li0  1  0.86455098  0.51126800  0.04688990  1  0  0.810008  0  0.483919  0  0  0.753012  0  0.616487  0  0  0.762821  0  0.600815  0  0.849338  0  0.557239  0.746018  0  0.627546  0
Li  Li1  1  0.36455438  0.48873058  0.45311314  1  0  0.81002  0  0.483886  0  0  0.753057  0  0.616409  0  0  0.762865  0  0.600739  0  0.849317  0  0.557259  0.746065  0  0.627465  0
Li  Li2  1  0.13545071  0.48873533  0.95311143  1  0  0.810049  0  0.483823  0  0  0.753083  0  0.616345  0  0  0.762889  0  0.600677  0  0.849334  0  0.557275  0.746091  0  0.627402  0
Li  Li3  1  0.63545095  0.51126610  0.54688964  1  0  0.810028  0  0.483879  0  0  0.753055  0  0.616404  0  0  0.76286  0  0.600736  0  0.84933  0  0.557242  0.746063  0  0.62746  0
H  H4  1  0.88215093  0.46207886  0.84296122  1  0  0.26876  0  0.97363  0  0  0.266193  0  1.030098  0  0  0.271014  0  1.027683  0  0.357254  0  0.273877  0.262895  0  1.031599  0
H  H5  1  0.38215069  0.53792637  0.65704036  1  0  0.268779  0  0.973662  0  0  0.266207  0  1.030129  0  0  0.27103  0  1.027713  0  0.357033  0  0.273884  0.26291  0  1.031631  0
H  H6  1  0.11785440  0.53791497  0.15704433  1  0  0.268835  0  0.973594  0  0  0.266269  0  1.030062  0  0  0.271091  0  1.027643  0  0.357679  0  0.273911  0.262971  0  1.031565  0
H  H7  1  0.61785464  0.46207505  0.34296070  1  0  0.268744  0  0.973717  0  0  0.266181  0  1.030168  0  0  0.271005  0  1.027748  0  0.357022  0  0.27388  0.262881  0  1.031677  0
H  H8  1  0.64871457  0.08567983  0.68100259  1  0  0.087287  0  0.956936  0  0  0.100211  0  1.017379  0  0  0.102395  0  1.01613  0  0.06749  0  0.101474  0.098664  0  1.018146  0
H  H9  1  0.14872888  0.91433015  0.81899886  1  0  0.087375  0  0.956981  0  0  0.100245  0  1.017461  0  0  0.10246  0  1.016175  0  0.06727  0  0.101504  0.098695  0  1.01823  0
H  H10  1  0.35128833  0.91432825  0.31899939  1  0  0.087322  0  0.956858  0  0  0.100219  0  1.01733  0  0  0.102418  0  1.016061  0  0.067194  0  0.101487  0.098668  0  1.018101  0
H  H11  1  0.85127645  0.08566747  0.18099853  1  0  0.087402  0  0.956846  0  0  0.100261  0  1.017355  0  0  0.102476  0  1.016068  0  0.067459  0  0.1015  0.098711  0  1.018124  0
H  H12  1  0.72850003  0.92814939  0.79703886  1  0  0.084979  0  0.972919  0  0  0.099421  0  1.029651  0  0  0.102028  0  1.029964  0  0.032026  0  0.095704  0.097571  0  1.029558  0
H  H13  1  0.22851070  0.07185299  0.70296154  1  0  0.084977  0  0.973281  0  0  0.09945  0  1.029952  0  0  0.102057  0  1.03027  0  0.032082  0  0.095671  0.097634  0  1.029821  0
H  H14  1  0.27149075  0.07185204  0.20296062  1  0  0.085005  0  0.972957  0  0  0.099442  0  1.029691  0  0  0.102049  0  1.030005  0  0.032037  0  0.095666  0.0976  0  1.029589  0
H  H15  1  0.77148978  0.92814559  0.29703834  1  0  0.084992  0  0.973171  0  0  0.099427  0  1.029891  0  0  0.102034  0  1.030208  0  0.031972  0  0.095675  0.097612  0  1.02976  0
H  H16  1  0.89781433  0.00005894  0.95858705  1  0  0.06634  0  0.99328  0  0  0.079619  0  1.056412  0  0  0.081806  0  1.054064  0  0.035556  0  0.092107  0.077968  0  1.058147  0
H  H17  1  0.39782136  0.99995010  0.54141032  1  0  0.066305  0  0.993171  0  0  0.079596  0  1.056329  0  0  0.081792  0  1.053956  0  0.035284  0  0.092105  0.077963  0  1.058036  0
H  H18  1  0.10217646  0.99993393  0.04141442  1  0  0.066282  0  0.993382  0  0  0.079599  0  1.056482  0  0  0.081788  0  1.054131  0  0.035291  0  0.092112  0.077969  0  1.058182  0
H  H19  1  0.60217427  0.00005038  0.45858509  1  0  0.066273  0  0.993213  0  0  0.079581  0  1.056349  0  0  0.081776  0  1.053977  0  0.035439  0  0.092079  0.077946  0  1.058062  0
H  H20  1  0.98812167  0.22302043  0.00503907  1  0  0.097493  0  0.952697  0  0  0.109772  0  1.012369  0  0  0.112914  0  1.011713  0  0.070092  0  0.107452  0.10755  0  1.012996  0
H  H21  1  0.48812507  0.77698100  0.49496042  1  0  0.097458  0  0.952588  0  0  0.10972  0  1.012284  0  0  0.11286  0  1.011633  0  0.070135  0  0.107434  0.107505  0  1.012902  0
H  H22  1  0.01187881  0.77696769  0.99496807  1  0  0.097506  0  0.952582  0  0  0.109745  0  1.012301  0  0  0.112886  0  1.011644  0  0.069977  0  0.107434  0.107528  0  1.012923  0
H  H23  1  0.51187784  0.22302043  0.50503670  1  0  0.097467  0  0.952613  0  0  0.109722  0  1.01232  0  0  0.112862  0  1.011668  0  0.07018  0  0.107448  0.107505  0  1.012941  0
H  H24  1  0.77799184  0.74635946  0.16271142  1  0  0.04825  0  0.946938  0  0  0.060382  0  1.017105  0  0  0.060535  0  1.017032  0  0.052707  0  0.104641  0.060198  0  1.017251  0
H  H25  1  0.27799039  0.25363816  0.33728834  1  0  0.048251  0  0.946915  0  0  0.060373  0  1.017074  0  0  0.060524  0  1.017003  0  0.052744  0  0.104658  0.060189  0  1.017219  0
H  H26  1  0.22200864  0.25364101  0.83728794  1  0  0.048247  0  0.946888  0  0  0.060376  0  1.017056  0  0  0.06053  0  1.01698  0  0.052735  0  0.104632  0.060191  0  1.017202  0
H  H27  1  0.72201252  0.74636327  0.66271194  1  0  0.048218  0  0.946917  0  0  0.060329  0  1.017093  0  0  0.060481  0  1.017021  0  0.052772  0  0.104634  0.060145  0  1.017237  0
H  H28  1  0.56597882  0.70873468  0.16751431  1  0  0.043138  0  0.937106  0  0  0.054841  0  1.004944  0  0  0.055469  0  1.004272  0  0.037643  0  0.094384  0.054333  0  1.005445  0
H  H29  1  0.06597737  0.29126675  0.33248518  1  0  0.04312  0  0.937133  0  0  0.054827  0  1.004947  0  0  0.055457  0  1.004269  0  0.037829  0  0.094367  0.05432  0  1.005446  0
H  H30  1  0.43402166  0.29126580  0.83248584  1  0  0.043125  0  0.93711  0  0  0.054824  0  1.004949  0  0  0.055454  0  1.004269  0  0.037635  0  0.094374  0.054316  0  1.005448  0
H  H31  1  0.93402676  0.70873658  0.66751220  1  0  0.043139  0  0.937121  0  0  0.054842  0  1.004943  0  0  0.05547  0  1.004271  0  0.037796  0  0.094379  0.054334  0  1.005444  0
H  H32  1  0.54934776  0.91736740  0.11385136  1  0  0.07833  0  0.967343  0  0  0.094769  0  1.031726  0  0  0.094643  0  1.034345  0  0.064382  0  0.091562  0.094867  0  1.029855  0
H  H33  1  0.04934145  0.08263308  0.38614721  1  0  0.0783  0  0.967303  0  0  0.094729  0  1.031678  0  0  0.094625  0  1.034274  0  0.064329  0  0.091557  0.094829  0  1.029808  0
H  H34  1  0.45065030  0.08263308  0.88615036  1  0  0.078382  0  0.967317  0  0  0.094824  0  1.031683  0  0  0.094696  0  1.034301  0  0.064428  0  0.091591  0.094922  0  1.029812  0
H  H35  1  0.95065418  0.91736930  0.61384688  1  0  0.078343  0  0.96732  0  0  0.094789  0  1.031676  0  0  0.094663  0  1.03429  0  0.064089  0  0.091587  0.094886  0  1.029804  0
H  H36  1  0.73080400  0.89120810  0.03752859  1  0  0.061685  0  0.961705  0  0  0.078709  0  1.026418  0  0  0.078511  0  1.027879  0  -0.019455  0  0.086291  0.07872  0  1.025563  0
H  H37  1  0.23079891  0.10879048  0.46246972  1  0  0.061733  0  0.961624  0  0  0.078751  0  1.026339  0  0  0.078549  0  1.027803  0  -0.019479  0  0.086317  0.078761  0  1.025487  0
H  H38  1  0.26919163  0.10879428  0.96247181  1  0  0.061709  0  0.961658  0  0  0.078726  0  1.02637  0  0  0.078527  0  1.02783  0  -0.019486  0  0.086291  0.078736  0  1.025519  0
H  H39  1  0.76919551  0.89120905  0.53752635  1  0  0.061696  0  0.961662  0  0  0.078712  0  1.026382  0  0  0.078511  0  1.027843  0  -0.019448  0  0.086292  0.07872  0  1.025533  0
H  H40  1  0.51998177  0.83788849  0.89938879  1  0  0.074747  0  0.953529  0  0  0.09152  0  1.016417  0  0  0.091782  0  1.017723  0  0.027621  0  0.092044  0.091308  0  1.015522  0
H  H41  1  0.01998032  0.16211199  0.60061056  1  0  0.07479  0  0.953554  0  0  0.091534  0  1.016431  0  0  0.091797  0  1.017736  0  0.027399  0  0.092048  0.091321  0  1.015538  0
H  H42  1  0.48001386  0.16211484  0.10061253  1  0  0.074851  0  0.953433  0  0  0.091606  0  1.016319  0  0  0.09187  0  1.017622  0  0.027382  0  0.092084  0.091394  0  1.015425  0
H  H43  1  0.98001168  0.83788659  0.39938380  1  0  0.074909  0  0.953386  0  0  0.091653  0  1.016279  0  0  0.091916  0  1.017584  0  0.0273  0  0.092106  0.091442  0  1.015384  0
H  H44  1  0.40048063  0.76215980  0.98693957  1  0  0.078793  0  0.956037  0  0  0.094501  0  1.017801  0  0  0.094268  0  1.020828  0  0.031728  0  0.093533  0.094561  0  1.015832  0
H  H45  1  0.90047724  0.23784163  0.51306229  1  0  0.078833  0  0.95603  0  0  0.094521  0  1.017777  0  0  0.094283  0  1.020809  0  0.031674  0  0.09353  0.094584  0  1.015805  0
H  H46  1  0.59951742  0.23783972  0.01306203  1  0  0.078844  0  0.956039  0  0  0.094551  0  1.017785  0  0  0.094319  0  1.020812  0  0.031698  0  0.093559  0.094611  0  1.015817  0
H  H47  1  0.09951718  0.76216075  0.48693180  1  0  0.078881  0  0.956064  0  0  0.094594  0  1.017772  0  0  0.094359  0  1.0208  0  0.031746  0  0.093572  0.094653  0  1.015804  0
H  H48  1  0.53951099  0.57653126  0.89796175  1  0  0.062907  0  0.921762  0  0  0.075473  0  0.984871  0  0  0.076371  0  0.98403  0  0.068508  0  0.109131  0.074773  0  0.985527  0
H  H49  1  0.03951318  0.42346827  0.60203905  1  0  0.062908  0  0.921764  0  0  0.075456  0  0.984887  0  0  0.076355  0  0.984045  0  0.068527  0  0.109129  0.074756  0  0.985543  0
H  H50  1  0.46049313  0.42347207  0.10203404  1  0  0.062958  0  0.921859  0  0  0.075539  0  0.98491  0  0  0.076446  0  0.984069  0  0.068457  0  0.109132  0.074836  0  0.98557  0
H  H51  1  0.96048609  0.57652936  0.39795992  1  0  0.062907  0  0.921726  0  0  0.075468  0  0.984851  0  0  0.076365  0  0.984011  0  0.068505  0  0.109126  0.074768  0  0.985507  0
H  H52  1  0.71587061  0.66592613  0.87425856  1  0  0.03891  0  0.920058  0  0  0.054383  0  0.982373  0  0  0.055197  0  0.98114  0  0.035506  0  0.099664  0.053639  0  0.983377  0
H  H53  1  0.21587158  0.33407054  0.62573948  1  0  0.038854  0  0.920097  0  0  0.05434  0  0.982392  0  0  0.055156  0  0.981157  0  0.035466  0  0.09963  0.053596  0  0.983396  0
H  H54  1  0.28413109  0.33408290  0.12574117  1  0  0.038939  0  0.92006  0  0  0.054365  0  0.982408  0  0  0.055183  0  0.981175  0  0.035552  0  0.099643  0.053622  0  0.983412  0
H  H55  1  0.78412406  0.66592423  0.37425909  1  0  0.038893  0  0.919993  0  0  0.054391  0  0.982296  0  0  0.055208  0  0.981059  0  0.035425  0  0.099657  0.053647  0  0.983301  0
C  C56  1  0.72587471  0.32964538  0.71186538  1  0  0.334822  0  3.832481  0  0  0.319084  0  4.095841  0  0  0.334292  0  4.111605  0  0.798115  0  0.207976  0.308784  0  4.08545  0
C  C57  1  0.22588417  0.67036365  0.78813752  1  0  0.334757  0  3.8322  0  0  0.319017  0  4.095549  0  0  0.334217  0  4.111315  0  0.797699  0  0.207886  0.308718  0  4.085157  0
C  C58  1  0.27413669  0.67035509  0.28814187  1  0  0.334681  0  3.832442  0  0  0.318932  0  4.09579  0  0  0.33414  0  4.111554  0  0.797807  0  0.207932  0.308633  0  4.085403  0
C  C59  1  0.77411874  0.32964063  0.21185446  1  0  0.334849  0  3.832605  0  0  0.319054  0  4.095916  0  0  0.334273  0  4.111695  0  0.797453  0  0.208029  0.308758  0  4.085527  0
C  C60  1  0.77306740  0.24220785  0.77781567  1  0  -0.159088  0  3.863848  0  0  -0.131236  0  4.088762  0  0  -0.144204  0  4.112943  0  0.032894  0  -0.031983  -0.123119  0  4.0728  0
C  C61  1  0.27307565  0.75780689  0.72218722  1  0  -0.159084  0  3.86397  0  0  -0.131224  0  4.088852  0  0  -0.144175  0  4.113018  0  0.031361  0  -0.032103  -0.123107  0  4.072889  0
C  C62  1  0.22694157  0.75779453  0.22219105  1  0  -0.159087  0  3.864028  0  0  -0.131222  0  4.088882  0  0  -0.144199  0  4.113076  0  0.032232  0  -0.032044  -0.123106  0  4.07292  0
C  C63  1  0.72692241  0.24219264  0.27780806  1  0  -0.159347  0  3.864181  0  0  -0.13134  0  4.08892  0  0  -0.144367  0  4.113183  0  0.031555  0  -0.032096  -0.123225  0  4.072956  0
C  C64  1  0.72335610  0.11407215  0.75193750  1  0  -0.05877  0  3.797796  0  0  -0.08075  0  4.043661  0  0  -0.075173  0  4.062491  0  0.017191  0  -0.081902  -0.083977  0  4.030668  0
C  C65  1  0.22336071  0.88592738  0.74807277  1  0  -0.058974  0  3.797583  0  0  -0.080902  0  4.043438  0  0  -0.075351  0  4.062258  0  0.019161  0  -0.081892  -0.08413  0  4.030461  0
C  C66  1  0.27664681  0.88592738  0.24806567  1  0  -0.058707  0  3.79789  0  0  -0.080654  0  4.043715  0  0  -0.075086  0  4.062548  0  0.017784  0  -0.081826  -0.083881  0  4.030725  0
C  C67  1  0.77663614  0.11406645  0.25193041  1  0  -0.058943  0  3.79808  0  0  -0.08091  0  4.043883  0  0  -0.075338  0  4.062721  0  0.018877  0  -0.081954  -0.084137  0  4.030906  0
C  C68  1  0.76760334  0.02670116  0.81615774  1  0  -0.142984  0  3.835162  0  0  -0.157083  0  4.091059  0  0  -0.165924  0  4.114686  0  -0.044995  0  -0.124623  -0.151472  0  4.074849  0
C  C69  1  0.26761280  0.97332214  0.68383842  1  0  -0.143087  0  3.834662  0  0  -0.157228  0  4.090573  0  0  -0.166076  0  4.114216  0  -0.052432  0  -0.124695  -0.151645  0  4.074357  0
C  C70  1  0.23239472  0.97330217  0.18384358  1  0  -0.143169  0  3.835157  0  0  -0.157273  0  4.091069  0  0  -0.166116  0  4.114704  0  -0.044974  0  -0.124698  -0.151668  0  4.07486  0
C  C71  1  0.73238768  0.02668404  0.31615698  1  0  -0.143086  0  3.835076  0  0  -0.157184  0  4.09097  0  0  -0.166027  0  4.114604  0  -0.052274  0  -0.124667  -0.151603  0  4.074755  0
C  C72  1  0.86392042  0.06842504  0.90719821  1  0  -0.045741  0  3.832435  0  0  -0.062882  0  4.086583  0  0  -0.05764  0  4.105694  0  -0.033336  0  -0.093441  -0.065785  0  4.07311  0
C  C73  1  0.36393110  0.93156308  0.59280103  1  0  -0.045675  0  3.832909  0  0  -0.062846  0  4.087123  0  0  -0.057599  0  4.106238  0  -0.026308  0  -0.093407  -0.065759  0  4.073646  0
C  C74  1  0.13607400  0.93156784  0.09280247  1  0  -0.045727  0  3.832394  0  0  -0.062917  0  4.086566  0  0  -0.057673  0  4.10567  0  -0.03329  0  -0.093429  -0.065829  0  4.07309  0
C  C75  1  0.63606817  0.06842884  0.40719558  1  0  -0.045699  0  3.832591  0  0  -0.062874  0  4.086758  0  0  -0.057625  0  4.105866  0  -0.026342  0  -0.093438  -0.065787  0  4.073284  0
C  C76  1  0.91479584  0.19291319  0.93374071  1  0  -0.202985  0  3.722427  0  0  -0.219646  0  3.981449  0  0  -0.228905  0  4.001722  0  -0.108157  0  -0.103018  -0.213517  0  3.967525  0
C  C77  1  0.41479560  0.80710440  0.56626257  1  0  -0.202997  0  3.722691  0  0  -0.219651  0  3.98174  0  0  -0.228913  0  4.002023  0  -0.10812  0  -0.103081  -0.213526  0  3.967819  0
C  C78  1  0.08520707  0.80708539  0.06626549  1  0  -0.202865  0  3.722245  0  0  -0.219476  0  3.981234  0  0  -0.228732  0  4.001506  0  -0.107794  0  -0.102991  -0.213351  0  3.967314  0
C  C79  1  0.58520246  0.19289798  0.43373389  1  0  -0.202918  0  3.722536  0  0  -0.219562  0  3.981615  0  0  -0.22882  0  4.001891  0  -0.108091  0  -0.103004  -0.213437  0  3.967693  0
C  C80  1  0.87153688  0.28818673  0.87094805  1  0  0.349488  0  3.889252  0  0  0.33919  0  4.136407  0  0  0.354937  0  4.154551  0  0.543195  0  0.117534  0.328955  0  4.123626  0
C  C81  1  0.37154149  0.71181375  0.62905446  1  0  0.349718  0  3.8889  0  0  0.339437  0  4.136032  0  0  0.355181  0  4.154169  0  0.543672  0  0.11768  0.3292  0  4.123257  0
C  C82  1  0.12846967  0.71181185  0.12905736  1  0  0.349405  0  3.889237  0  0  0.339136  0  4.136334  0  0  0.354884  0  4.154477  0  0.543133  0  0.117549  0.3289  0  4.123557  0
C  C83  1  0.62845778  0.28818102  0.37094569  1  0  0.349712  0  3.888874  0  0  0.339345  0  4.136083  0  0  0.35511  0  4.15423  0  0.54348  0  0.11761  0.32911  0  4.123305  0
C  C84  1  0.66506552  0.73333875  0.11613464  1  0  0.098248  0  3.616619  0  0  0.042055  0  3.890883  0  0  0.049312  0  3.896083  0  0.378408  0  -0.065901  0.037206  0  3.887239  0
C  C85  1  0.16506286  0.26666077  0.38386380  1  0  0.098231  0  3.616541  0  0  0.042083  0  3.890749  0  0  0.049337  0  3.89595  0  0.378172  0  -0.065889  0.037235  0  3.887106  0
C  C86  1  0.33493496  0.26666172  0.88386472  1  0  0.098286  0  3.616574  0  0  0.042091  0  3.890824  0  0  0.04935  0  3.896019  0  0.378369  0  -0.065871  0.037243  0  3.887181  0
C  C87  1  0.83493763  0.73334066  0.61613332  1  0  0.098202  0  3.616708  0  0  0.042053  0  3.890921  0  0  0.049306  0  3.89612  0  0.378271  0  -0.065903  0.037205  0  3.887275  0
C  C88  1  0.62048845  0.84566841  0.06183298  1  0  -0.147734  0  3.695939  0  0  -0.18758  0  3.950916  0  0  -0.189892  0  3.965971  0  0.010194  0  -0.171313  -0.18582  0  3.940488  0
C  C89  1  0.12048215  0.15433207  0.43816638  1  0  -0.14768  0  3.695819  0  0  -0.187533  0  3.950766  0  0  -0.189854  0  3.9658  0  0.010227  0  -0.171332  -0.185779  0  3.940343  0
C  C90  1  0.37950961  0.15433397  0.93816822  1  0  -0.147794  0  3.695891  0  0  -0.187635  0  3.950841  0  0  -0.189942  0  3.965889  0  0.010147  0  -0.17134  -0.18588  0  3.94042  0
C  C91  1  0.87951470  0.84566841  0.56182903  1  0  -0.147676  0  3.695866  0  0  -0.187519  0  3.950804  0  0  -0.18982  0  3.965843  0  0.010404  0  -0.17135  -0.185759  0  3.940374  0
C  C92  1  0.52543977  0.78097362  0.96406701  1  0  -0.15019  0  3.679085  0  0  -0.186903  0  3.931733  0  0  -0.189343  0  3.946267  0  -0.006181  0  -0.167882  -0.185023  0  3.921573  0
C  C93  1  0.02543589  0.21902686  0.53593392  1  0  -0.150358  0  3.679181  0  0  -0.186988  0  3.931715  0  0  -0.189432  0  3.946251  0  -0.005861  0  -0.167882  -0.185108  0  3.921559  0
C  C94  1  0.47455829  0.21902971  0.03593589  1  0  -0.150383  0  3.67912  0  0  -0.187092  0  3.931752  0  0  -0.189533  0  3.94629  0  -0.005864  0  -0.167986  -0.18521  0  3.921594  0
C  C95  1  0.97455853  0.78097267  0.46406136  1  0  -0.150488  0  3.679039  0  0  -0.187145  0  3.93166  0  0  -0.189589  0  3.946192  0  -0.005937  0  -0.167962  -0.185265  0  3.921502  0
C  C96  1  0.61757574  0.65659670  0.93161727  1  0  0.111977  0  3.581784  0  0  0.056839  0  3.854386  0  0  0.063978  0  3.859438  0  0.358852  0  -0.059122  0.052075  0  3.850738  0
C  C97  1  0.11757550  0.34340283  0.56838117  1  0  0.112043  0  3.582016  0  0  0.056922  0  3.854545  0  0  0.06406  0  3.8596  0  0.358894  0  -0.059103  0.052159  0  3.850893  0
C  C98  1  0.38242474  0.34340758  0.06838103  1  0  0.111914  0  3.582069  0  0  0.056831  0  3.854565  0  0  0.063952  0  3.859641  0  0.358945  0  -0.059073  0.052068  0  3.850912  0
C  C99  1  0.88242135  0.65659575  0.43161792  1  0  0.112003  0  3.581884  0  0  0.056838  0  3.854494  0  0  0.063974  0  3.859551  0  0.359013  0  -0.059133  0.052075  0  3.850844  0
N  N100  1  0.91997251  0.40922220  0.89921732  1  0  -0.943551  0  2.926146  0  0  -0.907607  0  3.18291  0  0  -0.929285  0  3.182386  0  -1.317495  0  -0.721462  -0.892492  0  3.182669  0
N  N101  1  0.41997348  0.59078398  0.60078281  1  0  -0.943592  0  2.926197  0  0  -0.90766  0  3.182969  0  0  -0.929335  0  3.182443  0  -1.317646  0  -0.721427  -0.89255  0  3.182731  0
N  N102  1  0.08003283  0.59077447  0.10078941  1  0  -0.943642  0  2.926139  0  0  -0.907718  0  3.182896  0  0  -0.929396  0  3.182366  0  -1.317856  0  -0.721487  -0.892605  0  3.182659  0
N  N103  1  0.58003186  0.40921650  0.39921575  1  0  -0.943586  0  2.926127  0  0  -0.907644  0  3.182943  0  0  -0.929319  0  3.182409  0  -1.317449  0  -0.721451  -0.892534  0  3.1827  0
N  N104  1  0.68957740  0.40455939  0.65788351  1  0  -0.535707  0  2.67965  0  0  -0.501185  0  2.923074  0  0  -0.512101  0  2.929304  0  -1.285088  0  -0.40145  -0.494121  0  2.919177  0
N  N105  1  0.18958443  0.59544679  0.84212215  1  0  -0.535635  0  2.679505  0  0  -0.501125  0  2.922937  0  0  -0.512043  0  2.929173  0  -1.284679  0  -0.401338  -0.494061  0  2.919038  0
N  N106  1  0.31042672  0.59544014  0.34211966  1  0  -0.535539  0  2.679585  0  0  -0.501038  0  2.923035  0  0  -0.511953  0  2.929258  0  -1.284622  0  -0.401383  -0.493973  0  2.919141  0
N  N107  1  0.81041241  0.40455083  0.15787839  1  0  -0.535538  0  2.679927  0  0  -0.501009  0  2.923355  0  0  -0.511923  0  2.92958  0  -1.28451  0  -0.401389  -0.493946  0  2.91946  0
O  O108  1  0.69048807  0.62762545  0.02962733  1  0  -0.40942  0  2.205406  0  0  -0.335109  0  2.457658  0  0  -0.349821  0  2.455242  0  -1.053923  0  -0.302513  -0.32477  0  2.459001  0
O  O109  1  0.19048541  0.37237313  0.47037413  1  0  -0.409378  0  2.205497  0  0  -0.335132  0  2.45777  0  0  -0.349846  0  2.455354  0  -1.053888  0  -0.302513  -0.324796  0  2.459111  0
O  O110  1  0.30951241  0.37237693  0.97037149  1  0  -0.409419  0  2.205459  0  0  -0.335116  0  2.45769  0  0  -0.349826  0  2.455281  0  -1.05398  0  -0.302537  -0.324778  0  2.45903  0
O  O111  1  0.80951386  0.62762640  0.52962588  1  0  -0.409367  0  2.205563  0  0  -0.335092  0  2.45783  0  0  -0.349803  0  2.455418  0  -1.053916  0  -0.302474  -0.324755  0  2.459171  0
